TITL C-627113-6568-1783 0.671590723964451 125000 -234.325496568652 0 0 40 (C1) n - 1
REM
REM in /home/nfs/bkarasulu/CARBON/AIRSS/Generating-Clusters/LCBOP/Only-C1/SD-CG/FIRE-CG
REM
REM
REM
REM
REM
REM ./C.cell (11c1c37f851c82e70ff6c80c92926a4b)
REM AIRSS Version 0.9.1 bugfix July 2018 build 013d7b7c2542+ Fri, 06 Jul 2018 19:26:36 +0100
REM compiler GCC version 9.2.1 20190827 (Red Hat 9.2.1-1)
REM options -cpp -mtune=generic -march=x86-64 -g -O0 -fpre-include=/usr/include/finclude/math-vector-fortran.h
REM seed -340413700 -1802058605 386338328 691522731 -412262641 1952698013 2024686188 897795815 952474994 -2100725655 -1107994642 501902539 -335750494 210105906 304983696 1452020857 746340766 24397943 928384048 -1361388441 1706903760 2132205425 598035253 -815002071 1244042311 1101315498 -1243209903 578062770 1903307790 -16126290 1875237965 771259848 1362561199
REM
CELL 1.54180   50.00000   50.00000   50.00000   90.00000   90.00000   90.00000
LATT -1
SFAC C  
C      1  0.4038500000000  0.4458020000000  0.4887020000000 1.0
C      1  0.3885990000000  0.4713910000000  0.4920350000000 1.0
C      1  0.6728940000000  0.4840010000000  0.4833820000000 1.0
C      1  0.4269080000000  0.5027740000000  0.5044900000000 1.0
C      1  0.5125000000000  0.5380160000000  0.4589770000000 1.0
C      1  0.5786130000000  0.5394820000000  0.5849870000000 1.0
C      1  0.3589030000000  0.4377420000000  0.4797920000000 1.0
C      1  0.5532670000000  0.5431630000000  0.5919770000000 1.0
C      1  0.4510000000000  0.4622260000000  0.4995200000000 1.0
C      1  0.4036110000000  0.4823550000000  0.4238110000000 1.0
C      1  0.4485550000000  0.5066240000000  0.4377590000000 1.0
C      1  0.5365220000000  0.4874370000000  0.5137090000000 1.0
C      1  0.3610090000000  0.4646910000000  0.4862040000000 1.0
C      1  0.5045660000000  0.5378140000000  0.5747760000000 1.0
C      1  0.5831630000000  0.5161450000000  0.5044910000000 1.0
C      1  0.3840600000000  0.4260290000000  0.4811100000000 1.0
C      1  0.5369810000000  0.5482880000000  0.4593020000000 1.0
C      1  0.5293230000000  0.4770640000000  0.5380070000000 1.0
C      1  0.4762130000000  0.5038260000000  0.5092470000000 1.0
C      1  0.5980310000000  0.5324580000000  0.5683050000000 1.0
C      1  0.6303950000000  0.5039900000000  0.5069870000000 1.0
C      1  0.5270150000000  0.5425870000000  0.5880900000000 1.0
C      1  0.4800200000000  0.5183850000000  0.5327640000000 1.0
C      1  0.4964030000000  0.5032360000000  0.4892070000000 1.0
C      1  0.4708820000000  0.5149890000000  0.4493100000000 1.0
C      1  0.4520380000000  0.4899080000000  0.5049470000000 1.0
C      1  0.5227800000000  0.4663540000000  0.4724920000000 1.0
C      1  0.4887420000000  0.5295190000000  0.5551730000000 1.0
C      1  0.4930910000000  0.5190940000000  0.4657320000000 1.0
C      1  0.5186860000000  0.4856360000000  0.4915560000000 1.0
C      1  0.5619090000000  0.5475750000000  0.4685150000000 1.0
C      1  0.6075360000000  0.5145970000000  0.5189370000000 1.0
C      1  0.5791830000000  0.5357160000000  0.4848900000000 1.0
C      1  0.6080860000000  0.5237360000000  0.5453550000000 1.0
C      1  0.4313930000000  0.4451280000000  0.4928840000000 1.0
C      1  0.4259280000000  0.4953070000000  0.4298700000000 1.0
C      1  0.3818870000000  0.4691440000000  0.4180550000000 1.0
C      1  0.4018130000000  0.4948630000000  0.4991690000000 1.0
C      1  0.6518310000000  0.4939170000000  0.4951150000000 1.0
C      1  0.5618130000000  0.4989900000000  0.5103690000000 1.0
END
