TITL C-627109-622-1698 95794.5617006651 125000 -881.185676008558 0 0 143 (C1) n - 1
REM
REM in /home/nfs/bkarasulu/CARBON/AIRSS/Generating-Clusters/LCBOP/Only-C1/SD-CG/FIRE-CG
REM
REM
REM
REM
REM
REM ./C.cell (11c1c37f851c82e70ff6c80c92926a4b)
REM AIRSS Version 0.9.1 bugfix July 2018 build 013d7b7c2542+ Fri, 06 Jul 2018 19:26:36 +0100
REM compiler GCC version 9.2.1 20190827 (Red Hat 9.2.1-1)
REM options -cpp -mtune=generic -march=x86-64 -g -O0 -fpre-include=/usr/include/finclude/math-vector-fortran.h
REM seed 1485008349 197700207 1247735514 1917124421 -681839133 912478261 -2124451940 2074645175 -883545264 -27716585 -1786176282 -177527114 538666371 48534520 -340984344 1331155834 725789637 -669645532 844592270 -718481172 1785259581 -293322707 -1907224532 1261482082 1500882765 -1081756670 -1274160663 437984819 1980167750 678538136 -150809288 807446262 1138147520
REM
CELL 1.54180   50.00000   50.00000   50.00000   90.00000   90.00000   90.00000
LATT -1
SFAC C  
C      1  0.4978460000000  0.6002500000000  0.5149060000000 1.0
C      1  0.5234730000000  0.4536020000000  0.4247460000000 1.0
C      1  0.5315760000000  0.5586590000000  0.5691390000000 1.0
C      1  0.5519180000000  0.5243660000000  0.4160310000000 1.0
C      1  0.6172400000000  0.4596060000000  0.5117620000000 1.0
C      1  0.5956960000000  0.5769150000000  0.4570810000000 1.0
C      1  0.4908180000000  0.5223760000000  0.5041730000000 1.0
C      1  0.5212340000000  0.3763330000000  0.4937000000000 1.0
C      1  0.4041470000000  0.3870170000000  0.4744520000000 1.0
C      1  0.4435640000000  0.4459720000000  0.4978000000000 1.0
C      1  0.5103820000000  0.4570800000000  0.5027790000000 1.0
C      1  0.4879420000000  0.4140150000000  0.5550410000000 1.0
C      1  0.5001940000000  0.4631320000000  0.5279010000000 1.0
C      1  0.5077700000000  0.5810750000000  0.3441430000000 1.0
C      1  0.4694090000000  0.4849300000000  0.4769510000000 1.0
C      1  0.4234970000000  0.5426070000000  0.5722860000000 1.0
C      1  0.4879110000000  0.5463450000000  0.4894440000000 1.0
C      1  0.4025560000000  0.4931040000000  0.5279330000000 1.0
C      1  0.6024400000000  0.4732100000000  0.4914220000000 1.0
C      1  0.4503730000000  0.5971970000000  0.5542500000000 1.0
C      1  0.6101450000000  0.4186490000000  0.5426640000000 1.0
C      1  0.5441670000000  0.4515650000000  0.5712900000000 1.0
C      1  0.5869030000000  0.4051380000000  0.5457850000000 1.0
C      1  0.4850210000000  0.5170920000000  0.5562290000000 1.0
C      1  0.5085820000000  0.3841330000000  0.5159320000000 1.0
C      1  0.4224580000000  0.4019680000000  0.4634830000000 1.0
C      1  0.5433540000000  0.4799920000000  0.4751880000000 1.0
C      1  0.4842150000000  0.5651190000000  0.5706230000000 1.0
C      1  0.4913110000000  0.4180870000000  0.4402730000000 1.0
C      1  0.5528760000000  0.4919280000000  0.5952710000000 1.0
C      1  0.5611380000000  0.6412470000000  0.5581620000000 1.0
C      1  0.5452400000000  0.5862570000000  0.4442390000000 1.0
C      1  0.5887520000000  0.5171700000000  0.5351020000000 1.0
C      1  0.5174840000000  0.4812830000000  0.4197170000000 1.0
C      1  0.4688830000000  0.4520940000000  0.5993130000000 1.0
C      1  0.4596450000000  0.5229850000000  0.5440850000000 1.0
C      1  0.5719220000000  0.5850470000000  0.4473280000000 1.0
C      1  0.6089400000000  0.5627720000000  0.4761440000000 1.0
C      1  0.4594180000000  0.4608320000000  0.4080210000000 1.0
C      1  0.5328110000000  0.5343510000000  0.5835540000000 1.0
C      1  0.4781270000000  0.5625430000000  0.4267110000000 1.0
C      1  0.4660370000000  0.5632350000000  0.4961520000000 1.0
C      1  0.5174880000000  0.5849590000000  0.4494400000000 1.0
C      1  0.4755110000000  0.4562530000000  0.5364610000000 1.0
C      1  0.4594950000000  0.5709990000000  0.5576200000000 1.0
C      1  0.5362920000000  0.4088690000000  0.5478170000000 1.0
C      1  0.4114930000000  0.5102110000000  0.4512430000000 1.0
C      1  0.4137760000000  0.4734000000000  0.4192680000000 1.0
C      1  0.5781750000000  0.4319040000000  0.4915020000000 1.0
C      1  0.5094330000000  0.4004870000000  0.5386160000000 1.0
C      1  0.5368810000000  0.5306360000000  0.5125770000000 1.0
C      1  0.4119590000000  0.4835640000000  0.5521170000000 1.0
C      1  0.5372300000000  0.3801040000000  0.4726350000000 1.0
C      1  0.5639460000000  0.4330160000000  0.5159410000000 1.0
C      1  0.4669350000000  0.4994840000000  0.5986090000000 1.0
C      1  0.4676290000000  0.4880480000000  0.4127160000000 1.0
C      1  0.4548990000000  0.4745700000000  0.5895200000000 1.0
C      1  0.5609420000000  0.4635190000000  0.4597120000000 1.0
C      1  0.4811210000000  0.4320780000000  0.3749800000000 1.0
C      1  0.5315350000000  0.4259600000000  0.5704380000000 1.0
C      1  0.6067670000000  0.5015870000000  0.4892640000000 1.0
C      1  0.4419350000000  0.5473670000000  0.5491840000000 1.0
C      1  0.6202040000000  0.5096750000000  0.4665080000000 1.0
C      1  0.4412670000000  0.5506500000000  0.5012760000000 1.0
C      1  0.4884790000000  0.4934820000000  0.4562850000000 1.0
C      1  0.5003470000000  0.4359890000000  0.4199530000000 1.0
C      1  0.5152800000000  0.5901920000000  0.5352500000000 1.0
C      1  0.4302460000000  0.5643240000000  0.4460440000000 1.0
C      1  0.3480920000000  0.5649290000000  0.5171790000000 1.0
C      1  0.5018700000000  0.4210430000000  0.4657340000000 1.0
C      1  0.5528820000000  0.5273880000000  0.4677400000000 1.0
C      1  0.4872760000000  0.6028200000000  0.4881430000000 1.0
C      1  0.4247000000000  0.4390560000000  0.5189850000000 1.0
C      1  0.4199870000000  0.5004500000000  0.4257170000000 1.0
C      1  0.5085230000000  0.5065250000000  0.5446630000000 1.0
C      1  0.5093940000000  0.5728840000000  0.5580740000000 1.0
C      1  0.4597970000000  0.5279140000000  0.5992680000000 1.0
C      1  0.5175280000000  0.4576540000000  0.6098230000000 1.0
C      1  0.4711860000000  0.5013960000000  0.5018620000000 1.0
C      1  0.5710010000000  0.5600330000000  0.5026630000000 1.0
C      1  0.4659040000000  0.4305860000000  0.5462590000000 1.0
C      1  0.4460750000000  0.5068670000000  0.4150210000000 1.0
C      1  0.5733900000000  0.5174970000000  0.5576560000000 1.0
C      1  0.5079340000000  0.5276110000000  0.5965710000000 1.0
C      1  0.5525680000000  0.5415210000000  0.4924920000000 1.0
C      1  0.4567050000000  0.5239580000000  0.4660980000000 1.0
C      1  0.5055720000000  0.6042750000000  0.4665820000000 1.0
C      1  0.4954930000000  0.4427340000000  0.5986620000000 1.0
C      1  0.4962330000000  0.5016350000000  0.6028440000000 1.0
C      1  0.5369460000000  0.5004910000000  0.4131770000000 1.0
C      1  0.4433660000000  0.4664440000000  0.4738250000000 1.0
C      1  0.4836720000000  0.5449710000000  0.5921640000000 1.0
C      1  0.4357880000000  0.4372190000000  0.5470640000000 1.0
C      1  0.6203060000000  0.4398860000000  0.5296830000000 1.0
C      1  0.5427890000000  0.5582100000000  0.3757380000000 1.0
C      1  0.4169100000000  0.5391950000000  0.4578120000000 1.0
C      1  0.4020200000000  0.4800600000000  0.5020260000000 1.0
C      1  0.5033680000000  0.4247910000000  0.5780440000000 1.0
C      1  0.5524220000000  0.5424340000000  0.3947510000000 1.0
C      1  0.5998960000000  0.5222560000000  0.5087720000000 1.0
C      1  0.5167650000000  0.4796020000000  0.5442420000000 1.0
C      1  0.5345050000000  0.5056130000000  0.4681810000000 1.0
C      1  0.5532830000000  0.4184910000000  0.4416870000000 1.0
C      1  0.5406770000000  0.4665070000000  0.5954700000000 1.0
C      1  0.4801970000000  0.4426720000000  0.4001730000000 1.0
C      1  0.5544150000000  0.5155790000000  0.5794450000000 1.0
C      1  0.4162430000000  0.4864180000000  0.4768000000000 1.0
C      1  0.5613180000000  0.5818470000000  0.5172020000000 1.0
C      1  0.4559750000000  0.5007930000000  0.5259590000000 1.0
C      1  0.5432000000000  0.5974970000000  0.5320900000000 1.0
C      1  0.5081590000000  0.5137330000000  0.4621390000000 1.0
C      1  0.4411520000000  0.6211070000000  0.5495240000000 1.0
C      1  0.4003890000000  0.4515240000000  0.5095670000000 1.0
C      1  0.4354130000000  0.4553040000000  0.4228680000000 1.0
C      1  0.4332130000000  0.5360440000000  0.5965320000000 1.0
C      1  0.4266270000000  0.5537320000000  0.5246780000000 1.0
C      1  0.4910330000000  0.4889790000000  0.4282050000000 1.0
C      1  0.5362120000000  0.4678350000000  0.4994700000000 1.0
C      1  0.5475140000000  0.4462060000000  0.4399550000000 1.0
C      1  0.5974160000000  0.5499380000000  0.4987090000000 1.0
C      1  0.3998560000000  0.5613020000000  0.5250710000000 1.0
C      1  0.5423580000000  0.4667070000000  0.5471580000000 1.0
C      1  0.4567270000000  0.4769720000000  0.5398570000000 1.0
C      1  0.4394660000000  0.4464100000000  0.4496290000000 1.0
C      1  0.5007370000000  0.5619700000000  0.4440590000000 1.0
C      1  0.5491660000000  0.3951230000000  0.4540300000000 1.0
C      1  0.4420310000000  0.4179700000000  0.4519460000000 1.0
C      1  0.5525120000000  0.4585790000000  0.5214930000000 1.0
C      1  0.3737180000000  0.5642570000000  0.5219170000000 1.0
C      1  0.4363180000000  0.4673150000000  0.5595210000000 1.0
C      1  0.4628570000000  0.5882100000000  0.4826100000000 1.0
C      1  0.5005160000000  0.5416510000000  0.4640220000000 1.0
C      1  0.5616120000000  0.4121170000000  0.5351180000000 1.0
C      1  0.5838830000000  0.4557940000000  0.4763960000000 1.0
C      1  0.4509730000000  0.5611820000000  0.4259790000000 1.0
C      1  0.5021120000000  0.4359740000000  0.4873550000000 1.0
C      1  0.5523280000000  0.6207590000000  0.5446790000000 1.0
C      1  0.4652950000000  0.4072730000000  0.4400680000000 1.0
C      1  0.5621130000000  0.5317880000000  0.4415150000000 1.0
C      1  0.4402760000000  0.5863670000000  0.4640950000000 1.0
C      1  0.5133120000000  0.5198910000000  0.5205760000000 1.0
C      1  0.5266930000000  0.5709680000000  0.3589630000000 1.0
C      1  0.4351620000000  0.5346650000000  0.4797670000000 1.0
END
