TITL C-627107-135-1379 2.08901285726468e-06 125000 -225.388771178368 0 0 37 (C1) n - 1
REM
REM in /home/nfs/bkarasulu/CARBON/AIRSS/Generating-Clusters/LCBOP/Only-C1/SD-CG/FIRE-CG
REM
REM
REM
REM
REM
REM ./C.cell (11c1c37f851c82e70ff6c80c92926a4b)
REM AIRSS Version 0.9.1 bugfix July 2018 build 013d7b7c2542+ Fri, 06 Jul 2018 19:26:36 +0100
REM compiler GCC version 9.2.1 20190827 (Red Hat 9.2.1-1)
REM options -cpp -mtune=generic -march=x86-64 -g -O0 -fpre-include=/usr/include/finclude/math-vector-fortran.h
REM seed 1354326852 -270004459 -1814684843 1105779918 -2010532702 1920311159 -1503018692 1733387304 123900454 -503745836 -1952629539 888444165 1998242881 -1779968794 -1523188174 -1114956803 1443149991 -680421074 -1643180228 -172045297 -2030450735 731629865 -766650708 -695976159 2091402732 521713599 459279054 -1851289099 620316506 -480335591 428497102 1824059108 1126449696
REM
CELL 1.54180   50.00000   50.00000   50.00000   90.00000   90.00000   90.00000
LATT -1
SFAC C  
C      1  0.4525470000000  0.4013660000000  0.5198730000000 1.0
C      1  0.5167270000000  0.5019980000000  0.4952240000000 1.0
C      1  0.5058860000000  0.4795470000000  0.5082810000000 1.0
C      1  0.4611290000000  0.5710740000000  0.4510920000000 1.0
C      1  0.5029980000000  0.5193930000000  0.5604280000000 1.0
C      1  0.5135310000000  0.4491010000000  0.5774300000000 1.0
C      1  0.4641410000000  0.4016760000000  0.5438240000000 1.0
C      1  0.4930840000000  0.6287600000000  0.4695940000000 1.0
C      1  0.5123080000000  0.4973250000000  0.5719540000000 1.0
C      1  0.5700380000000  0.4796940000000  0.5424670000000 1.0
C      1  0.4802210000000  0.4115570000000  0.5625480000000 1.0
C      1  0.5748600000000  0.4886020000000  0.5178260000000 1.0
C      1  0.4709200000000  0.5003200000000  0.4627020000000 1.0
C      1  0.4993820000000  0.5361620000000  0.5401280000000 1.0
C      1  0.5083940000000  0.6186910000000  0.4890120000000 1.0
C      1  0.5646130000000  0.4960940000000  0.4943630000000 1.0
C      1  0.4729700000000  0.4545930000000  0.4787430000000 1.0
C      1  0.4492160000000  0.4122640000000  0.4957860000000 1.0
C      1  0.5265660000000  0.4731800000000  0.5718130000000 1.0
C      1  0.4795230000000  0.5250520000000  0.4731850000000 1.0
C      1  0.5405880000000  0.4978900000000  0.4801450000000 1.0
C      1  0.4847760000000  0.4528980000000  0.4137520000000 1.0
C      1  0.5372580000000  0.4889010000000  0.4537690000000 1.0
C      1  0.4886120000000  0.4603190000000  0.5015250000000 1.0
C      1  0.4975070000000  0.4282040000000  0.5739570000000 1.0
C      1  0.5142820000000  0.5964650000000  0.5024270000000 1.0
C      1  0.4564060000000  0.4321740000000  0.4795340000000 1.0
C      1  0.4933600000000  0.4670460000000  0.4354310000000 1.0
C      1  0.5027660000000  0.5447270000000  0.5136110000000 1.0
C      1  0.4745850000000  0.6200670000000  0.4523640000000 1.0
C      1  0.5197340000000  0.4766860000000  0.4376940000000 1.0
C      1  0.4625480000000  0.5971370000000  0.4459060000000 1.0
C      1  0.4681730000000  0.5484860000000  0.4631160000000 1.0
C      1  0.4760680000000  0.4731350000000  0.4573210000000 1.0
C      1  0.5527230000000  0.4734340000000  0.5616950000000 1.0
C      1  0.5002340000000  0.5251950000000  0.4930160000000 1.0
C      1  0.5113260000000  0.5707850000000  0.5084640000000 1.0
END
