TITL C-627107-135-1623 4.09505561613762e-06 125000 -775.708941112937 0 0 127 (C1) n - 1
REM
REM in /home/nfs/bkarasulu/CARBON/AIRSS/Generating-Clusters/LCBOP/Only-C1/SD-CG/FIRE-CG
REM
REM
REM
REM
REM
REM ./C.cell (11c1c37f851c82e70ff6c80c92926a4b)
REM AIRSS Version 0.9.1 bugfix July 2018 build 013d7b7c2542+ Fri, 06 Jul 2018 19:26:36 +0100
REM compiler GCC version 9.2.1 20190827 (Red Hat 9.2.1-1)
REM options -cpp -mtune=generic -march=x86-64 -g -O0 -fpre-include=/usr/include/finclude/math-vector-fortran.h
REM seed -2019288990 -1142394141 1215128069 2019673824 1905417975 1790986626 1561565163 -1344424194 1925337069 1356329276 -1283308975 1781162117 334974330 1198029919 207625577 -875186984 -1375113823 -1097319345 1209538368 -1005779340 -1585180385 -787110078 488308515 623961471 -983739468 314709532 -268362857 -853936279 -2021035716 -330399424 -1642081510 243536120 1483040666
REM
CELL 1.54180   50.00000   50.00000   50.00000   90.00000   90.00000   90.00000
LATT -1
SFAC C  
C      1  0.4329960000000  0.4696140000000  0.4701130000000 1.0
C      1  0.5644300000000  0.4340280000000  0.4577170000000 1.0
C      1  0.5049180000000  0.5128660000000  0.5570260000000 1.0
C      1  0.4475190000000  0.3962470000000  0.4852630000000 1.0
C      1  0.5710850000000  0.5363190000000  0.5673730000000 1.0
C      1  0.5645750000000  0.5028050000000  0.4267860000000 1.0
C      1  0.4432910000000  0.5447560000000  0.5210520000000 1.0
C      1  0.5460110000000  0.4902920000000  0.5311780000000 1.0
C      1  0.6111440000000  0.5886800000000  0.4686010000000 1.0
C      1  0.4959230000000  0.5349550000000  0.5783860000000 1.0
C      1  0.5444290000000  0.5314010000000  0.5733420000000 1.0
C      1  0.4739260000000  0.3897490000000  0.4778430000000 1.0
C      1  0.5720040000000  0.4875950000000  0.4789870000000 1.0
C      1  0.4279150000000  0.3749760000000  0.4903230000000 1.0
C      1  0.3962790000000  0.4892140000000  0.5622450000000 1.0
C      1  0.4710020000000  0.6097890000000  0.4659930000000 1.0
C      1  0.3972550000000  0.4807760000000  0.6144190000000 1.0
C      1  0.5767290000000  0.4390170000000  0.4844470000000 1.0
C      1  0.4977550000000  0.4654550000000  0.3791180000000 1.0
C      1  0.5398620000000  0.5040540000000  0.5078620000000 1.0
C      1  0.4633230000000  0.4531650000000  0.4275790000000 1.0
C      1  0.4134420000000  0.4739400000000  0.4504010000000 1.0
C      1  0.4746530000000  0.5334800000000  0.4056990000000 1.0
C      1  0.5166330000000  0.4059330000000  0.4515300000000 1.0
C      1  0.4817810000000  0.4398050000000  0.4733400000000 1.0
C      1  0.5726520000000  0.4849310000000  0.5783500000000 1.0
C      1  0.5914270000000  0.5085810000000  0.4364200000000 1.0
C      1  0.4864760000000  0.6012490000000  0.4452850000000 1.0
C      1  0.4165990000000  0.4892130000000  0.4282110000000 1.0
C      1  0.4166440000000  0.4884350000000  0.6328840000000 1.0
C      1  0.4924290000000  0.5620020000000  0.5645200000000 1.0
C      1  0.3829050000000  0.5332300000000  0.5070480000000 1.0
C      1  0.4691550000000  0.4847590000000  0.5562860000000 1.0
C      1  0.5972570000000  0.5310330000000  0.4525840000000 1.0
C      1  0.5360050000000  0.5652260000000  0.5155290000000 1.0
C      1  0.4582980000000  0.4749870000000  0.4093770000000 1.0
C      1  0.5012740000000  0.5917770000000  0.4975550000000 1.0
C      1  0.5134460000000  0.5297220000000  0.4846740000000 1.0
C      1  0.5083850000000  0.4481960000000  0.4804870000000 1.0
C      1  0.6019210000000  0.5072510000000  0.5452790000000 1.0
C      1  0.5140140000000  0.5834640000000  0.5224360000000 1.0
C      1  0.5267410000000  0.5544010000000  0.4896330000000 1.0
C      1  0.5011660000000  0.5801320000000  0.5469950000000 1.0
C      1  0.6079500000000  0.4791550000000  0.5474210000000 1.0
C      1  0.5418420000000  0.4146290000000  0.4633780000000 1.0
C      1  0.5857650000000  0.5114420000000  0.5704460000000 1.0
C      1  0.5078860000000  0.4740400000000  0.4679430000000 1.0
C      1  0.4065300000000  0.5354860000000  0.5629580000000 1.0
C      1  0.4504540000000  0.5249200000000  0.4184360000000 1.0
C      1  0.5021340000000  0.4224020000000  0.4329650000000 1.0
C      1  0.4719350000000  0.5409320000000  0.5171170000000 1.0
C      1  0.4731790000000  0.4935410000000  0.5289090000000 1.0
C      1  0.5177640000000  0.4693890000000  0.5785060000000 1.0
C      1  0.4339690000000  0.5720120000000  0.5162860000000 1.0
C      1  0.4823940000000  0.4879500000000  0.4589310000000 1.0
C      1  0.5927120000000  0.5278520000000  0.5267050000000 1.0
C      1  0.5725900000000  0.4534530000000  0.4376900000000 1.0
C      1  0.4071880000000  0.4823320000000  0.5872110000000 1.0
C      1  0.5145750000000  0.5768070000000  0.4746540000000 1.0
C      1  0.5355900000000  0.5067100000000  0.5572230000000 1.0
C      1  0.5763980000000  0.5478690000000  0.5413770000000 1.0
C      1  0.5128230000000  0.5050940000000  0.4995740000000 1.0
C      1  0.5649600000000  0.4225430000000  0.5062780000000 1.0
C      1  0.5739020000000  0.4653300000000  0.4950880000000 1.0
C      1  0.5894780000000  0.4643710000000  0.5649500000000 1.0
C      1  0.5180170000000  0.4526940000000  0.3937480000000 1.0
C      1  0.5218220000000  0.5368200000000  0.4177900000000 1.0
C      1  0.4491680000000  0.5501680000000  0.5910460000000 1.0
C      1  0.4959890000000  0.4849080000000  0.5673970000000 1.0
C      1  0.5962390000000  0.5713240000000  0.4834200000000 1.0
C      1  0.5573100000000  0.4743690000000  0.4238900000000 1.0
C      1  0.5184630000000  0.4315190000000  0.5012670000000 1.0
C      1  0.6088670000000  0.4860390000000  0.4355850000000 1.0
C      1  0.5031060000000  0.5278610000000  0.4595340000000 1.0
C      1  0.4351720000000  0.4891740000000  0.5912450000000 1.0
C      1  0.4413920000000  0.4955430000000  0.6199620000000 1.0
C      1  0.4639300000000  0.5138130000000  0.6191010000000 1.0
C      1  0.5630690000000  0.5104260000000  0.4921770000000 1.0
C      1  0.5233200000000  0.5392660000000  0.5910850000000 1.0
C      1  0.4044940000000  0.4131520000000  0.4963980000000 1.0
C      1  0.5632240000000  0.5665830000000  0.5239220000000 1.0
C      1  0.4031100000000  0.3855300000000  0.4966950000000 1.0
C      1  0.4540340000000  0.5007980000000  0.5740350000000 1.0
C      1  0.4925770000000  0.5088180000000  0.4420770000000 1.0
C      1  0.4396120000000  0.4487850000000  0.4883070000000 1.0
C      1  0.4292660000000  0.5217470000000  0.5082950000000 1.0
C      1  0.4733300000000  0.5476340000000  0.4884490000000 1.0
C      1  0.5467500000000  0.5240400000000  0.4206290000000 1.0
C      1  0.4314360000000  0.4218940000000  0.4895900000000 1.0
C      1  0.4555040000000  0.5721330000000  0.6060840000000 1.0
C      1  0.4985790000000  0.3894210000000  0.4667050000000 1.0
C      1  0.4534770000000  0.4904860000000  0.4707620000000 1.0
C      1  0.5430640000000  0.4842160000000  0.5780500000000 1.0
C      1  0.4458410000000  0.5394640000000  0.4428040000000 1.0
C      1  0.4851310000000  0.5204900000000  0.5328850000000 1.0
C      1  0.4672700000000  0.4538330000000  0.4939740000000 1.0
C      1  0.5114950000000  0.4291150000000  0.4075780000000 1.0
C      1  0.5401100000000  0.4668080000000  0.4031670000000 1.0
C      1  0.4792700000000  0.4364950000000  0.4444730000000 1.0
C      1  0.6005180000000  0.4601230000000  0.4366200000000 1.0
C      1  0.4841880000000  0.5610460000000  0.4068290000000 1.0
C      1  0.4534660000000  0.5378730000000  0.4698630000000 1.0
C      1  0.4744640000000  0.6009070000000  0.4928180000000 1.0
C      1  0.4029810000000  0.5168860000000  0.5189030000000 1.0
C      1  0.5065730000000  0.5806940000000  0.4468680000000 1.0
C      1  0.5850640000000  0.5270360000000  0.4992440000000 1.0
C      1  0.3851760000000  0.5601820000000  0.5053790000000 1.0
C      1  0.4978600000000  0.5188300000000  0.4159980000000 1.0
C      1  0.5402670000000  0.4151690000000  0.4933190000000 1.0
C      1  0.4409230000000  0.4973390000000  0.4158940000000 1.0
C      1  0.4246410000000  0.5481870000000  0.5776650000000 1.0
C      1  0.4734170000000  0.4746140000000  0.3856550000000 1.0
C      1  0.5807230000000  0.5797500000000  0.5056040000000 1.0
C      1  0.5653780000000  0.4385180000000  0.5312410000000 1.0
C      1  0.4849370000000  0.4816980000000  0.5067870000000 1.0
C      1  0.4002970000000  0.5127940000000  0.5471740000000 1.0
C      1  0.5079720000000  0.4275860000000  0.5268060000000 1.0
C      1  0.4683830000000  0.5259540000000  0.5904390000000 1.0
C      1  0.5607870000000  0.4662500000000  0.5220460000000 1.0
C      1  0.4427230000000  0.5144640000000  0.4831840000000 1.0
C      1  0.4063900000000  0.5756930000000  0.5113970000000 1.0
C      1  0.5158580000000  0.4417120000000  0.5749240000000 1.0
C      1  0.5089830000000  0.5637120000000  0.4231850000000 1.0
C      1  0.4527390000000  0.5920270000000  0.5086680000000 1.0
C      1  0.5951590000000  0.5433290000000  0.4779850000000 1.0
C      1  0.5096890000000  0.4270960000000  0.5533710000000 1.0
C      1  0.5793090000000  0.4394090000000  0.5557890000000 1.0
END
