TITL C-627112-676-652 109467.415506046 125000 -883.116797320641 0 0 145 (C1) n - 1
REM
REM in /home/nfs/bkarasulu/CARBON/AIRSS/Generating-Clusters/LCBOP/Only-C1/SD-CG/FIRE-CG
REM
REM
REM
REM
REM
REM ./C.cell (11c1c37f851c82e70ff6c80c92926a4b)
REM AIRSS Version 0.9.1 bugfix July 2018 build 013d7b7c2542+ Fri, 06 Jul 2018 19:26:36 +0100
REM compiler GCC version 9.2.1 20190827 (Red Hat 9.2.1-1)
REM options -cpp -mtune=generic -march=x86-64 -g -O0 -fpre-include=/usr/include/finclude/math-vector-fortran.h
REM seed -941842535 510977783 -16650557 684275302 307274798 1016857693 -694753754 -1904007971 558144922 970035061 721578070 -1024281115 -1127492095 1455195341 -1515998224 703487025 1464110697 1987831234 -2132695827 729220438 1347173006 611895212 1879358417 1480911494 -413045885 258633679 -1220656143 731359702 -1559615007 -376612008 747026779 535122502 -369764843
REM
CELL 1.54180   50.00000   50.00000   50.00000   90.00000   90.00000   90.00000
LATT -1
SFAC C  
C      1  0.5189230000000  0.5286280000000  0.5031840000000 1.0
C      1  0.5263140000000  0.4180790000000  0.5457140000000 1.0
C      1  0.5455460000000  0.4672780000000  0.5773060000000 1.0
C      1  0.4790440000000  0.5813010000000  0.5373870000000 1.0
C      1  0.4338840000000  0.5277250000000  0.5912490000000 1.0
C      1  0.4628600000000  0.4046260000000  0.5442490000000 1.0
C      1  0.4017580000000  0.5526890000000  0.4890270000000 1.0
C      1  0.4460610000000  0.4600070000000  0.5857550000000 1.0
C      1  0.4441820000000  0.5415690000000  0.5678660000000 1.0
C      1  0.5268720000000  0.5173970000000  0.3934950000000 1.0
C      1  0.4599890000000  0.4517980000000  0.5136620000000 1.0
C      1  0.5876910000000  0.5435310000000  0.5580970000000 1.0
C      1  0.3958280000000  0.4989710000000  0.4956510000000 1.0
C      1  0.4609360000000  0.4655100000000  0.4296690000000 1.0
C      1  0.4728640000000  0.5589120000000  0.4201250000000 1.0
C      1  0.4080320000000  0.5168990000000  0.5895710000000 1.0
C      1  0.4223390000000  0.5596210000000  0.4703430000000 1.0
C      1  0.5707790000000  0.4235160000000  0.4858600000000 1.0
C      1  0.5437040000000  0.5643530000000  0.4317200000000 1.0
C      1  0.4152830000000  0.4792360000000  0.4892140000000 1.0
C      1  0.5789900000000  0.4444050000000  0.4682030000000 1.0
C      1  0.4836660000000  0.4740090000000  0.4137320000000 1.0
C      1  0.4833750000000  0.4946960000000  0.3934620000000 1.0
C      1  0.4931090000000  0.5667860000000  0.4859370000000 1.0
C      1  0.5121160000000  0.4382200000000  0.5607580000000 1.0
C      1  0.3907890000000  0.5051620000000  0.5727390000000 1.0
C      1  0.4144180000000  0.4534090000000  0.4471370000000 1.0
C      1  0.5529260000000  0.4909970000000  0.5895880000000 1.0
C      1  0.5023410000000  0.4538390000000  0.4979450000000 1.0
C      1  0.4723370000000  0.5762050000000  0.4660250000000 1.0
C      1  0.5944950000000  0.5658420000000  0.5423610000000 1.0
C      1  0.6010110000000  0.4862600000000  0.4910400000000 1.0
C      1  0.4543760000000  0.5170840000000  0.6084480000000 1.0
C      1  0.4379260000000  0.4503660000000  0.5325790000000 1.0
C      1  0.5758890000000  0.4241910000000  0.5892440000000 1.0
C      1  0.4221950000000  0.4993730000000  0.4266860000000 1.0
C      1  0.4651870000000  0.5178410000000  0.3929110000000 1.0
C      1  0.5458380000000  0.5311100000000  0.5114480000000 1.0
C      1  0.4559320000000  0.4311980000000  0.4909610000000 1.0
C      1  0.5292390000000  0.4684940000000  0.5001240000000 1.0
C      1  0.4743030000000  0.4579470000000  0.5916310000000 1.0
C      1  0.5586860000000  0.5228800000000  0.4625920000000 1.0
C      1  0.5205630000000  0.5738500000000  0.4138450000000 1.0
C      1  0.4449310000000  0.5304690000000  0.5150620000000 1.0
C      1  0.5139530000000  0.5257090000000  0.5462390000000 1.0
C      1  0.5352480000000  0.4712950000000  0.5281830000000 1.0
C      1  0.4856870000000  0.4775080000000  0.6104330000000 1.0
C      1  0.5604090000000  0.5159720000000  0.5857090000000 1.0
C      1  0.4806190000000  0.5509870000000  0.3937080000000 1.0
C      1  0.4354530000000  0.4043850000000  0.5350440000000 1.0
C      1  0.4269610000000  0.5388320000000  0.4513210000000 1.0
C      1  0.4520810000000  0.5853040000000  0.5470870000000 1.0
C      1  0.5032690000000  0.5258470000000  0.6087210000000 1.0
C      1  0.4991510000000  0.4848990000000  0.5617910000000 1.0
C      1  0.4313520000000  0.4716140000000  0.4315960000000 1.0
C      1  0.5387210000000  0.4121680000000  0.5207400000000 1.0
C      1  0.4469830000000  0.5689860000000  0.4800580000000 1.0
C      1  0.4080460000000  0.5167840000000  0.4488230000000 1.0
C      1  0.5277850000000  0.4023160000000  0.4941540000000 1.0
C      1  0.5233410000000  0.6034840000000  0.4509870000000 1.0
C      1  0.5016770000000  0.4674550000000  0.6306230000000 1.0
C      1  0.5412010000000  0.5895320000000  0.5402470000000 1.0
C      1  0.4944710000000  0.5426390000000  0.5582210000000 1.0
C      1  0.5646480000000  0.4842100000000  0.4303870000000 1.0
C      1  0.5155360000000  0.4693970000000  0.4538600000000 1.0
C      1  0.4277420000000  0.4598560000000  0.6060950000000 1.0
C      1  0.5728630000000  0.4394130000000  0.4404140000000 1.0
C      1  0.5312760000000  0.4511080000000  0.4137110000000 1.0
C      1  0.4876820000000  0.4361160000000  0.5767440000000 1.0
C      1  0.5824880000000  0.5707450000000  0.5170960000000 1.0
C      1  0.5001970000000  0.5219930000000  0.4358770000000 1.0
C      1  0.5590530000000  0.5865710000000  0.5200850000000 1.0
C      1  0.4708890000000  0.4137540000000  0.5699480000000 1.0
C      1  0.3936970000000  0.5199660000000  0.4758120000000 1.0
C      1  0.4985850000000  0.5705130000000  0.5549730000000 1.0
C      1  0.5192060000000  0.6255960000000  0.4669580000000 1.0
C      1  0.4767890000000  0.5007560000000  0.5627750000000 1.0
C      1  0.5432990000000  0.3921880000000  0.4517460000000 1.0
C      1  0.6273150000000  0.4794810000000  0.5437310000000 1.0
C      1  0.5647670000000  0.4239680000000  0.5141080000000 1.0
C      1  0.4099480000000  0.5543900000000  0.5242820000000 1.0
C      1  0.5826580000000  0.4731350000000  0.4744320000000 1.0
C      1  0.4543230000000  0.5557250000000  0.5053390000000 1.0
C      1  0.5577330000000  0.4569040000000  0.4239160000000 1.0
C      1  0.6041750000000  0.5208570000000  0.5542400000000 1.0
C      1  0.5049980000000  0.5915900000000  0.4319130000000 1.0
C      1  0.4795660000000  0.5802620000000  0.4382980000000 1.0
C      1  0.5108730000000  0.4676360000000  0.4254520000000 1.0
C      1  0.5256670000000  0.5213230000000  0.4223590000000 1.0
C      1  0.4832920000000  0.4086430000000  0.5249370000000 1.0
C      1  0.5869760000000  0.5496100000000  0.4974990000000 1.0
C      1  0.4560280000000  0.5065780000000  0.5086300000000 1.0
C      1  0.6112580000000  0.5343370000000  0.4971060000000 1.0
C      1  0.4815470000000  0.4972700000000  0.5155010000000 1.0
C      1  0.5600860000000  0.4440020000000  0.5831480000000 1.0
C      1  0.4573540000000  0.4832280000000  0.4699320000000 1.0
C      1  0.4180720000000  0.5281890000000  0.5252550000000 1.0
C      1  0.4821240000000  0.4694970000000  0.5129700000000 1.0
C      1  0.5606660000000  0.4912740000000  0.4607330000000 1.0
C      1  0.4415600000000  0.4904410000000  0.4907440000000 1.0
C      1  0.5091340000000  0.4066470000000  0.4221040000000 1.0
C      1  0.4226870000000  0.4268380000000  0.5216060000000 1.0
C      1  0.4377080000000  0.4596970000000  0.5587940000000 1.0
C      1  0.4261790000000  0.4307250000000  0.4916470000000 1.0
C      1  0.6345450000000  0.5446480000000  0.4872020000000 1.0
C      1  0.5211710000000  0.5446450000000  0.5998400000000 1.0
C      1  0.5086700000000  0.5604790000000  0.3907060000000 1.0
C      1  0.5356290000000  0.4782460000000  0.4726430000000 1.0
C      1  0.5380830000000  0.5578000000000  0.5794660000000 1.0
C      1  0.3864470000000  0.4998690000000  0.5467580000000 1.0
C      1  0.5140970000000  0.6440340000000  0.4846520000000 1.0
C      1  0.4793620000000  0.5691930000000  0.5117540000000 1.0
C      1  0.5589520000000  0.5384800000000  0.5659730000000 1.0
C      1  0.4700530000000  0.4625870000000  0.4569610000000 1.0
C      1  0.5092260000000  0.4983950000000  0.3824420000000 1.0
C      1  0.5067770000000  0.5420070000000  0.4823720000000 1.0
C      1  0.4328140000000  0.5645300000000  0.5512490000000 1.0
C      1  0.5258800000000  0.5772540000000  0.5607610000000 1.0
C      1  0.5029490000000  0.4022110000000  0.4745510000000 1.0
C      1  0.4981250000000  0.4274090000000  0.5121590000000 1.0
C      1  0.4812420000000  0.5067220000000  0.6103670000000 1.0
C      1  0.6099070000000  0.5074590000000  0.5074330000000 1.0
C      1  0.6353480000000  0.4558970000000  0.5513870000000 1.0
C      1  0.4949450000000  0.4564170000000  0.4682900000000 1.0
C      1  0.5461200000000  0.5361500000000  0.4380230000000 1.0
C      1  0.5031910000000  0.5142710000000  0.5216530000000 1.0
C      1  0.5429520000000  0.5304440000000  0.5410310000000 1.0
C      1  0.5793580000000  0.4997470000000  0.4134580000000 1.0
C      1  0.4383930000000  0.5127640000000  0.4048070000000 1.0
C      1  0.5035180000000  0.5221550000000  0.4632060000000 1.0
C      1  0.4145430000000  0.4530790000000  0.4763670000000 1.0
C      1  0.5522860000000  0.4030420000000  0.4762540000000 1.0
C      1  0.3977630000000  0.4361460000000  0.4336960000000 1.0
C      1  0.4529940000000  0.5292730000000  0.4493890000000 1.0
C      1  0.4744000000000  0.5338880000000  0.4332460000000 1.0
C      1  0.5265280000000  0.5418370000000  0.3791970000000 1.0
C      1  0.5218210000000  0.4253250000000  0.4071910000000 1.0
C      1  0.3984310000000  0.5079330000000  0.5227860000000 1.0
C      1  0.5638410000000  0.5349390000000  0.4894570000000 1.0
C      1  0.6143390000000  0.5027200000000  0.5353230000000 1.0
C      1  0.4755820000000  0.4129170000000  0.4785540000000 1.0
C      1  0.5150170000000  0.3966550000000  0.4476690000000 1.0
C      1  0.5465850000000  0.5863160000000  0.4504990000000 1.0
C      1  0.5234540000000  0.4666930000000  0.5566130000000 1.0
C      1  0.4700830000000  0.5290020000000  0.5621660000000 1.0
END
