TITL C-627106-156-632 0.0213655886999101 125000 -745.14364305667 0 0 119 (C1) n - 1
REM
REM in /home/nfs/bkarasulu/CARBON/AIRSS/Generating-Clusters/LCBOP/Only-C1/SD-CG/FIRE-CG
REM
REM
REM
REM
REM
REM ./C.cell (11c1c37f851c82e70ff6c80c92926a4b)
REM AIRSS Version 0.9.1 bugfix July 2018 build 013d7b7c2542+ Fri, 06 Jul 2018 19:26:36 +0100
REM compiler GCC version 9.2.1 20190827 (Red Hat 9.2.1-1)
REM options -cpp -mtune=generic -march=x86-64 -g -O0 -fpre-include=/usr/include/finclude/math-vector-fortran.h
REM seed 1903076558 -481572135 -1434646723 -1958834806 -1366080058 -565457383 131699501 -1330707349 -1633359861 -448672687 1127692041 -1639255189 68195059 943693630 -1978901221 -1983898213 -327819806 1715337074 -2067765344 -266000695 -803759487 -1004689434 1648748051 -167729613 1267958133 1133709161 -1454858822 -1648896440 -1589271237 1553992775 -1565799377 -22468378 41279441
REM
CELL 1.54180   50.00000   50.00000   50.00000   90.00000   90.00000   90.00000
LATT -1
SFAC C  
C      1  0.5859410000000  0.4826400000000  0.5798810000000 1.0
C      1  0.4527970000000  0.4883540000000  0.4575470000000 1.0
C      1  0.5073800000000  0.6278810000000  0.6114520000000 1.0
C      1  0.5174180000000  0.4887300000000  0.4212580000000 1.0
C      1  0.4708630000000  0.5034070000000  0.4091120000000 1.0
C      1  0.4546680000000  0.4694540000000  0.5875450000000 1.0
C      1  0.5539670000000  0.5753610000000  0.3963780000000 1.0
C      1  0.4794440000000  0.4013470000000  0.5442100000000 1.0
C      1  0.4694240000000  0.4938800000000  0.5781840000000 1.0
C      1  0.5983880000000  0.5049570000000  0.4979800000000 1.0
C      1  0.3798550000000  0.4825310000000  0.5456770000000 1.0
C      1  0.5560130000000  0.4369720000000  0.5438560000000 1.0
C      1  0.4717120000000  0.4465870000000  0.5896650000000 1.0
C      1  0.4588270000000  0.5192520000000  0.5226430000000 1.0
C      1  0.5731480000000  0.6041730000000  0.3619530000000 1.0
C      1  0.5447060000000  0.5026340000000  0.4820880000000 1.0
C      1  0.5737890000000  0.5334480000000  0.5764650000000 1.0
C      1  0.3829740000000  0.4569380000000  0.5375190000000 1.0
C      1  0.4350340000000  0.5407110000000  0.4083190000000 1.0
C      1  0.4759030000000  0.5432680000000  0.4387420000000 1.0
C      1  0.4376780000000  0.4653130000000  0.4541150000000 1.0
C      1  0.4408000000000  0.4204760000000  0.5638320000000 1.0
C      1  0.5286170000000  0.5466830000000  0.4603360000000 1.0
C      1  0.4554340000000  0.5564110000000  0.4882620000000 1.0
C      1  0.5414350000000  0.5597760000000  0.4138070000000 1.0
C      1  0.5146190000000  0.3997340000000  0.4964150000000 1.0
C      1  0.6000600000000  0.5973830000000  0.4318920000000 1.0
C      1  0.4526030000000  0.4088500000000  0.5405870000000 1.0
C      1  0.5596730000000  0.5718110000000  0.5559130000000 1.0
C      1  0.5114910000000  0.5604590000000  0.5024250000000 1.0
C      1  0.4229520000000  0.4426210000000  0.5600500000000 1.0
C      1  0.4922350000000  0.5903600000000  0.5761330000000 1.0
C      1  0.5749230000000  0.4568190000000  0.5356730000000 1.0
C      1  0.4658130000000  0.5874730000000  0.5645230000000 1.0
C      1  0.5896520000000  0.4720680000000  0.5538910000000 1.0
C      1  0.5358200000000  0.5622460000000  0.5700030000000 1.0
C      1  0.5736400000000  0.5428060000000  0.4813110000000 1.0
C      1  0.4637710000000  0.4773650000000  0.4014990000000 1.0
C      1  0.4778060000000  0.5548020000000  0.4663620000000 1.0
C      1  0.4844720000000  0.5222570000000  0.5118700000000 1.0
C      1  0.5732100000000  0.6234330000000  0.3130440000000 1.0
C      1  0.5873830000000  0.5103260000000  0.5842830000000 1.0
C      1  0.5500810000000  0.5173090000000  0.5316090000000 1.0
C      1  0.4936620000000  0.5548570000000  0.5460080000000 1.0
C      1  0.5062570000000  0.5574500000000  0.4751170000000 1.0
C      1  0.3971710000000  0.4999500000000  0.5569640000000 1.0
C      1  0.5423280000000  0.4508530000000  0.5001490000000 1.0
C      1  0.5717920000000  0.4653850000000  0.5972210000000 1.0
C      1  0.5251010000000  0.5472190000000  0.4323750000000 1.0
C      1  0.5073420000000  0.4121650000000  0.4716770000000 1.0
C      1  0.4431760000000  0.4151670000000  0.5141090000000 1.0
C      1  0.5787340000000  0.5496800000000  0.5517440000000 1.0
C      1  0.4336780000000  0.5363000000000  0.4869130000000 1.0
C      1  0.4345620000000  0.4187360000000  0.4510180000000 1.0
C      1  0.4959970000000  0.4829460000000  0.5712740000000 1.0
C      1  0.4122820000000  0.4458720000000  0.4885880000000 1.0
C      1  0.5132120000000  0.4691220000000  0.4421340000000 1.0
C      1  0.4061360000000  0.4406650000000  0.5368720000000 1.0
C      1  0.5003080000000  0.4681540000000  0.5148330000000 1.0
C      1  0.4074940000000  0.4737700000000  0.4944160000000 1.0
C      1  0.5849820000000  0.5653780000000  0.4697330000000 1.0
C      1  0.4986390000000  0.5087770000000  0.4144700000000 1.0
C      1  0.4784700000000  0.4890730000000  0.4699770000000 1.0
C      1  0.5372400000000  0.5012090000000  0.5110270000000 1.0
C      1  0.4997230000000  0.6097950000000  0.5943230000000 1.0
C      1  0.4497190000000  0.5394000000000  0.5612720000000 1.0
C      1  0.5736960000000  0.5334010000000  0.5285830000000 1.0
C      1  0.5413430000000  0.4294740000000  0.5204220000000 1.0
C      1  0.4293350000000  0.4675000000000  0.5736740000000 1.0
C      1  0.5632810000000  0.4918730000000  0.4365460000000 1.0
C      1  0.4985400000000  0.4695590000000  0.4666550000000 1.0
C      1  0.5207130000000  0.4108910000000  0.5214900000000 1.0
C      1  0.5284510000000  0.4281540000000  0.4584410000000 1.0
C      1  0.4866970000000  0.5098700000000  0.4868950000000 1.0
C      1  0.5529920000000  0.4808810000000  0.4615600000000 1.0
C      1  0.5132320000000  0.4331680000000  0.5651770000000 1.0
C      1  0.4231060000000  0.4955190000000  0.5667890000000 1.0
C      1  0.4578590000000  0.4223630000000  0.5865220000000 1.0
C      1  0.5439480000000  0.5343850000000  0.5766060000000 1.0
C      1  0.5889430000000  0.4798400000000  0.4958550000000 1.0
C      1  0.5538830000000  0.4460580000000  0.5916650000000 1.0
C      1  0.5162200000000  0.4874640000000  0.5269230000000 1.0
C      1  0.5352960000000  0.5151220000000  0.5573620000000 1.0
C      1  0.5046460000000  0.4134090000000  0.5451110000000 1.0
C      1  0.5488370000000  0.5307240000000  0.4729830000000 1.0
C      1  0.4965950000000  0.4534820000000  0.5766730000000 1.0
C      1  0.4277140000000  0.4887750000000  0.5070570000000 1.0
C      1  0.5007540000000  0.5433720000000  0.5217110000000 1.0
C      1  0.4476170000000  0.5120710000000  0.5692510000000 1.0
C      1  0.4410370000000  0.5120010000000  0.4475800000000 1.0
C      1  0.5149810000000  0.4953690000000  0.5546580000000 1.0
C      1  0.4546230000000  0.5248760000000  0.4241110000000 1.0
C      1  0.5731800000000  0.6138810000000  0.3373000000000 1.0
C      1  0.5694340000000  0.4632970000000  0.5075040000000 1.0
C      1  0.4632120000000  0.5629120000000  0.5467150000000 1.0
C      1  0.5091520000000  0.5696030000000  0.5654490000000 1.0
C      1  0.4118670000000  0.5498470000000  0.4195630000000 1.0
C      1  0.5138030000000  0.4597850000000  0.4908390000000 1.0
C      1  0.4233990000000  0.5293580000000  0.4618020000000 1.0
C      1  0.4058230000000  0.5444550000000  0.4455620000000 1.0
C      1  0.5963630000000  0.5837620000000  0.4543990000000 1.0
C      1  0.5451420000000  0.4940180000000  0.4161410000000 1.0
C      1  0.4247030000000  0.4420800000000  0.4633260000000 1.0
C      1  0.5864090000000  0.5299980000000  0.5034640000000 1.0
C      1  0.4620060000000  0.4119090000000  0.4926760000000 1.0
C      1  0.5376570000000  0.4556840000000  0.4522290000000 1.0
C      1  0.4734760000000  0.4639430000000  0.5202350000000 1.0
C      1  0.5731000000000  0.5939690000000  0.3878380000000 1.0
C      1  0.4570590000000  0.5679560000000  0.5157300000000 1.0
C      1  0.5009420000000  0.5351550000000  0.4251890000000 1.0
C      1  0.5921820000000  0.6017200000000  0.4068410000000 1.0
C      1  0.4784070000000  0.4132800000000  0.4686050000000 1.0
C      1  0.5416250000000  0.4363840000000  0.5683260000000 1.0
C      1  0.4705280000000  0.4294330000000  0.4211440000000 1.0
C      1  0.4672930000000  0.4511170000000  0.4056930000000 1.0
C      1  0.4626300000000  0.4168370000000  0.4450280000000 1.0
C      1  0.4183200000000  0.4304360000000  0.5122190000000 1.0
C      1  0.4483450000000  0.4722730000000  0.5180840000000 1.0
C      1  0.4351770000000  0.5160770000000  0.5072770000000 1.0
END
