TITL C-627110-360-1000 -39.7278113990679 125000 -617.991747315594 0 0 101 (C1) n - 1
REM
REM in /home/nfs/bkarasulu/CARBON/AIRSS/Generating-Clusters/LCBOP/Only-C1/SD-CG/FIRE-CG
REM
REM
REM
REM
REM
REM ./C.cell (11c1c37f851c82e70ff6c80c92926a4b)
REM AIRSS Version 0.9.1 bugfix July 2018 build 013d7b7c2542+ Fri, 06 Jul 2018 19:26:36 +0100
REM compiler GCC version 9.2.1 20190827 (Red Hat 9.2.1-1)
REM options -cpp -mtune=generic -march=x86-64 -g -O0 -fpre-include=/usr/include/finclude/math-vector-fortran.h
REM seed 1053394443 -1429188634 347021405 -1145307800 1121891477 -1371251520 1027684017 -1961809236 -114917774 95682284 -1850020217 1819208488 -81038394 1076787032 -273787112 715056707 -797983020 1385783392 1963525588 -714781630 -1530698222 1131687783 1354422130 1601239709 541484973 -1745988733 477337982 892135458 -1711219897 -1673890848 1301577178 -1279980802 733564559
REM
CELL 1.54180   50.00000   50.00000   50.00000   90.00000   90.00000   90.00000
LATT -1
SFAC C  
C      1  0.4288410000000  0.4566010000000  0.5802460000000 1.0
C      1  0.5436210000000  0.5034620000000  0.6049050000000 1.0
C      1  0.4892370000000  0.4150420000000  0.5217590000000 1.0
C      1  0.4913360000000  0.4250520000000  0.4545490000000 1.0
C      1  0.5571840000000  0.4532500000000  0.5416070000000 1.0
C      1  0.5361500000000  0.4630240000000  0.5587190000000 1.0
C      1  0.5497510000000  0.4274450000000  0.5299770000000 1.0
C      1  0.4768420000000  0.4853790000000  0.4700540000000 1.0
C      1  0.5032320000000  0.4104070000000  0.4766200000000 1.0
C      1  0.5459920000000  0.4737330000000  0.3644490000000 1.0
C      1  0.4937530000000  0.4548130000000  0.4166490000000 1.0
C      1  0.4100550000000  0.4909900000000  0.5473640000000 1.0
C      1  0.5409860000000  0.5557200000000  0.4209150000000 1.0
C      1  0.4061230000000  0.4675360000000  0.5295860000000 1.0
C      1  0.4689390000000  0.5254910000000  0.5728750000000 1.0
C      1  0.5525880000000  0.5260150000000  0.4189950000000 1.0
C      1  0.4321270000000  0.5107280000000  0.5359890000000 1.0
C      1  0.4624480000000  0.4281130000000  0.4602830000000 1.0
C      1  0.5085010000000  0.5434970000000  0.4838510000000 1.0
C      1  0.4496130000000  0.5607530000000  0.5215780000000 1.0
C      1  0.5502480000000  0.5399790000000  0.5397920000000 1.0
C      1  0.5235360000000  0.5912540000000  0.4652160000000 1.0
C      1  0.4446470000000  0.4504190000000  0.4554070000000 1.0
C      1  0.4466440000000  0.4617420000000  0.4297680000000 1.0
C      1  0.5594010000000  0.5186660000000  0.5887640000000 1.0
C      1  0.5063540000000  0.4452640000000  0.4402250000000 1.0
C      1  0.4857170000000  0.5859720000000  0.5417940000000 1.0
C      1  0.4971460000000  0.5156900000000  0.4348250000000 1.0
C      1  0.4966370000000  0.5271430000000  0.5722310000000 1.0
C      1  0.4340560000000  0.4588740000000  0.4813970000000 1.0
C      1  0.4995810000000  0.4693210000000  0.4795150000000 1.0
C      1  0.5257030000000  0.5078150000000  0.5086450000000 1.0
C      1  0.4355520000000  0.5779630000000  0.4787640000000 1.0
C      1  0.5652610000000  0.5751110000000  0.4732560000000 1.0
C      1  0.5006640000000  0.5887140000000  0.5176000000000 1.0
C      1  0.5340920000000  0.4901380000000  0.4518110000000 1.0
C      1  0.4776160000000  0.4540520000000  0.5447990000000 1.0
C      1  0.4867530000000  0.3975330000000  0.5425630000000 1.0
C      1  0.4874340000000  0.5620170000000  0.4091830000000 1.0
C      1  0.4259550000000  0.5321370000000  0.4891900000000 1.0
C      1  0.5043850000000  0.4642410000000  0.5074860000000 1.0
C      1  0.5409020000000  0.4924700000000  0.3818310000000 1.0
C      1  0.5509660000000  0.4242160000000  0.5014960000000 1.0
C      1  0.5535250000000  0.5338310000000  0.4630950000000 1.0
C      1  0.4988980000000  0.4751190000000  0.6084320000000 1.0
C      1  0.4141720000000  0.4808820000000  0.5743830000000 1.0
C      1  0.5609620000000  0.5310760000000  0.5648500000000 1.0
C      1  0.5118260000000  0.5074900000000  0.4579840000000 1.0
C      1  0.5494550000000  0.5212990000000  0.5185100000000 1.0
C      1  0.5458430000000  0.5773660000000  0.4404600000000 1.0
C      1  0.5186420000000  0.4401630000000  0.5662280000000 1.0
C      1  0.4297060000000  0.4463090000000  0.5301670000000 1.0
C      1  0.5380640000000  0.5658610000000  0.5383170000000 1.0
C      1  0.5203280000000  0.4643420000000  0.4575600000000 1.0
C      1  0.5297330000000  0.5484250000000  0.4677200000000 1.0
C      1  0.4604880000000  0.5089600000000  0.4611460000000 1.0
C      1  0.5751200000000  0.5168730000000  0.5082650000000 1.0
C      1  0.5307640000000  0.4180850000000  0.5505390000000 1.0
C      1  0.5136610000000  0.5514780000000  0.4080140000000 1.0
C      1  0.4772310000000  0.5782770000000  0.4497890000000 1.0
C      1  0.5110430000000  0.5027370000000  0.5715400000000 1.0
C      1  0.4368800000000  0.5091120000000  0.4769900000000 1.0
C      1  0.5906370000000  0.5272420000000  0.4870030000000 1.0
C      1  0.4948740000000  0.5892440000000  0.4686230000000 1.0
C      1  0.5292190000000  0.5815260000000  0.5153300000000 1.0
C      1  0.5761990000000  0.5483120000000  0.4734010000000 1.0
C      1  0.4471170000000  0.4894410000000  0.5195600000000 1.0
C      1  0.4541420000000  0.4657990000000  0.5346610000000 1.0
C      1  0.5160240000000  0.4859300000000  0.5229570000000 1.0
C      1  0.5092140000000  0.5153380000000  0.4866460000000 1.0
C      1  0.5180170000000  0.4934160000000  0.5981610000000 1.0
C      1  0.5716420000000  0.4381800000000  0.4877960000000 1.0
C      1  0.5245640000000  0.5703310000000  0.5631280000000 1.0
C      1  0.4562390000000  0.5775640000000  0.4981450000000 1.0
C      1  0.5423830000000  0.5861910000000  0.4891920000000 1.0
C      1  0.4267650000000  0.4364150000000  0.5590440000000 1.0
C      1  0.5091440000000  0.5521000000000  0.5756540000000 1.0
C      1  0.6014680000000  0.4798030000000  0.4731110000000 1.0
C      1  0.5096790000000  0.5218650000000  0.4097310000000 1.0
C      1  0.4334240000000  0.5362180000000  0.5173000000000 1.0
C      1  0.4561680000000  0.4178590000000  0.4877350000000 1.0
C      1  0.4927170000000  0.4433460000000  0.5232090000000 1.0
C      1  0.4817320000000  0.4070570000000  0.4962050000000 1.0
C      1  0.4631780000000  0.5708130000000  0.5443440000000 1.0
C      1  0.5298980000000  0.4123550000000  0.4862360000000 1.0
C      1  0.5884570000000  0.4570050000000  0.4787510000000 1.0
C      1  0.4362800000000  0.4852860000000  0.4927240000000 1.0
C      1  0.4463090000000  0.5196130000000  0.5607400000000 1.0
C      1  0.5348870000000  0.5111710000000  0.4010680000000 1.0
C      1  0.4719530000000  0.5280060000000  0.4419240000000 1.0
C      1  0.4679900000000  0.4624010000000  0.4131130000000 1.0
C      1  0.6052320000000  0.5065620000000  0.4742000000000 1.0
C      1  0.4366540000000  0.4362010000000  0.5013670000000 1.0
C      1  0.5211840000000  0.4859700000000  0.5508060000000 1.0
C      1  0.4203700000000  0.5558110000000  0.4747380000000 1.0
C      1  0.4804610000000  0.4586390000000  0.5940660000000 1.0
C      1  0.4908960000000  0.4481230000000  0.5696710000000 1.0
C      1  0.4522250000000  0.4574720000000  0.5963890000000 1.0
C      1  0.4721610000000  0.5561140000000  0.4331450000000 1.0
C      1  0.5541520000000  0.5116300000000  0.4448200000000 1.0
C      1  0.4834380000000  0.5881810000000  0.4947920000000 1.0
END
