TITL C-627109-622-1753 -2.68957243596892 125000 -845.152372188371 0 0 139 (C1) n - 1
REM
REM in /home/nfs/bkarasulu/CARBON/AIRSS/Generating-Clusters/LCBOP/Only-C1/SD-CG/FIRE-CG
REM
REM
REM
REM
REM
REM ./C.cell (11c1c37f851c82e70ff6c80c92926a4b)
REM AIRSS Version 0.9.1 bugfix July 2018 build 013d7b7c2542+ Fri, 06 Jul 2018 19:26:36 +0100
REM compiler GCC version 9.2.1 20190827 (Red Hat 9.2.1-1)
REM options -cpp -mtune=generic -march=x86-64 -g -O0 -fpre-include=/usr/include/finclude/math-vector-fortran.h
REM seed -1240120151 -333236004 -1654563838 -2093430793 -110277969 253147824 369788208 222153454 -796650213 1208293431 1468141683 -757473776 -1651838807 1732804668 484699752 -1354852805 -1254780744 1340831067 125864149 -835712069 -2059058238 -1366013003 1965243958 1529598562 -85743414 -8820326 458650656 -1235540711 -854575365 -714574795 -683950606 -1726632950 -1856060794
REM
CELL 1.54180   50.00000   50.00000   50.00000   90.00000   90.00000   90.00000
LATT -1
SFAC C  
C      1  0.5758970000000  0.4743380000000  0.4269520000000 1.0
C      1  0.5205340000000  0.4708480000000  0.6109570000000 1.0
C      1  0.4612860000000  0.5608070000000  0.4498700000000 1.0
C      1  0.4972980000000  0.5866150000000  0.5067170000000 1.0
C      1  0.4601230000000  0.3914360000000  0.5365080000000 1.0
C      1  0.5318820000000  0.4029030000000  0.5399720000000 1.0
C      1  0.4996560000000  0.5739550000000  0.5335880000000 1.0
C      1  0.5355530000000  0.4082210000000  0.5672280000000 1.0
C      1  0.5274950000000  0.5459090000000  0.6099380000000 1.0
C      1  0.5651380000000  0.5261320000000  0.6317010000000 1.0
C      1  0.4468860000000  0.5889690000000  0.4864990000000 1.0
C      1  0.4475440000000  0.5005030000000  0.4587750000000 1.0
C      1  0.5308740000000  0.4735710000000  0.5493350000000 1.0
C      1  0.4337220000000  0.4926000000000  0.3975010000000 1.0
C      1  0.5116500000000  0.4598560000000  0.5363720000000 1.0
C      1  0.4676480000000  0.4540860000000  0.4115950000000 1.0
C      1  0.5247970000000  0.5582940000000  0.5360550000000 1.0
C      1  0.3762440000000  0.5112160000000  0.5426150000000 1.0
C      1  0.5462530000000  0.4415920000000  0.4477760000000 1.0
C      1  0.5763090000000  0.4910860000000  0.5697860000000 1.0
C      1  0.5335440000000  0.5058180000000  0.4819960000000 1.0
C      1  0.6007220000000  0.5027570000000  0.5776290000000 1.0
C      1  0.4336410000000  0.4318590000000  0.4467050000000 1.0
C      1  0.6003430000000  0.6114890000000  0.4987990000000 1.0
C      1  0.4858220000000  0.4879420000000  0.4863520000000 1.0
C      1  0.5662220000000  0.6064570000000  0.4641290000000 1.0
C      1  0.4689920000000  0.5492280000000  0.3753980000000 1.0
C      1  0.6074200000000  0.4834960000000  0.4677970000000 1.0
C      1  0.4355990000000  0.5224950000000  0.5612400000000 1.0
C      1  0.4771040000000  0.5393760000000  0.3981460000000 1.0
C      1  0.4450120000000  0.4672950000000  0.3949610000000 1.0
C      1  0.5057300000000  0.4691130000000  0.4901880000000 1.0
C      1  0.4597730000000  0.5112470000000  0.5664630000000 1.0
C      1  0.4216350000000  0.5334590000000  0.4331230000000 1.0
C      1  0.3992240000000  0.4620410000000  0.5128540000000 1.0
C      1  0.4490600000000  0.4543790000000  0.4825130000000 1.0
C      1  0.4736350000000  0.3963270000000  0.4921760000000 1.0
C      1  0.5533340000000  0.5166170000000  0.5363400000000 1.0
C      1  0.5490160000000  0.4575240000000  0.4712720000000 1.0
C      1  0.4917620000000  0.5069700000000  0.4646400000000 1.0
C      1  0.4717930000000  0.5945110000000  0.4963360000000 1.0
C      1  0.4382380000000  0.5147690000000  0.4160800000000 1.0
C      1  0.4328380000000  0.5552330000000  0.4517660000000 1.0
C      1  0.5085180000000  0.5665440000000  0.6098660000000 1.0
C      1  0.5992520000000  0.4784100000000  0.4426010000000 1.0
C      1  0.6027010000000  0.5307860000000  0.5776360000000 1.0
C      1  0.5187580000000  0.5192730000000  0.5987200000000 1.0
C      1  0.4737040000000  0.5768620000000  0.5742370000000 1.0
C      1  0.5586140000000  0.5127360000000  0.4719750000000 1.0
C      1  0.3961400000000  0.4735370000000  0.4601530000000 1.0
C      1  0.5311830000000  0.4892410000000  0.4103980000000 1.0
C      1  0.4647330000000  0.4883500000000  0.5066370000000 1.0
C      1  0.3944730000000  0.4784120000000  0.4893430000000 1.0
C      1  0.6215620000000  0.5528510000000  0.4606410000000 1.0
C      1  0.3898770000000  0.5057080000000  0.4972200000000 1.0
C      1  0.4402950000000  0.5169870000000  0.4803070000000 1.0
C      1  0.4527070000000  0.5137110000000  0.5054680000000 1.0
C      1  0.5972170000000  0.4760990000000  0.5164410000000 1.0
C      1  0.4265370000000  0.5696260000000  0.4776830000000 1.0
C      1  0.5927160000000  0.5541420000000  0.5858910000000 1.0
C      1  0.5152510000000  0.4152090000000  0.4758510000000 1.0
C      1  0.4277100000000  0.4296120000000  0.5360610000000 1.0
C      1  0.5698270000000  0.5284950000000  0.5148450000000 1.0
C      1  0.4255160000000  0.4544160000000  0.5220460000000 1.0
C      1  0.5013040000000  0.5734520000000  0.4251350000000 1.0
C      1  0.4689260000000  0.5351220000000  0.5140440000000 1.0
C      1  0.5071820000000  0.4499130000000  0.5101470000000 1.0
C      1  0.5642300000000  0.4484940000000  0.4273450000000 1.0
C      1  0.3705320000000  0.4851460000000  0.5469820000000 1.0
C      1  0.4312420000000  0.5427520000000  0.5415760000000 1.0
C      1  0.4864200000000  0.5125890000000  0.5626260000000 1.0
C      1  0.5265620000000  0.5749860000000  0.4650210000000 1.0
C      1  0.5302020000000  0.4774140000000  0.4796870000000 1.0
C      1  0.5130940000000  0.5211130000000  0.5686840000000 1.0
C      1  0.5133550000000  0.5572040000000  0.4461810000000 1.0
C      1  0.5625260000000  0.5177670000000  0.4440110000000 1.0
C      1  0.5782290000000  0.5124090000000  0.4927180000000 1.0
C      1  0.5158550000000  0.5257460000000  0.4950390000000 1.0
C      1  0.5785460000000  0.5411990000000  0.4421920000000 1.0
C      1  0.5116960000000  0.5093000000000  0.4067610000000 1.0
C      1  0.5590460000000  0.5009970000000  0.6238400000000 1.0
C      1  0.5371880000000  0.4947840000000  0.6072310000000 1.0
C      1  0.5826140000000  0.5675390000000  0.4855620000000 1.0
C      1  0.5739440000000  0.4656010000000  0.5298100000000 1.0
C      1  0.4739150000000  0.4776550000000  0.4291230000000 1.0
C      1  0.4412970000000  0.4733290000000  0.4624060000000 1.0
C      1  0.5092300000000  0.3878360000000  0.5305300000000 1.0
C      1  0.5732370000000  0.5629200000000  0.6021320000000 1.0
C      1  0.5208800000000  0.4263400000000  0.5014920000000 1.0
C      1  0.5632350000000  0.4411560000000  0.5174500000000 1.0
C      1  0.4095470000000  0.5431160000000  0.5223000000000 1.0
C      1  0.4409440000000  0.4274810000000  0.4754520000000 1.0
C      1  0.6218930000000  0.4871770000000  0.5850740000000 1.0
C      1  0.3791410000000  0.4636920000000  0.5329810000000 1.0
C      1  0.4483700000000  0.4648850000000  0.5086360000000 1.0
C      1  0.5402500000000  0.5663940000000  0.5122290000000 1.0
C      1  0.5150240000000  0.5844800000000  0.4043860000000 1.0
C      1  0.5197840000000  0.4638980000000  0.4018590000000 1.0
C      1  0.4876150000000  0.5219200000000  0.4201120000000 1.0
C      1  0.4470290000000  0.4079260000000  0.4945350000000 1.0
C      1  0.5308040000000  0.5324470000000  0.5483860000000 1.0
C      1  0.5564830000000  0.4959580000000  0.4248890000000 1.0
C      1  0.5218550000000  0.5782440000000  0.4929080000000 1.0
C      1  0.3962840000000  0.5211910000000  0.4388440000000 1.0
C      1  0.5578150000000  0.4867860000000  0.5462520000000 1.0
C      1  0.4193060000000  0.4587370000000  0.4493220000000 1.0
C      1  0.4110640000000  0.5593420000000  0.4989880000000 1.0
C      1  0.4571490000000  0.3796970000000  0.5608460000000 1.0
C      1  0.4926870000000  0.5086020000000  0.6124250000000 1.0
C      1  0.4772670000000  0.5538370000000  0.4728230000000 1.0
C      1  0.4627570000000  0.5055140000000  0.4319630000000 1.0
C      1  0.5072900000000  0.4153620000000  0.4299150000000 1.0
C      1  0.5271770000000  0.4213480000000  0.4497030000000 1.0
C      1  0.4898080000000  0.5401940000000  0.4951900000000 1.0
C      1  0.5440360000000  0.5947170000000  0.4545020000000 1.0
C      1  0.5547990000000  0.5485770000000  0.6177330000000 1.0
C      1  0.4874820000000  0.5767870000000  0.5970800000000 1.0
C      1  0.4573100000000  0.5523580000000  0.5334800000000 1.0
C      1  0.4880610000000  0.4057670000000  0.4700030000000 1.0
C      1  0.3876510000000  0.4961680000000  0.4447330000000 1.0
C      1  0.4833170000000  0.3882590000000  0.5190250000000 1.0
C      1  0.4806500000000  0.4134360000000  0.4416770000000 1.0
C      1  0.5978370000000  0.4919900000000  0.4930280000000 1.0
C      1  0.5660000000000  0.5559230000000  0.5064400000000 1.0
C      1  0.4178510000000  0.4269890000000  0.5614360000000 1.0
C      1  0.4944590000000  0.4814330000000  0.6173860000000 1.0
C      1  0.5014680000000  0.5294600000000  0.4467930000000 1.0
C      1  0.5424290000000  0.4210700000000  0.5204580000000 1.0
C      1  0.3906870000000  0.5217910000000  0.5207690000000 1.0
C      1  0.4753340000000  0.5692160000000  0.5474610000000 1.0
C      1  0.5274830000000  0.4449190000000  0.6038760000000 1.0
C      1  0.4407540000000  0.4081340000000  0.5229530000000 1.0
C      1  0.4587490000000  0.4299570000000  0.4302240000000 1.0
C      1  0.4953990000000  0.4514830000000  0.3981390000000 1.0
C      1  0.5838580000000  0.5961370000000  0.4835240000000 1.0
C      1  0.5331090000000  0.4236460000000  0.5888470000000 1.0
C      1  0.5941560000000  0.5538410000000  0.4626900000000 1.0
C      1  0.4735930000000  0.5762310000000  0.4298190000000 1.0
C      1  0.5671570000000  0.4463690000000  0.4895210000000 1.0
END
