TITL C-627113-6568-2148 -6.06006658624696e-07 125000 -796.103481026413 0 0 129 (C1) n - 1
REM
REM in /home/nfs/bkarasulu/CARBON/AIRSS/Generating-Clusters/LCBOP/Only-C1/SD-CG/FIRE-CG
REM
REM
REM
REM
REM
REM ./C.cell (11c1c37f851c82e70ff6c80c92926a4b)
REM AIRSS Version 0.9.1 bugfix July 2018 build 013d7b7c2542+ Fri, 06 Jul 2018 19:26:36 +0100
REM compiler GCC version 9.2.1 20190827 (Red Hat 9.2.1-1)
REM options -cpp -mtune=generic -march=x86-64 -g -O0 -fpre-include=/usr/include/finclude/math-vector-fortran.h
REM seed -747380279 1633052144 339306806 -358825280 1432610956 1118953435 -1840212421 -179566350 26998885 -1094030363 -1440405107 -1226445809 -491489687 -871907062 -228218351 2098291458 -2101614880 113847488 -32852085 -1835428910 1226607400 -934230813 204076916 87619019 -297970083 -826747795 -1734804202 1253370090 -1407815604 -880194523 -901567838 -354772242 -507501498
REM
CELL 1.54180   50.00000   50.00000   50.00000   90.00000   90.00000   90.00000
LATT -1
SFAC C  
C      1  0.5088310000000  0.4826400000000  0.5561610000000 1.0
C      1  0.5495970000000  0.4324050000000  0.4397360000000 1.0
C      1  0.5670430000000  0.5655060000000  0.5035980000000 1.0
C      1  0.4695020000000  0.4542960000000  0.4132740000000 1.0
C      1  0.6043470000000  0.5285850000000  0.5120130000000 1.0
C      1  0.5478290000000  0.5275500000000  0.5980240000000 1.0
C      1  0.4620310000000  0.5799370000000  0.4579370000000 1.0
C      1  0.4810440000000  0.4624100000000  0.4941880000000 1.0
C      1  0.4373780000000  0.5899690000000  0.4493750000000 1.0
C      1  0.4805740000000  0.3972980000000  0.5069060000000 1.0
C      1  0.6179610000000  0.5053410000000  0.4987810000000 1.0
C      1  0.4625970000000  0.5697930000000  0.5518240000000 1.0
C      1  0.5721840000000  0.4476220000000  0.4493010000000 1.0
C      1  0.4745810000000  0.4518420000000  0.5423350000000 1.0
C      1  0.4012240000000  0.5108330000000  0.4579660000000 1.0
C      1  0.5786290000000  0.4767490000000  0.5258060000000 1.0
C      1  0.6019080000000  0.4538360000000  0.4909570000000 1.0
C      1  0.4495450000000  0.4231890000000  0.4774420000000 1.0
C      1  0.4883890000000  0.4511280000000  0.5190680000000 1.0
C      1  0.3963430000000  0.4220450000000  0.5396060000000 1.0
C      1  0.4465380000000  0.5083800000000  0.5903710000000 1.0
C      1  0.5390130000000  0.5029730000000  0.5862700000000 1.0
C      1  0.4506740000000  0.4428830000000  0.5788470000000 1.0
C      1  0.5449510000000  0.5002240000000  0.4906410000000 1.0
C      1  0.4526770000000  0.4396880000000  0.4322300000000 1.0
C      1  0.4251690000000  0.4417090000000  0.4711010000000 1.0
C      1  0.4548680000000  0.5428630000000  0.4150340000000 1.0
C      1  0.5055460000000  0.4585870000000  0.4783590000000 1.0
C      1  0.4029750000000  0.5557040000000  0.4378020000000 1.0
C      1  0.4358730000000  0.4806280000000  0.4459450000000 1.0
C      1  0.4966170000000  0.4227480000000  0.4369460000000 1.0
C      1  0.4853820000000  0.5217890000000  0.5159450000000 1.0
C      1  0.5990860000000  0.5150230000000  0.4266440000000 1.0
C      1  0.4138750000000  0.4606040000000  0.5141630000000 1.0
C      1  0.4315970000000  0.4529830000000  0.4451970000000 1.0
C      1  0.4845810000000  0.4694270000000  0.5625930000000 1.0
C      1  0.5226920000000  0.5514450000000  0.4517690000000 1.0
C      1  0.5078730000000  0.4339560000000  0.3883770000000 1.0
C      1  0.4049020000000  0.4951640000000  0.4814170000000 1.0
C      1  0.4495330000000  0.4905990000000  0.4692430000000 1.0
C      1  0.4678610000000  0.4831510000000  0.4128240000000 1.0
C      1  0.5537950000000  0.4377830000000  0.4910110000000 1.0
C      1  0.5369390000000  0.4268630000000  0.5829530000000 1.0
C      1  0.5261250000000  0.5873920000000  0.4782140000000 1.0
C      1  0.5554320000000  0.5786060000000  0.4795300000000 1.0
C      1  0.4788290000000  0.5427470000000  0.5973400000000 1.0
C      1  0.3971770000000  0.4480380000000  0.5325040000000 1.0
C      1  0.4885980000000  0.5770420000000  0.5607990000000 1.0
C      1  0.4651860000000  0.4893260000000  0.6016470000000 1.0
C      1  0.4689310000000  0.4229790000000  0.4516860000000 1.0
C      1  0.4273160000000  0.6032870000000  0.5282950000000 1.0
C      1  0.5914650000000  0.4879640000000  0.4200880000000 1.0
C      1  0.4191180000000  0.5040300000000  0.5896870000000 1.0
C      1  0.5454450000000  0.4771040000000  0.5949210000000 1.0
C      1  0.4420250000000  0.4944530000000  0.4213790000000 1.0
C      1  0.4347670000000  0.5224590000000  0.4212730000000 1.0
C      1  0.4565420000000  0.4765130000000  0.4931960000000 1.0
C      1  0.5107300000000  0.5773290000000  0.4541800000000 1.0
C      1  0.5236990000000  0.5751970000000  0.5269510000000 1.0
C      1  0.5680150000000  0.5629620000000  0.4574080000000 1.0
C      1  0.5785480000000  0.4421230000000  0.4767770000000 1.0
C      1  0.5161990000000  0.3963980000000  0.5450590000000 1.0
C      1  0.4886080000000  0.5641510000000  0.4957400000000 1.0
C      1  0.4177220000000  0.4059070000000  0.5360170000000 1.0
C      1  0.4811720000000  0.5555390000000  0.4190030000000 1.0
C      1  0.5874600000000  0.5439610000000  0.4674850000000 1.0
C      1  0.4078490000000  0.4598940000000  0.4861710000000 1.0
C      1  0.5312220000000  0.5086510000000  0.4671880000000 1.0
C      1  0.5701680000000  0.4894370000000  0.4905150000000 1.0
C      1  0.4679390000000  0.4659440000000  0.5861130000000 1.0
C      1  0.4574780000000  0.5416220000000  0.5530700000000 1.0
C      1  0.5808570000000  0.4736220000000  0.4425260000000 1.0
C      1  0.4542060000000  0.4339310000000  0.5509070000000 1.0
C      1  0.5099740000000  0.5620670000000  0.5498730000000 1.0
C      1  0.4847550000000  0.5759950000000  0.4407160000000 1.0
C      1  0.4923830000000  0.4372070000000  0.4111490000000 1.0
C      1  0.5951520000000  0.4537340000000  0.5188260000000 1.0
C      1  0.4927950000000  0.5975970000000  0.5782670000000 1.0
C      1  0.5164500000000  0.4495570000000  0.5211190000000 1.0
C      1  0.4136550000000  0.5798820000000  0.4420980000000 1.0
C      1  0.5702250000000  0.5390490000000  0.5843810000000 1.0
C      1  0.4868230000000  0.5011770000000  0.6168340000000 1.0
C      1  0.4498590000000  0.5385800000000  0.4828130000000 1.0
C      1  0.4595110000000  0.5277260000000  0.5281060000000 1.0
C      1  0.5084800000000  0.4669200000000  0.4529160000000 1.0
C      1  0.5968490000000  0.5239800000000  0.5399740000000 1.0
C      1  0.5483940000000  0.5528530000000  0.4400430000000 1.0
C      1  0.4353610000000  0.4801020000000  0.5138230000000 1.0
C      1  0.5389350000000  0.5124770000000  0.5145820000000 1.0
C      1  0.5892580000000  0.5472670000000  0.4963970000000 1.0
C      1  0.5825880000000  0.4931750000000  0.4651050000000 1.0
C      1  0.6180620000000  0.4790870000000  0.4888600000000 1.0
C      1  0.5407790000000  0.5335050000000  0.5322010000000 1.0
C      1  0.5190180000000  0.5074490000000  0.5659310000000 1.0
C      1  0.5233990000000  0.4317100000000  0.3675690000000 1.0
C      1  0.4589880000000  0.5316110000000  0.5797340000000 1.0
C      1  0.5931660000000  0.4960920000000  0.5418890000000 1.0
C      1  0.3938100000000  0.4986400000000  0.5866030000000 1.0
C      1  0.5203120000000  0.5338320000000  0.5529540000000 1.0
C      1  0.4634620000000  0.5643500000000  0.4818430000000 1.0
C      1  0.5045780000000  0.5400590000000  0.4098180000000 1.0
C      1  0.5248270000000  0.4209780000000  0.4424900000000 1.0
C      1  0.4112060000000  0.5287610000000  0.4376720000000 1.0
C      1  0.5271590000000  0.4666110000000  0.5405490000000 1.0
C      1  0.5868260000000  0.5383620000000  0.5626370000000 1.0
C      1  0.5274420000000  0.4470480000000  0.4947640000000 1.0
C      1  0.4787120000000  0.5156640000000  0.4465880000000 1.0
C      1  0.4877700000000  0.5004230000000  0.4236940000000 1.0
C      1  0.4217160000000  0.5054990000000  0.5047580000000 1.0
C      1  0.5919060000000  0.5191710000000  0.4545140000000 1.0
C      1  0.5251420000000  0.5360140000000  0.6139250000000 1.0
C      1  0.4113490000000  0.6172120000000  0.5131050000000 1.0
C      1  0.4434380000000  0.4162960000000  0.5304880000000 1.0
C      1  0.4387820000000  0.5283740000000  0.5075980000000 1.0
C      1  0.4975170000000  0.5277790000000  0.6127950000000 1.0
C      1  0.4562890000000  0.4119470000000  0.5042150000000 1.0
C      1  0.5129950000000  0.5129050000000  0.4180280000000 1.0
C      1  0.5102500000000  0.5820370000000  0.5023470000000 1.0
C      1  0.5277430000000  0.4085540000000  0.5658370000000 1.0
C      1  0.5158520000000  0.5320590000000  0.4722740000000 1.0
C      1  0.4440820000000  0.5879850000000  0.5419560000000 1.0
C      1  0.4593610000000  0.5171000000000  0.4662590000000 1.0
C      1  0.4986210000000  0.5366360000000  0.4951640000000 1.0
C      1  0.5008770000000  0.3921120000000  0.5235940000000 1.0
C      1  0.5482620000000  0.5597870000000  0.5235850000000 1.0
C      1  0.5543860000000  0.4698110000000  0.5394240000000 1.0
C      1  0.5326810000000  0.5050540000000  0.4380650000000 1.0
C      1  0.5435450000000  0.4504670000000  0.5935840000000 1.0
C      1  0.6108650000000  0.5329200000000  0.4100130000000 1.0
END
