TITL C-627110-360-1685 0.0407255335238641 125000 -405.945343959965 0 0 68 (C1) n - 1
REM
REM in /home/nfs/bkarasulu/CARBON/AIRSS/Generating-Clusters/LCBOP/Only-C1/SD-CG/FIRE-CG
REM
REM
REM
REM
REM
REM ./C.cell (11c1c37f851c82e70ff6c80c92926a4b)
REM AIRSS Version 0.9.1 bugfix July 2018 build 013d7b7c2542+ Fri, 06 Jul 2018 19:26:36 +0100
REM compiler GCC version 9.2.1 20190827 (Red Hat 9.2.1-1)
REM options -cpp -mtune=generic -march=x86-64 -g -O0 -fpre-include=/usr/include/finclude/math-vector-fortran.h
REM seed -1190399245 -1256135484 394063489 -1485286067 1918677779 294779049 1341367019 1968117910 34757899 -1603812621 1307698344 1777819856 -1997840756 881032191 -1187502240 1983100666 2117971990 -1989948168 -197234983 -603834459 1524850332 -1261182394 401234261 -1755568983 -1835755919 513095454 -1038839430 -149053953 969960200 1618788489 -192072122 -1100094768 2060827653
REM
CELL 1.54180   50.00000   50.00000   50.00000   90.00000   90.00000   90.00000
LATT -1
SFAC C  
C      1  0.4959160000000  0.5529030000000  0.5514750000000 1.0
C      1  0.4533280000000  0.5447010000000  0.5284160000000 1.0
C      1  0.5125280000000  0.5040260000000  0.4190240000000 1.0
C      1  0.4891660000000  0.5308920000000  0.5009070000000 1.0
C      1  0.5165600000000  0.5811210000000  0.4657810000000 1.0
C      1  0.4789950000000  0.4785830000000  0.4837650000000 1.0
C      1  0.5021230000000  0.5133790000000  0.5190740000000 1.0
C      1  0.5752280000000  0.4822850000000  0.5058590000000 1.0
C      1  0.4562900000000  0.4453090000000  0.4590280000000 1.0
C      1  0.5340880000000  0.5378800000000  0.4504630000000 1.0
C      1  0.4338170000000  0.5135800000000  0.4919860000000 1.0
C      1  0.4308750000000  0.4866480000000  0.4817820000000 1.0
C      1  0.4969240000000  0.5070440000000  0.5873280000000 1.0
C      1  0.5517670000000  0.5224220000000  0.4665090000000 1.0
C      1  0.5179920000000  0.6069910000000  0.4712990000000 1.0
C      1  0.5391480000000  0.4762830000000  0.4755360000000 1.0
C      1  0.5432410000000  0.4380920000000  0.5030780000000 1.0
C      1  0.5244630000000  0.4234130000000  0.4854160000000 1.0
C      1  0.5133770000000  0.5534710000000  0.4633790000000 1.0
C      1  0.4421090000000  0.5323420000000  0.4724110000000 1.0
C      1  0.5173720000000  0.4877290000000  0.3970610000000 1.0
C      1  0.5802620000000  0.5267670000000  0.5271430000000 1.0
C      1  0.4891000000000  0.5745850000000  0.5327190000000 1.0
C      1  0.4880550000000  0.4909680000000  0.5669340000000 1.0
C      1  0.5707690000000  0.4995280000000  0.5295060000000 1.0
C      1  0.5215810000000  0.4714990000000  0.3771110000000 1.0
C      1  0.4812060000000  0.4336260000000  0.4588900000000 1.0
C      1  0.4666680000000  0.5342680000000  0.4588180000000 1.0
C      1  0.4226650000000  0.5100390000000  0.5410150000000 1.0
C      1  0.4690980000000  0.5398570000000  0.5539400000000 1.0
C      1  0.4773900000000  0.4617150000000  0.5067970000000 1.0
C      1  0.4528660000000  0.5274530000000  0.5736550000000 1.0
C      1  0.5447510000000  0.5594970000000  0.5419800000000 1.0
C      1  0.5796220000000  0.5168340000000  0.4684770000000 1.0
C      1  0.4897410000000  0.5410550000000  0.4743640000000 1.0
C      1  0.5282650000000  0.5266430000000  0.4251940000000 1.0
C      1  0.5338190000000  0.5176150000000  0.5598980000000 1.0
C      1  0.5236300000000  0.5440580000000  0.5537620000000 1.0
C      1  0.4969150000000  0.4675160000000  0.5268750000000 1.0
C      1  0.5682980000000  0.5506950000000  0.5316920000000 1.0
C      1  0.5355120000000  0.4375360000000  0.5303980000000 1.0
C      1  0.5375000000000  0.5037310000000  0.4821610000000 1.0
C      1  0.4761990000000  0.4402160000000  0.5716650000000 1.0
C      1  0.4516160000000  0.5877080000000  0.5022370000000 1.0
C      1  0.4760200000000  0.4174000000000  0.5271120000000 1.0
C      1  0.4949380000000  0.4932320000000  0.5386420000000 1.0
C      1  0.5274820000000  0.5098840000000  0.5072130000000 1.0
C      1  0.4308010000000  0.5129490000000  0.5668520000000 1.0
C      1  0.5103190000000  0.4455130000000  0.5394890000000 1.0
C      1  0.4697210000000  0.5177760000000  0.4359750000000 1.0
C      1  0.4614080000000  0.4382240000000  0.5131150000000 1.0
C      1  0.5508940000000  0.4984720000000  0.5501690000000 1.0
C      1  0.5093620000000  0.4378330000000  0.4653470000000 1.0
C      1  0.5114670000000  0.4004720000000  0.4959950000000 1.0
C      1  0.4897820000000  0.3979410000000  0.5119330000000 1.0
C      1  0.4637870000000  0.5703360000000  0.5191760000000 1.0
C      1  0.4910990000000  0.4991100000000  0.4373760000000 1.0
C      1  0.4898330000000  0.4280700000000  0.5501480000000 1.0
C      1  0.4354970000000  0.5232270000000  0.5192350000000 1.0
C      1  0.5893760000000  0.4969190000000  0.4848320000000 1.0
C      1  0.4341420000000  0.4367910000000  0.5117670000000 1.0
C      1  0.5186730000000  0.6322300000000  0.4777860000000 1.0
C      1  0.5557760000000  0.4625350000000  0.4945830000000 1.0
C      1  0.5174260000000  0.4650200000000  0.4616240000000 1.0
C      1  0.4533280000000  0.5195790000000  0.4142480000000 1.0
C      1  0.4945190000000  0.4822970000000  0.4600250000000 1.0
C      1  0.4386150000000  0.4646850000000  0.4672650000000 1.0
C      1  0.4749040000000  0.4670000000000  0.5752820000000 1.0
END
