TITL C-627112-676-1637 0.59344395381993 125000 -1193.48715149595 0 0 198 (C1) n - 1
REM
REM in /home/nfs/bkarasulu/CARBON/AIRSS/Generating-Clusters/LCBOP/Only-C1/SD-CG/FIRE-CG
REM
REM
REM
REM
REM
REM ./C.cell (11c1c37f851c82e70ff6c80c92926a4b)
REM AIRSS Version 0.9.1 bugfix July 2018 build 013d7b7c2542+ Fri, 06 Jul 2018 19:26:36 +0100
REM compiler GCC version 9.2.1 20190827 (Red Hat 9.2.1-1)
REM options -cpp -mtune=generic -march=x86-64 -g -O0 -fpre-include=/usr/include/finclude/math-vector-fortran.h
REM seed 1733153133 1555543077 1603421448 -1127626939 1073825257 -1300320276 1462539286 -1454778380 776083089 1375621180 41838966 -31130495 -2088928613 693306087 1738263389 1399910573 1192274198 -537010491 157598558 24558387 1150012841 918869594 976363724 958332372 840203223 -410066801 811331526 10058493 -106867535 996074221 2131097090 371151115 2111084771
REM
CELL 1.54180   50.00000   50.00000   50.00000   90.00000   90.00000   90.00000
LATT -1
SFAC C  
C      1  0.4545460000000  0.4256550000000  0.4881690000000 1.0
C      1  0.5091330000000  0.5001200000000  0.4241000000000 1.0
C      1  0.4427930000000  0.4472100000000  0.5583880000000 1.0
C      1  0.3969800000000  0.5293160000000  0.5680580000000 1.0
C      1  0.5720510000000  0.5300670000000  0.4921390000000 1.0
C      1  0.4383720000000  0.4371580000000  0.4642670000000 1.0
C      1  0.6310500000000  0.4571690000000  0.4930830000000 1.0
C      1  0.5911270000000  0.4360720000000  0.5037470000000 1.0
C      1  0.4594790000000  0.3874280000000  0.5449580000000 1.0
C      1  0.4844050000000  0.4887930000000  0.4176900000000 1.0
C      1  0.4132790000000  0.5514710000000  0.5299550000000 1.0
C      1  0.4542730000000  0.5500040000000  0.4020310000000 1.0
C      1  0.5088860000000  0.4477540000000  0.5448130000000 1.0
C      1  0.4404040000000  0.5529080000000  0.6214570000000 1.0
C      1  0.4900770000000  0.5489260000000  0.4884840000000 1.0
C      1  0.5311760000000  0.4608550000000  0.3595540000000 1.0
C      1  0.5869460000000  0.4092780000000  0.5120360000000 1.0
C      1  0.5840940000000  0.5523480000000  0.4108590000000 1.0
C      1  0.4084990000000  0.5417400000000  0.4338690000000 1.0
C      1  0.4799790000000  0.5186080000000  0.6351990000000 1.0
C      1  0.4061240000000  0.5243470000000  0.5409110000000 1.0
C      1  0.5350860000000  0.5380590000000  0.4264960000000 1.0
C      1  0.6080810000000  0.4436550000000  0.4794810000000 1.0
C      1  0.5263690000000  0.5763300000000  0.4995920000000 1.0
C      1  0.4580190000000  0.5338110000000  0.5315600000000 1.0
C      1  0.4642330000000  0.4252170000000  0.5964990000000 1.0
C      1  0.4846890000000  0.3855850000000  0.5537360000000 1.0
C      1  0.5811940000000  0.5945800000000  0.5295100000000 1.0
C      1  0.6060900000000  0.4176290000000  0.4641480000000 1.0
C      1  0.4010080000000  0.4562050000000  0.4986840000000 1.0
C      1  0.6152280000000  0.5353970000000  0.4519820000000 1.0
C      1  0.5969710000000  0.5335270000000  0.4291910000000 1.0
C      1  0.4118170000000  0.4460090000000  0.4723600000000 1.0
C      1  0.4620380000000  0.5457410000000  0.4878470000000 1.0
C      1  0.4417900000000  0.4332760000000  0.4336850000000 1.0
C      1  0.4669100000000  0.5127390000000  0.5478010000000 1.0
C      1  0.3681130000000  0.4322450000000  0.5285250000000 1.0
C      1  0.5692210000000  0.6531220000000  0.4974430000000 1.0
C      1  0.4883790000000  0.5844430000000  0.4282940000000 1.0
C      1  0.4692740000000  0.5581450000000  0.5347500000000 1.0
C      1  0.4141530000000  0.4694620000000  0.5212710000000 1.0
C      1  0.5530310000000  0.5307440000000  0.3792190000000 1.0
C      1  0.3880680000000  0.4347800000000  0.4596870000000 1.0
C      1  0.4958020000000  0.5108990000000  0.5459450000000 1.0
C      1  0.4653750000000  0.5672830000000  0.4220420000000 1.0
C      1  0.5399100000000  0.5853370000000  0.4144570000000 1.0
C      1  0.6165520000000  0.5064290000000  0.5493550000000 1.0
C      1  0.4079460000000  0.5622950000000  0.5032290000000 1.0
C      1  0.4843200000000  0.4601460000000  0.5409890000000 1.0
C      1  0.5424800000000  0.3825350000000  0.5096340000000 1.0
C      1  0.4879590000000  0.4351590000000  0.6060180000000 1.0
C      1  0.4010170000000  0.5460850000000  0.4815190000000 1.0
C      1  0.4956670000000  0.4588710000000  0.4927550000000 1.0
C      1  0.4499500000000  0.5025400000000  0.3827140000000 1.0
C      1  0.3736510000000  0.4900400000000  0.5372270000000 1.0
C      1  0.5557640000000  0.5374750000000  0.5740420000000 1.0
C      1  0.5403380000000  0.4883430000000  0.5964900000000 1.0
C      1  0.4451840000000  0.5203010000000  0.4068640000000 1.0
C      1  0.5918800000000  0.5704420000000  0.5753170000000 1.0
C      1  0.5660750000000  0.5755320000000  0.4156910000000 1.0
C      1  0.5088910000000  0.5343500000000  0.5038190000000 1.0
C      1  0.4013090000000  0.4951890000000  0.5320330000000 1.0
C      1  0.5398400000000  0.4974290000000  0.4844400000000 1.0
C      1  0.4936190000000  0.3886520000000  0.4976380000000 1.0
C      1  0.5179600000000  0.4964990000000  0.5377560000000 1.0
C      1  0.6053280000000  0.6092470000000  0.4535590000000 1.0
C      1  0.5701600000000  0.4516210000000  0.4449340000000 1.0
C      1  0.4721710000000  0.5145470000000  0.3672650000000 1.0
C      1  0.4721660000000  0.4438610000000  0.3962010000000 1.0
C      1  0.5390540000000  0.5611570000000  0.5654730000000 1.0
C      1  0.4652440000000  0.5499020000000  0.4444580000000 1.0
C      1  0.4705800000000  0.3677810000000  0.4575190000000 1.0
C      1  0.4233330000000  0.4937820000000  0.4589590000000 1.0
C      1  0.3595860000000  0.5209840000000  0.4887350000000 1.0
C      1  0.5353180000000  0.6008950000000  0.5107420000000 1.0
C      1  0.5762140000000  0.4871880000000  0.4127060000000 1.0
C      1  0.4875410000000  0.4614980000000  0.4121990000000 1.0
C      1  0.5265370000000  0.4064960000000  0.4106680000000 1.0
C      1  0.4166950000000  0.5248550000000  0.4145570000000 1.0
C      1  0.4675170000000  0.5429850000000  0.6251090000000 1.0
C      1  0.4078680000000  0.5028900000000  0.6292120000000 1.0
C      1  0.4430280000000  0.4008420000000  0.5286580000000 1.0
C      1  0.5788370000000  0.5406950000000  0.3850640000000 1.0
C      1  0.4205420000000  0.4990430000000  0.6058310000000 1.0
C      1  0.5049150000000  0.4332310000000  0.4804040000000 1.0
C      1  0.4405230000000  0.4282400000000  0.5801000000000 1.0
C      1  0.4867150000000  0.5524070000000  0.6061550000000 1.0
C      1  0.4224950000000  0.5467610000000  0.6427590000000 1.0
C      1  0.5734790000000  0.6263870000000  0.4935200000000 1.0
C      1  0.6029520000000  0.5237190000000  0.5644690000000 1.0
C      1  0.5259910000000  0.5526830000000  0.5180380000000 1.0
C      1  0.5167480000000  0.4209890000000  0.3880430000000 1.0
C      1  0.5028310000000  0.5345200000000  0.5610500000000 1.0
C      1  0.5644400000000  0.5454390000000  0.4713710000000 1.0
C      1  0.4917400000000  0.5749060000000  0.5404830000000 1.0
C      1  0.5495720000000  0.4194410000000  0.5717140000000 1.0
C      1  0.3911160000000  0.4153830000000  0.5720260000000 1.0
C      1  0.4035700000000  0.5444450000000  0.5894370000000 1.0
C      1  0.4846890000000  0.3681530000000  0.4804070000000 1.0
C      1  0.4450950000000  0.4494620000000  0.4067580000000 1.0
C      1  0.5673640000000  0.4608040000000  0.4177000000000 1.0
C      1  0.6298250000000  0.4812650000000  0.5085530000000 1.0
C      1  0.4662140000000  0.6027220000000  0.5111930000000 1.0
C      1  0.5086980000000  0.5542600000000  0.3906750000000 1.0
C      1  0.4153460000000  0.4164360000000  0.5832940000000 1.0
C      1  0.3996760000000  0.5006010000000  0.4695060000000 1.0
C      1  0.4185410000000  0.5482890000000  0.4592990000000 1.0
C      1  0.4407640000000  0.4255580000000  0.5146630000000 1.0
C      1  0.5154070000000  0.3862320000000  0.5168630000000 1.0
C      1  0.5745400000000  0.4822980000000  0.5110150000000 1.0
C      1  0.5554000000000  0.4255470000000  0.4557600000000 1.0
C      1  0.4890830000000  0.5371110000000  0.3768900000000 1.0
C      1  0.4292450000000  0.5740490000000  0.5438320000000 1.0
C      1  0.5027680000000  0.4472450000000  0.4302010000000 1.0
C      1  0.5558540000000  0.4644020000000  0.5919810000000 1.0
C      1  0.4227750000000  0.5868930000000  0.4985350000000 1.0
C      1  0.5298380000000  0.4419630000000  0.5296610000000 1.0
C      1  0.5630880000000  0.6072270000000  0.5118720000000 1.0
C      1  0.4397680000000  0.5926750000000  0.5226120000000 1.0
C      1  0.4829500000000  0.4145260000000  0.4902490000000 1.0
C      1  0.5109790000000  0.3906350000000  0.5451650000000 1.0
C      1  0.5884960000000  0.6174070000000  0.4717050000000 1.0
C      1  0.4656020000000  0.6021450000000  0.4802580000000 1.0
C      1  0.5463410000000  0.5094480000000  0.5763050000000 1.0
C      1  0.5312100000000  0.4021400000000  0.5618290000000 1.0
C      1  0.5944480000000  0.5835340000000  0.5500690000000 1.0
C      1  0.5095110000000  0.5656820000000  0.6159140000000 1.0
C      1  0.5005210000000  0.4321900000000  0.4514260000000 1.0
C      1  0.4879120000000  0.5913190000000  0.4632000000000 1.0
C      1  0.5655950000000  0.4426950000000  0.5763960000000 1.0
C      1  0.4901490000000  0.6002800000000  0.5272240000000 1.0
C      1  0.4613120000000  0.5195230000000  0.5759860000000 1.0
C      1  0.5166970000000  0.5573290000000  0.5466240000000 1.0
C      1  0.5336340000000  0.5401730000000  0.3974180000000 1.0
C      1  0.4772460000000  0.5045090000000  0.3420780000000 1.0
C      1  0.4348160000000  0.5743390000000  0.5721160000000 1.0
C      1  0.4369050000000  0.5976030000000  0.4756560000000 1.0
C      1  0.5469370000000  0.5102870000000  0.3612050000000 1.0
C      1  0.5596360000000  0.6029570000000  0.5816220000000 1.0
C      1  0.3743810000000  0.4218680000000  0.5522800000000 1.0
C      1  0.4960940000000  0.4810150000000  0.4745760000000 1.0
C      1  0.4509010000000  0.4961100000000  0.4536680000000 1.0
C      1  0.5164470000000  0.6413040000000  0.5317960000000 1.0
C      1  0.5359840000000  0.4319470000000  0.4817480000000 1.0
C      1  0.5510080000000  0.5456530000000  0.4482480000000 1.0
C      1  0.5374000000000  0.4863440000000  0.3543040000000 1.0
C      1  0.4685910000000  0.4741410000000  0.5870370000000 1.0
C      1  0.5905950000000  0.4466010000000  0.5634850000000 1.0
C      1  0.6098990000000  0.4592580000000  0.5496950000000 1.0
C      1  0.4462190000000  0.5483890000000  0.4646610000000 1.0
C      1  0.5373690000000  0.5843900000000  0.5819530000000 1.0
C      1  0.5843800000000  0.5426850000000  0.5736180000000 1.0
C      1  0.5801380000000  0.5866940000000  0.5963640000000 1.0
C      1  0.4468960000000  0.4047880000000  0.4297810000000 1.0
C      1  0.4604550000000  0.5024350000000  0.4274840000000 1.0
C      1  0.6012280000000  0.4907340000000  0.4536100000000 1.0
C      1  0.5111500000000  0.5788650000000  0.4096600000000 1.0
C      1  0.4083940000000  0.5239370000000  0.6460920000000 1.0
C      1  0.3856760000000  0.5222070000000  0.4811190000000 1.0
C      1  0.4779990000000  0.4663370000000  0.5144450000000 1.0
C      1  0.5158610000000  0.4829890000000  0.6122470000000 1.0
C      1  0.3671810000000  0.4327250000000  0.4776410000000 1.0
C      1  0.5346410000000  0.5762430000000  0.6102820000000 1.0
C      1  0.4605270000000  0.4856740000000  0.5019570000000 1.0
C      1  0.5904240000000  0.5042880000000  0.4295480000000 1.0
C      1  0.5400320000000  0.4104390000000  0.4337290000000 1.0
C      1  0.5630120000000  0.5764030000000  0.6183550000000 1.0
C      1  0.4658330000000  0.4632010000000  0.5616160000000 1.0
C      1  0.4609190000000  0.4745570000000  0.6121860000000 1.0
C      1  0.5453440000000  0.4430360000000  0.5066730000000 1.0
C      1  0.5270740000000  0.4849370000000  0.4392840000000 1.0
C      1  0.5104640000000  0.5262410000000  0.4329120000000 1.0
C      1  0.3749890000000  0.4425640000000  0.5035780000000 1.0
C      1  0.4571850000000  0.3819360000000  0.4391670000000 1.0
C      1  0.6174390000000  0.5108020000000  0.4674420000000 1.0
C      1  0.4885650000000  0.4245160000000  0.3836960000000 1.0
C      1  0.4892960000000  0.5362700000000  0.4466760000000 1.0
C      1  0.4841180000000  0.5377190000000  0.5824020000000 1.0
C      1  0.5141160000000  0.6154350000000  0.5235290000000 1.0
C      1  0.5220720000000  0.4870200000000  0.4665620000000 1.0
C      1  0.5416050000000  0.4982300000000  0.5503650000000 1.0
C      1  0.6288960000000  0.5045590000000  0.4922440000000 1.0
C      1  0.5707350000000  0.4545920000000  0.5091360000000 1.0
C      1  0.5680960000000  0.3901210000000  0.5119390000000 1.0
C      1  0.5040750000000  0.5738450000000  0.4797840000000 1.0
C      1  0.6207290000000  0.4817920000000  0.5360760000000 1.0
C      1  0.4387950000000  0.4750080000000  0.3910420000000 1.0
C      1  0.4318170000000  0.4480480000000  0.5319120000000 1.0
C      1  0.5351870000000  0.4411540000000  0.3790950000000 1.0
C      1  0.5005150000000  0.5020230000000  0.6275410000000 1.0
C      1  0.4690890000000  0.4920080000000  0.4748820000000 1.0
C      1  0.5806820000000  0.4077540000000  0.4598590000000 1.0
C      1  0.5056180000000  0.4554500000000  0.6112700000000 1.0
C      1  0.4272260000000  0.5595770000000  0.5956160000000 1.0
C      1  0.5631840000000  0.5041120000000  0.4979280000000 1.0
C      1  0.5930950000000  0.4634850000000  0.4600000000000 1.0
C      1  0.5568250000000  0.4460520000000  0.3965930000000 1.0
C      1  0.4389290000000  0.5089960000000  0.5889800000000 1.0
END
