TITL C-627110-360-2034 0.000111930340510291 125000 -1090.08732813078 0 0 179 (C1) n - 1
REM
REM in /home/nfs/bkarasulu/CARBON/AIRSS/Generating-Clusters/LCBOP/Only-C1/SD-CG/FIRE-CG
REM
REM
REM
REM
REM
REM ./C.cell (11c1c37f851c82e70ff6c80c92926a4b)
REM AIRSS Version 0.9.1 bugfix July 2018 build 013d7b7c2542+ Fri, 06 Jul 2018 19:26:36 +0100
REM compiler GCC version 9.2.1 20190827 (Red Hat 9.2.1-1)
REM options -cpp -mtune=generic -march=x86-64 -g -O0 -fpre-include=/usr/include/finclude/math-vector-fortran.h
REM seed 1733686049 -1137608993 -1296226020 872103407 -1482082408 -106447740 -1854743492 921516659 -1288158727 -1072428232 1840649312 -844355039 -277798894 1522259467 -341491975 236409475 1174732172 1369885343 -1557450613 -1820080359 1099944716 -876817562 730344491 -375392709 -251694637 762297316 -185779094 -409027102 1865999747 -463802266 -1078890206 -363020129 473883798
REM
CELL 1.54180   50.00000   50.00000   50.00000   90.00000   90.00000   90.00000
LATT -1
SFAC C  
C      1  0.5658530000000  0.6206290000000  0.4964230000000 1.0
C      1  0.4852600000000  0.5902360000000  0.5496670000000 1.0
C      1  0.4759390000000  0.5753630000000  0.4058730000000 1.0
C      1  0.5241670000000  0.5167040000000  0.6015330000000 1.0
C      1  0.5173460000000  0.3701530000000  0.4908310000000 1.0
C      1  0.4303560000000  0.3949670000000  0.4378650000000 1.0
C      1  0.4658310000000  0.5733110000000  0.3814650000000 1.0
C      1  0.4368990000000  0.4231520000000  0.5609140000000 1.0
C      1  0.5562890000000  0.4917210000000  0.5000940000000 1.0
C      1  0.4546100000000  0.5677730000000  0.3581000000000 1.0
C      1  0.3964310000000  0.5420710000000  0.5457510000000 1.0
C      1  0.4774430000000  0.3800970000000  0.5675110000000 1.0
C      1  0.4409080000000  0.5166460000000  0.5191440000000 1.0
C      1  0.5244940000000  0.5655520000000  0.6104070000000 1.0
C      1  0.4400160000000  0.4230120000000  0.5331250000000 1.0
C      1  0.4174340000000  0.5002890000000  0.5618610000000 1.0
C      1  0.5927540000000  0.5844420000000  0.5527520000000 1.0
C      1  0.4726200000000  0.4588050000000  0.5170720000000 1.0
C      1  0.4443560000000  0.6108020000000  0.5081960000000 1.0
C      1  0.5656560000000  0.5763340000000  0.4336500000000 1.0
C      1  0.4943110000000  0.4516120000000  0.5338990000000 1.0
C      1  0.4433070000000  0.5611710000000  0.3355560000000 1.0
C      1  0.4829110000000  0.4980500000000  0.3950900000000 1.0
C      1  0.5409600000000  0.6069670000000  0.4962260000000 1.0
C      1  0.5774000000000  0.5424060000000  0.5325930000000 1.0
C      1  0.4336710000000  0.5334700000000  0.4743240000000 1.0
C      1  0.4234910000000  0.5762350000000  0.4491250000000 1.0
C      1  0.5120010000000  0.4425060000000  0.6062700000000 1.0
C      1  0.4220310000000  0.5316180000000  0.4286970000000 1.0
C      1  0.5353670000000  0.4928850000000  0.5868660000000 1.0
C      1  0.5283110000000  0.4798750000000  0.5000770000000 1.0
C      1  0.5415430000000  0.5522780000000  0.5616870000000 1.0
C      1  0.4578060000000  0.5035020000000  0.4447040000000 1.0
C      1  0.4991440000000  0.4207000000000  0.4116760000000 1.0
C      1  0.3890020000000  0.5076640000000  0.5034570000000 1.0
C      1  0.4480460000000  0.4434090000000  0.5152440000000 1.0
C      1  0.4231910000000  0.5485450000000  0.4519800000000 1.0
C      1  0.5663990000000  0.5277530000000  0.4193390000000 1.0
C      1  0.5109970000000  0.4287730000000  0.5329880000000 1.0
C      1  0.5304900000000  0.4311530000000  0.5116500000000 1.0
C      1  0.3946120000000  0.5010850000000  0.4745390000000 1.0
C      1  0.4363370000000  0.5642970000000  0.5656820000000 1.0
C      1  0.3999090000000  0.4628890000000  0.4168530000000 1.0
C      1  0.5817870000000  0.4733610000000  0.5959880000000 1.0
C      1  0.3422870000000  0.5629050000000  0.5016820000000 1.0
C      1  0.5631800000000  0.4422650000000  0.4434190000000 1.0
C      1  0.5282180000000  0.3864370000000  0.4718620000000 1.0
C      1  0.5768110000000  0.4264550000000  0.6082250000000 1.0
C      1  0.5417450000000  0.5583280000000  0.4872940000000 1.0
C      1  0.5382290000000  0.4790780000000  0.4285380000000 1.0
C      1  0.4266480000000  0.4518340000000  0.4992500000000 1.0
C      1  0.4956910000000  0.5225760000000  0.6005290000000 1.0
C      1  0.4828210000000  0.4286150000000  0.3914710000000 1.0
C      1  0.4773280000000  0.4759270000000  0.5688970000000 1.0
C      1  0.6102720000000  0.4987360000000  0.4650080000000 1.0
C      1  0.4268360000000  0.4411030000000  0.4512930000000 1.0
C      1  0.4948640000000  0.4740400000000  0.4620780000000 1.0
C      1  0.4018370000000  0.4869790000000  0.5191800000000 1.0
C      1  0.4989090000000  0.5941620000000  0.5747920000000 1.0
C      1  0.5544140000000  0.5276410000000  0.5481050000000 1.0
C      1  0.5410570000000  0.5787000000000  0.5612300000000 1.0
C      1  0.4715110000000  0.4147930000000  0.4518460000000 1.0
C      1  0.5467580000000  0.4603580000000  0.5510070000000 1.0
C      1  0.4755250000000  0.5267220000000  0.5586090000000 1.0
C      1  0.4914170000000  0.4037760000000  0.4343820000000 1.0
C      1  0.4370150000000  0.5992320000000  0.4493210000000 1.0
C      1  0.4321180000000  0.5386030000000  0.5020880000000 1.0
C      1  0.5856360000000  0.5052820000000  0.4232110000000 1.0
C      1  0.4680580000000  0.5102990000000  0.5142760000000 1.0
C      1  0.4282870000000  0.4601980000000  0.4725540000000 1.0
C      1  0.4770730000000  0.4843330000000  0.5053570000000 1.0
C      1  0.6007690000000  0.4814000000000  0.6142320000000 1.0
C      1  0.5542800000000  0.4008000000000  0.4749270000000 1.0
C      1  0.5039790000000  0.5827020000000  0.4744520000000 1.0
C      1  0.4805420000000  0.4823810000000  0.6218750000000 1.0
C      1  0.5968830000000  0.4750170000000  0.3867220000000 1.0
C      1  0.6119430000000  0.4525490000000  0.4795580000000 1.0
C      1  0.3788380000000  0.4462550000000  0.5017330000000 1.0
C      1  0.5684020000000  0.4055870000000  0.4999700000000 1.0
C      1  0.4887820000000  0.5956890000000  0.4960070000000 1.0
C      1  0.6034750000000  0.5437300000000  0.4418070000000 1.0
C      1  0.4891820000000  0.5286400000000  0.5068280000000 1.0
C      1  0.4826290000000  0.4068890000000  0.5669960000000 1.0
C      1  0.5913740000000  0.3917750000000  0.5056360000000 1.0
C      1  0.4482470000000  0.5210530000000  0.4240610000000 1.0
C      1  0.4312450000000  0.4900620000000  0.3916600000000 1.0
C      1  0.5847300000000  0.5401990000000  0.5805340000000 1.0
C      1  0.4840030000000  0.4284720000000  0.4728410000000 1.0
C      1  0.6111540000000  0.4426300000000  0.5506950000000 1.0
C      1  0.5087150000000  0.4170530000000  0.5603670000000 1.0
C      1  0.5570740000000  0.4238400000000  0.5193390000000 1.0
C      1  0.4561470000000  0.6125160000000  0.4626430000000 1.0
C      1  0.3830860000000  0.5090480000000  0.4492400000000 1.0
C      1  0.4088230000000  0.4886510000000  0.4095130000000 1.0
C      1  0.5266780000000  0.5554620000000  0.5110540000000 1.0
C      1  0.5684860000000  0.5454610000000  0.6038860000000 1.0
C      1  0.4015650000000  0.4436000000000  0.4372000000000 1.0
C      1  0.5548380000000  0.5086150000000  0.4751880000000 1.0
C      1  0.5472920000000  0.5993390000000  0.5437300000000 1.0
C      1  0.5826280000000  0.6190560000000  0.5177360000000 1.0
C      1  0.5381520000000  0.4046460000000  0.4302890000000 1.0
C      1  0.4304400000000  0.4905960000000  0.5856490000000 1.0
C      1  0.4593980000000  0.5775410000000  0.5543070000000 1.0
C      1  0.5798700000000  0.5398640000000  0.5046460000000 1.0
C      1  0.3706460000000  0.4371790000000  0.4777530000000 1.0
C      1  0.4577270000000  0.4924750000000  0.3864570000000 1.0
C      1  0.5199970000000  0.4279680000000  0.5846400000000 1.0
C      1  0.5295480000000  0.4507520000000  0.4879830000000 1.0
C      1  0.6036390000000  0.4880100000000  0.5270180000000 1.0
C      1  0.5004990000000  0.4683120000000  0.5561280000000 1.0
C      1  0.6012250000000  0.4782790000000  0.4820470000000 1.0
C      1  0.6163570000000  0.5116930000000  0.5322380000000 1.0
C      1  0.5123510000000  0.5343900000000  0.5219940000000 1.0
C      1  0.4727220000000  0.5076260000000  0.6105390000000 1.0
C      1  0.4840210000000  0.5723380000000  0.4309280000000 1.0
C      1  0.5484900000000  0.5889980000000  0.4498160000000 1.0
C      1  0.4016610000000  0.4598560000000  0.5111750000000 1.0
C      1  0.4954720000000  0.5632580000000  0.4548330000000 1.0
C      1  0.5263780000000  0.4747130000000  0.5652180000000 1.0
C      1  0.4267980000000  0.5910400000000  0.5122560000000 1.0
C      1  0.4433250000000  0.4175630000000  0.4470500000000 1.0
C      1  0.4989450000000  0.5203120000000  0.4803620000000 1.0
C      1  0.5907040000000  0.5562740000000  0.5557270000000 1.0
C      1  0.4959270000000  0.5015500000000  0.4201760000000 1.0
C      1  0.4632240000000  0.4266040000000  0.5735630000000 1.0
C      1  0.5400990000000  0.5413280000000  0.6085420000000 1.0
C      1  0.6268820000000  0.4315220000000  0.4757900000000 1.0
C      1  0.4887170000000  0.5388570000000  0.5785420000000 1.0
C      1  0.5347430000000  0.5855000000000  0.4756470000000 1.0
C      1  0.4651090000000  0.6099780000000  0.4892300000000 1.0
C      1  0.5283190000000  0.6041560000000  0.5226130000000 1.0
C      1  0.5520780000000  0.4579300000000  0.4670750000000 1.0
C      1  0.5792900000000  0.5525520000000  0.4288090000000 1.0
C      1  0.5592810000000  0.4129180000000  0.4486070000000 1.0
C      1  0.5722580000000  0.5153000000000  0.5699200000000 1.0
C      1  0.5868070000000  0.4557990000000  0.4304060000000 1.0
C      1  0.4319820000000  0.5390460000000  0.5826780000000 1.0
C      1  0.4015150000000  0.5113170000000  0.4265760000000 1.0
C      1  0.4253790000000  0.5646520000000  0.5090360000000 1.0
C      1  0.4413900000000  0.5065100000000  0.4671230000000 1.0
C      1  0.4996010000000  0.5971370000000  0.5235920000000 1.0
C      1  0.5271270000000  0.4269160000000  0.4144710000000 1.0
C      1  0.5381810000000  0.5272820000000  0.4195100000000 1.0
C      1  0.4623380000000  0.4551560000000  0.5812960000000 1.0
C      1  0.5484880000000  0.4867500000000  0.4552460000000 1.0
C      1  0.3563660000000  0.5141170000000  0.4464450000000 1.0
C      1  0.4687220000000  0.5008220000000  0.5597740000000 1.0
C      1  0.5811930000000  0.4453840000000  0.5888660000000 1.0
C      1  0.5299640000000  0.5165740000000  0.5355320000000 1.0
C      1  0.5036400000000  0.4482080000000  0.4713720000000 1.0
C      1  0.4233250000000  0.4979700000000  0.5341600000000 1.0
C      1  0.4076650000000  0.5262480000000  0.5675110000000 1.0
C      1  0.5031170000000  0.5352630000000  0.4559750000000 1.0
C      1  0.5015940000000  0.4905080000000  0.4863380000000 1.0
C      1  0.5099530000000  0.5842920000000  0.5974190000000 1.0
C      1  0.6162930000000  0.4648880000000  0.5368720000000 1.0
C      1  0.5897830000000  0.4787870000000  0.4134780000000 1.0
C      1  0.5641550000000  0.4386440000000  0.5436350000000 1.0
C      1  0.6084670000000  0.4681910000000  0.3359090000000 1.0
C      1  0.3789060000000  0.4357320000000  0.4521950000000 1.0
C      1  0.4104090000000  0.5672610000000  0.5510660000000 1.0
C      1  0.4207130000000  0.4877260000000  0.4704750000000 1.0
C      1  0.4454420000000  0.5140080000000  0.5982350000000 1.0
C      1  0.5125590000000  0.5227970000000  0.4306710000000 1.0
C      1  0.4196120000000  0.4411900000000  0.5755700000000 1.0
C      1  0.6027560000000  0.4715670000000  0.3611210000000 1.0
C      1  0.4816790000000  0.4884700000000  0.4416590000000 1.0
C      1  0.5643070000000  0.4932470000000  0.5853770000000 1.0
C      1  0.6049640000000  0.5151250000000  0.4431980000000 1.0
C      1  0.5860490000000  0.4370940000000  0.5617520000000 1.0
C      1  0.5405480000000  0.4507540000000  0.4219860000000 1.0
C      1  0.4347760000000  0.4630140000000  0.5871300000000 1.0
C      1  0.5161740000000  0.3916640000000  0.4457200000000 1.0
C      1  0.5846970000000  0.4849220000000  0.5053420000000 1.0
C      1  0.5758090000000  0.6037810000000  0.5405210000000 1.0
C      1  0.3828150000000  0.5319960000000  0.5204740000000 1.0
C      1  0.4969670000000  0.4608720000000  0.6193760000000 1.0
C      1  0.3610690000000  0.5477130000000  0.5114500000000 1.0
C      1  0.5603960000000  0.5366190000000  0.4832220000000 1.0
END
