TITL C-627112-676-1634 144595.487071882 125000 -715.308355613358 0 0 117 (C1) n - 1
REM
REM in /home/nfs/bkarasulu/CARBON/AIRSS/Generating-Clusters/LCBOP/Only-C1/SD-CG/FIRE-CG
REM
REM
REM
REM
REM
REM ./C.cell (11c1c37f851c82e70ff6c80c92926a4b)
REM AIRSS Version 0.9.1 bugfix July 2018 build 013d7b7c2542+ Fri, 06 Jul 2018 19:26:36 +0100
REM compiler GCC version 9.2.1 20190827 (Red Hat 9.2.1-1)
REM options -cpp -mtune=generic -march=x86-64 -g -O0 -fpre-include=/usr/include/finclude/math-vector-fortran.h
REM seed -1088598100 -452505569 564146870 1511973705 -1159145002 -1446247607 509976565 -973687466 -475567638 -174122236 216251544 2057836465 1681570424 1476582695 1116340990 -416219433 1020182021 1639927013 -339503598 33266493 915985928 -607829816 -411047820 852138911 1459909775 -1428970281 186211379 142007673 -1423289523 1907635388 404737435 -557976630 -570017112
REM
CELL 1.54180   50.00000   50.00000   50.00000   90.00000   90.00000   90.00000
LATT -1
SFAC C  
C      1  0.4681590000000  0.4138660000000  0.5579470000000 1.0
C      1  0.5625840000000  0.5591050000000  0.4457460000000 1.0
C      1  0.5926880000000  0.4511970000000  0.5258260000000 1.0
C      1  0.4946040000000  0.5662340000000  0.5722180000000 1.0
C      1  0.5439080000000  0.4752290000000  0.4216910000000 1.0
C      1  0.5935690000000  0.5315760000000  0.4735260000000 1.0
C      1  0.5806880000000  0.4340830000000  0.5085530000000 1.0
C      1  0.4609480000000  0.4645790000000  0.5874040000000 1.0
C      1  0.4170140000000  0.4832830000000  0.4953930000000 1.0
C      1  0.4577470000000  0.5764960000000  0.5168650000000 1.0
C      1  0.4368780000000  0.4673380000000  0.5721780000000 1.0
C      1  0.4897160000000  0.4313170000000  0.5632870000000 1.0
C      1  0.4707410000000  0.5335480000000  0.5399230000000 1.0
C      1  0.4703300000000  0.4206710000000  0.4689490000000 1.0
C      1  0.5476840000000  0.4505210000000  0.5725140000000 1.0
C      1  0.5208810000000  0.4148830000000  0.4666640000000 1.0
C      1  0.5499830000000  0.4791300000000  0.5711960000000 1.0
C      1  0.5137190000000  0.4259590000000  0.5485400000000 1.0
C      1  0.5657840000000  0.4918710000000  0.4132330000000 1.0
C      1  0.5827620000000  0.5161830000000  0.5551880000000 1.0
C      1  0.5328040000000  0.4163770000000  0.5000570000000 1.0
C      1  0.5172160000000  0.5145920000000  0.4053730000000 1.0
C      1  0.4443130000000  0.5628090000000  0.5729760000000 1.0
C      1  0.4170170000000  0.4870930000000  0.5669400000000 1.0
C      1  0.5572750000000  0.5422940000000  0.5228710000000 1.0
C      1  0.4172840000000  0.5396120000000  0.4816540000000 1.0
C      1  0.4857280000000  0.6134080000000  0.5330640000000 1.0
C      1  0.4876270000000  0.5115470000000  0.3998860000000 1.0
C      1  0.4610860000000  0.4782840000000  0.6122370000000 1.0
C      1  0.5261910000000  0.5227850000000  0.5614770000000 1.0
C      1  0.5906550000000  0.4688820000000  0.5460640000000 1.0
C      1  0.4084270000000  0.5016980000000  0.5149450000000 1.0
C      1  0.4119050000000  0.5298190000000  0.5093730000000 1.0
C      1  0.5131560000000  0.5462750000000  0.5712150000000 1.0
C      1  0.4855150000000  0.4575690000000  0.5746410000000 1.0
C      1  0.4145400000000  0.5068270000000  0.5873090000000 1.0
C      1  0.5351760000000  0.4633450000000  0.4671990000000 1.0
C      1  0.5330580000000  0.5398250000000  0.4108210000000 1.0
C      1  0.5277050000000  0.5946620000000  0.4567810000000 1.0
C      1  0.5401530000000  0.4271880000000  0.5583400000000 1.0
C      1  0.5221720000000  0.4187810000000  0.4366770000000 1.0
C      1  0.5587590000000  0.5380090000000  0.4256120000000 1.0
C      1  0.5066670000000  0.4570930000000  0.4687800000000 1.0
C      1  0.5112390000000  0.4251510000000  0.5196740000000 1.0
C      1  0.5670160000000  0.5125450000000  0.4328130000000 1.0
C      1  0.4979430000000  0.5742200000000  0.4263580000000 1.0
C      1  0.5019420000000  0.5806440000000  0.4549060000000 1.0
C      1  0.4686030000000  0.5245560000000  0.5654440000000 1.0
C      1  0.4883480000000  0.4380830000000  0.5118160000000 1.0
C      1  0.5141140000000  0.4873360000000  0.5182880000000 1.0
C      1  0.4125250000000  0.3687410000000  0.5653350000000 1.0
C      1  0.4593540000000  0.4659710000000  0.4651880000000 1.0
C      1  0.5572370000000  0.5047350000000  0.4586140000000 1.0
C      1  0.5248960000000  0.5673920000000  0.4174000000000 1.0
C      1  0.4376330000000  0.4748020000000  0.4806930000000 1.0
C      1  0.5984990000000  0.5034380000000  0.4789280000000 1.0
C      1  0.4513080000000  0.5370360000000  0.5845440000000 1.0
C      1  0.5204620000000  0.4923450000000  0.4250440000000 1.0
C      1  0.4238680000000  0.5677600000000  0.4806360000000 1.0
C      1  0.6020840000000  0.5578870000000  0.5371810000000 1.0
C      1  0.4542800000000  0.4392260000000  0.4550630000000 1.0
C      1  0.5572410000000  0.4115370000000  0.5418670000000 1.0
C      1  0.4691620000000  0.5915880000000  0.5384200000000 1.0
C      1  0.5246250000000  0.4944950000000  0.5710830000000 1.0
C      1  0.4246450000000  0.5453890000000  0.5300830000000 1.0
C      1  0.4804300000000  0.5375430000000  0.4671170000000 1.0
C      1  0.4906350000000  0.4576590000000  0.4094050000000 1.0
C      1  0.5317710000000  0.6141540000000  0.4760100000000 1.0
C      1  0.5054430000000  0.6245150000000  0.5190320000000 1.0
C      1  0.5813700000000  0.4615640000000  0.4502570000000 1.0
C      1  0.5818190000000  0.5396590000000  0.5383080000000 1.0
C      1  0.4472390000000  0.4869610000000  0.4193100000000 1.0
C      1  0.4063240000000  0.4922640000000  0.5414830000000 1.0
C      1  0.5525690000000  0.4586720000000  0.4439130000000 1.0
C      1  0.4541380000000  0.3970980000000  0.5137000000000 1.0
C      1  0.4531710000000  0.5494930000000  0.5248260000000 1.0
C      1  0.4327710000000  0.4621140000000  0.4182300000000 1.0
C      1  0.5714170000000  0.5506560000000  0.4725100000000 1.0
C      1  0.5004700000000  0.4793690000000  0.5631710000000 1.0
C      1  0.4597940000000  0.5234170000000  0.4804960000000 1.0
C      1  0.4689720000000  0.5776380000000  0.5641380000000 1.0
C      1  0.4513750000000  0.3979700000000  0.5417820000000 1.0
C      1  0.4376570000000  0.4394630000000  0.4324200000000 1.0
C      1  0.4597180000000  0.4031420000000  0.4882320000000 1.0
C      1  0.5066650000000  0.4362980000000  0.4194510000000 1.0
C      1  0.4683200000000  0.4907080000000  0.5240350000000 1.0
C      1  0.5484420000000  0.4861750000000  0.4784840000000 1.0
C      1  0.4970870000000  0.4298530000000  0.4710280000000 1.0
C      1  0.5754350000000  0.4888190000000  0.5599580000000 1.0
C      1  0.5867620000000  0.4957960000000  0.5037750000000 1.0
C      1  0.5178480000000  0.5202020000000  0.4842800000000 1.0
C      1  0.4866640000000  0.4753610000000  0.4601150000000 1.0
C      1  0.5591450000000  0.4900570000000  0.5044610000000 1.0
C      1  0.4504990000000  0.5024100000000  0.6185260000000 1.0
C      1  0.5514420000000  0.5514410000000  0.4949050000000 1.0
C      1  0.4368670000000  0.5073450000000  0.4392000000000 1.0
C      1  0.4929630000000  0.4840780000000  0.5360700000000 1.0
C      1  0.4994560000000  0.5588630000000  0.4732740000000 1.0
C      1  0.5392910000000  0.5232670000000  0.5356530000000 1.0
C      1  0.4313340000000  0.3827170000000  0.5539290000000 1.0
C      1  0.5588000000000  0.4167520000000  0.5133340000000 1.0
C      1  0.4421690000000  0.5831520000000  0.4939760000000 1.0
C      1  0.4212310000000  0.5598090000000  0.5550780000000 1.0
C      1  0.4619190000000  0.5069420000000  0.5033460000000 1.0
C      1  0.4746570000000  0.4847200000000  0.4059440000000 1.0
C      1  0.5236590000000  0.5477270000000  0.4858860000000 1.0
C      1  0.5067380000000  0.4982790000000  0.4938350000000 1.0
C      1  0.5437130000000  0.5795770000000  0.4380270000000 1.0
C      1  0.5985840000000  0.4809250000000  0.4602380000000 1.0
C      1  0.4980050000000  0.4963590000000  0.4443760000000 1.0
C      1  0.5226850000000  0.6247140000000  0.4987360000000 1.0
C      1  0.4769300000000  0.5320760000000  0.4175530000000 1.0
C      1  0.4767900000000  0.5598860000000  0.4149130000000 1.0
C      1  0.5399810000000  0.4971270000000  0.5236720000000 1.0
C      1  0.4348850000000  0.5225520000000  0.4648320000000 1.0
C      1  0.4363430000000  0.5193760000000  0.6007140000000 1.0
C      1  0.4857690000000  0.5225620000000  0.4435450000000 1.0
END
