TITL C-627108-131-1908 -7.85637673185323e-07 125000 -497.277820004513 0 0 82 (C1) n - 1
REM
REM in /home/nfs/bkarasulu/CARBON/AIRSS/Generating-Clusters/LCBOP/Only-C1/SD-CG/FIRE-CG
REM
REM
REM
REM
REM
REM ./C.cell (11c1c37f851c82e70ff6c80c92926a4b)
REM AIRSS Version 0.9.1 bugfix July 2018 build 013d7b7c2542+ Fri, 06 Jul 2018 19:26:36 +0100
REM compiler GCC version 9.2.1 20190827 (Red Hat 9.2.1-1)
REM options -cpp -mtune=generic -march=x86-64 -g -O0 -fpre-include=/usr/include/finclude/math-vector-fortran.h
REM seed -1665703697 90149673 -439138902 -1962647611 291352773 457216102 -1883172533 616416159 1601316471 -1988306773 -1567947573 1385158600 -879060357 -1270470154 1080720032 -1590907392 -569807662 -2112809118 -350640529 -509377152 -1534500294 -1086780758 -573814151 -1785995670 -1287366500 388601908 880213654 765051526 722224442 1686151546 -899468946 -1975967078 -744051488
REM
CELL 1.54180   50.00000   50.00000   50.00000   90.00000   90.00000   90.00000
LATT -1
SFAC C  
C      1  0.4705310000000  0.4639810000000  0.5722900000000 1.0
C      1  0.5082370000000  0.5643780000000  0.4683460000000 1.0
C      1  0.5286650000000  0.5328380000000  0.5019010000000 1.0
C      1  0.5893080000000  0.4844790000000  0.4386830000000 1.0
C      1  0.5045210000000  0.4811120000000  0.4174640000000 1.0
C      1  0.5123170000000  0.5607350000000  0.5625170000000 1.0
C      1  0.5521810000000  0.4657260000000  0.4752270000000 1.0
C      1  0.4733010000000  0.5222650000000  0.5162850000000 1.0
C      1  0.4771700000000  0.4945340000000  0.5137970000000 1.0
C      1  0.4524810000000  0.4488600000000  0.5296090000000 1.0
C      1  0.5077440000000  0.5794370000000  0.5127870000000 1.0
C      1  0.4151370000000  0.4969190000000  0.4588700000000 1.0
C      1  0.4685230000000  0.5974730000000  0.5359830000000 1.0
C      1  0.5381060000000  0.5630740000000  0.5554230000000 1.0
C      1  0.5057930000000  0.4041170000000  0.5400280000000 1.0
C      1  0.5732850000000  0.4638110000000  0.4311180000000 1.0
C      1  0.4932480000000  0.4012880000000  0.5648480000000 1.0
C      1  0.5261770000000  0.4426030000000  0.4425590000000 1.0
C      1  0.4969160000000  0.3902540000000  0.5172390000000 1.0
C      1  0.5625980000000  0.5491920000000  0.5535670000000 1.0
C      1  0.4151100000000  0.5197530000000  0.5037700000000 1.0
C      1  0.4778840000000  0.4438960000000  0.4377780000000 1.0
C      1  0.4670330000000  0.5348140000000  0.4911110000000 1.0
C      1  0.5226180000000  0.4261460000000  0.5348860000000 1.0
C      1  0.4712320000000  0.4311340000000  0.4627140000000 1.0
C      1  0.4925820000000  0.3961910000000  0.4915270000000 1.0
C      1  0.5268670000000  0.4539840000000  0.4892340000000 1.0
C      1  0.5292190000000  0.4445880000000  0.5167340000000 1.0
C      1  0.5810090000000  0.4899400000000  0.5393130000000 1.0
C      1  0.4847450000000  0.5573870000000  0.5572810000000 1.0
C      1  0.5160180000000  0.5047170000000  0.5452820000000 1.0
C      1  0.5468760000000  0.4882090000000  0.5759850000000 1.0
C      1  0.4526000000000  0.4690200000000  0.5501840000000 1.0
C      1  0.5183000000000  0.4317270000000  0.4691030000000 1.0
C      1  0.5518760000000  0.4550300000000  0.4472390000000 1.0
C      1  0.5172630000000  0.4917380000000  0.4614240000000 1.0
C      1  0.4683950000000  0.5096740000000  0.3974430000000 1.0
C      1  0.5464720000000  0.5148670000000  0.4881230000000 1.0
C      1  0.5655800000000  0.4771280000000  0.5574670000000 1.0
C      1  0.4222900000000  0.4957910000000  0.5195150000000 1.0
C      1  0.4811570000000  0.5905650000000  0.5118470000000 1.0
C      1  0.4754430000000  0.5363660000000  0.5406720000000 1.0
C      1  0.4866950000000  0.4897750000000  0.3973300000000 1.0
C      1  0.5757860000000  0.5413460000000  0.5286830000000 1.0
C      1  0.5193390000000  0.4887050000000  0.5678420000000 1.0
C      1  0.4675510000000  0.4390540000000  0.5853110000000 1.0
C      1  0.4502740000000  0.4376180000000  0.4808440000000 1.0
C      1  0.4500200000000  0.5576990000000  0.4937460000000 1.0
C      1  0.5855810000000  0.5144910000000  0.5292660000000 1.0
C      1  0.5622660000000  0.4930340000000  0.4784990000000 1.0
C      1  0.4254230000000  0.5469350000000  0.5045160000000 1.0
C      1  0.5171260000000  0.5589940000000  0.4952680000000 1.0
C      1  0.4838310000000  0.5797920000000  0.4652930000000 1.0
C      1  0.4398330000000  0.4499190000000  0.5041990000000 1.0
C      1  0.4954620000000  0.4767990000000  0.5766570000000 1.0
C      1  0.4208380000000  0.4710870000000  0.5043850000000 1.0
C      1  0.5678440000000  0.5338010000000  0.5771040000000 1.0
C      1  0.4776700000000  0.5934580000000  0.4424360000000 1.0
C      1  0.4345300000000  0.4918450000000  0.5458030000000 1.0
C      1  0.4639190000000  0.5283970000000  0.4164940000000 1.0
C      1  0.4789870000000  0.5315570000000  0.4402500000000 1.0
C      1  0.5237190000000  0.5500870000000  0.4490210000000 1.0
C      1  0.4696350000000  0.5220720000000  0.4657460000000 1.0
C      1  0.5147230000000  0.5015190000000  0.4354980000000 1.0
C      1  0.4280120000000  0.5084670000000  0.5666610000000 1.0
C      1  0.4806550000000  0.4820010000000  0.4888280000000 1.0
C      1  0.5213930000000  0.5223790000000  0.5266500000000 1.0
C      1  0.5071530000000  0.4757210000000  0.4822120000000 1.0
C      1  0.4643080000000  0.4937270000000  0.4678820000000 1.0
C      1  0.5034200000000  0.4541570000000  0.4284040000000 1.0
C      1  0.5080330000000  0.5294520000000  0.4363000000000 1.0
C      1  0.5751690000000  0.5545350000000  0.5030400000000 1.0
C      1  0.5573190000000  0.5115910000000  0.5885230000000 1.0
C      1  0.4043270000000  0.5124670000000  0.4781810000000 1.0
C      1  0.5518580000000  0.5527010000000  0.4550290000000 1.0
C      1  0.4397840000000  0.4861470000000  0.4563520000000 1.0
C      1  0.4776510000000  0.4144700000000  0.5820770000000 1.0
C      1  0.4666520000000  0.5808530000000  0.4889800000000 1.0
C      1  0.5683370000000  0.5568160000000  0.4766400000000 1.0
C      1  0.5848420000000  0.4982310000000  0.4617660000000 1.0
C      1  0.4691400000000  0.5810790000000  0.5575180000000 1.0
C      1  0.4940860000000  0.4174840000000  0.4735950000000 1.0
END
