TITL C-627107-135-2057 0.00210065930056157 125000 -687.234755816872 0 0 113 (C1) n - 1
REM
REM in /home/nfs/bkarasulu/CARBON/AIRSS/Generating-Clusters/LCBOP/Only-C1/SD-CG/FIRE-CG
REM
REM
REM
REM
REM
REM ./C.cell (11c1c37f851c82e70ff6c80c92926a4b)
REM AIRSS Version 0.9.1 bugfix July 2018 build 013d7b7c2542+ Fri, 06 Jul 2018 19:26:36 +0100
REM compiler GCC version 9.2.1 20190827 (Red Hat 9.2.1-1)
REM options -cpp -mtune=generic -march=x86-64 -g -O0 -fpre-include=/usr/include/finclude/math-vector-fortran.h
REM seed -1479288206 785808032 -1259085845 -1610084692 1928362564 -752956365 -1434680479 24900872 -1053546608 1720062161 -1756286102 728476013 242380632 -203405094 50915813 1466864762 -2040452444 -666036445 686101719 539055381 -1704197651 -91162839 -1411160155 1742820488 -1029273656 -253811698 199037278 -9204880 -1825231294 1657674380 1848070327 -14764348 -1787824524
REM
CELL 1.54180   50.00000   50.00000   50.00000   90.00000   90.00000   90.00000
LATT -1
SFAC C  
C      1  0.4698780000000  0.5328500000000  0.4764010000000 1.0
C      1  0.4599340000000  0.5849510000000  0.5159160000000 1.0
C      1  0.5036830000000  0.5870110000000  0.5856850000000 1.0
C      1  0.5073330000000  0.4025920000000  0.4308140000000 1.0
C      1  0.5121690000000  0.4533900000000  0.5845360000000 1.0
C      1  0.5144220000000  0.4652660000000  0.5072040000000 1.0
C      1  0.4253930000000  0.5188810000000  0.5445740000000 1.0
C      1  0.5921930000000  0.5465390000000  0.5053260000000 1.0
C      1  0.5561350000000  0.4993720000000  0.4877280000000 1.0
C      1  0.4532080000000  0.5211550000000  0.4204470000000 1.0
C      1  0.5034470000000  0.5812620000000  0.4556330000000 1.0
C      1  0.4594880000000  0.4080570000000  0.5199030000000 1.0
C      1  0.4900310000000  0.4391000000000  0.5413210000000 1.0
C      1  0.4563300000000  0.5793330000000  0.4613190000000 1.0
C      1  0.4675360000000  0.5551910000000  0.5778140000000 1.0
C      1  0.4808450000000  0.5429770000000  0.5003020000000 1.0
C      1  0.4136670000000  0.5369070000000  0.4504960000000 1.0
C      1  0.4835850000000  0.4553050000000  0.4134700000000 1.0
C      1  0.5918600000000  0.4930100000000  0.4406080000000 1.0
C      1  0.5088050000000  0.6035360000000  0.5099840000000 1.0
C      1  0.4417320000000  0.4073690000000  0.5423520000000 1.0
C      1  0.5843960000000  0.5451900000000  0.5340000000000 1.0
C      1  0.5215820000000  0.4788390000000  0.5929640000000 1.0
C      1  0.5571020000000  0.5163920000000  0.5095230000000 1.0
C      1  0.5212800000000  0.4042560000000  0.4791800000000 1.0
C      1  0.4383870000000  0.4968850000000  0.4165580000000 1.0
C      1  0.5906580000000  0.4705880000000  0.4555210000000 1.0
C      1  0.4265050000000  0.5430390000000  0.5264820000000 1.0
C      1  0.5340720000000  0.5087070000000  0.4678120000000 1.0
C      1  0.5434470000000  0.4593710000000  0.5116200000000 1.0
C      1  0.4227800000000  0.4346790000000  0.4958090000000 1.0
C      1  0.5504030000000  0.5082890000000  0.5365130000000 1.0
C      1  0.5204890000000  0.4269980000000  0.4237000000000 1.0
C      1  0.5441330000000  0.4197130000000  0.4680460000000 1.0
C      1  0.4346040000000  0.5946020000000  0.4550200000000 1.0
C      1  0.5656010000000  0.5344400000000  0.4317420000000 1.0
C      1  0.5566520000000  0.3595920000000  0.6114260000000 1.0
C      1  0.5779270000000  0.4559830000000  0.4762660000000 1.0
C      1  0.5331240000000  0.4874110000000  0.4467060000000 1.0
C      1  0.5682310000000  0.5253740000000  0.5518070000000 1.0
C      1  0.5268590000000  0.4721030000000  0.4022260000000 1.0
C      1  0.4806080000000  0.5910920000000  0.4706630000000 1.0
C      1  0.5700160000000  0.4283270000000  0.4762130000000 1.0
C      1  0.4739110000000  0.4687490000000  0.4345120000000 1.0
C      1  0.5126910000000  0.4950990000000  0.5090260000000 1.0
C      1  0.4454200000000  0.4170690000000  0.4962100000000 1.0
C      1  0.4452920000000  0.4769390000000  0.5585880000000 1.0
C      1  0.4804440000000  0.5327390000000  0.5262900000000 1.0
C      1  0.5077040000000  0.4068320000000  0.5049470000000 1.0
C      1  0.4549420000000  0.4934220000000  0.5015590000000 1.0
C      1  0.4205530000000  0.4244820000000  0.5437680000000 1.0
C      1  0.4438100000000  0.5669050000000  0.5329450000000 1.0
C      1  0.5886810000000  0.5181160000000  0.4275170000000 1.0
C      1  0.5102050000000  0.4587190000000  0.4784930000000 1.0
C      1  0.5241130000000  0.4296760000000  0.5927600000000 1.0
C      1  0.4818570000000  0.5255020000000  0.4130890000000 1.0
C      1  0.5096920000000  0.5362200000000  0.4112570000000 1.0
C      1  0.5672960000000  0.3365760000000  0.6174760000000 1.0
C      1  0.4820230000000  0.5965930000000  0.4996990000000 1.0
C      1  0.4836190000000  0.5089020000000  0.4690480000000 1.0
C      1  0.5452510000000  0.5417020000000  0.5090000000000 1.0
C      1  0.5351420000000  0.4367200000000  0.4461090000000 1.0
C      1  0.5715220000000  0.5723660000000  0.5397420000000 1.0
C      1  0.4112470000000  0.5437190000000  0.5023030000000 1.0
C      1  0.5458300000000  0.3829940000000  0.6052740000000 1.0
C      1  0.5761100000000  0.5630470000000  0.4875280000000 1.0
C      1  0.5109660000000  0.5646020000000  0.4098240000000 1.0
C      1  0.5545310000000  0.5392930000000  0.5739050000000 1.0
C      1  0.5281060000000  0.5286590000000  0.5818230000000 1.0
C      1  0.4619690000000  0.5268240000000  0.5811580000000 1.0
C      1  0.4944000000000  0.5631330000000  0.5766300000000 1.0
C      1  0.6082220000000  0.5268430000000  0.4103900000000 1.0
C      1  0.5615730000000  0.5485270000000  0.4579690000000 1.0
C      1  0.5329810000000  0.5878880000000  0.5133230000000 1.0
C      1  0.5209020000000  0.5070970000000  0.5337060000000 1.0
C      1  0.4894170000000  0.4536750000000  0.5669540000000 1.0
C      1  0.4107130000000  0.4717190000000  0.5235400000000 1.0
C      1  0.4354420000000  0.5225490000000  0.5714880000000 1.0
C      1  0.5350100000000  0.4063880000000  0.5991200000000 1.0
C      1  0.5066800000000  0.3931140000000  0.4566590000000 1.0
C      1  0.4139690000000  0.4427810000000  0.5232500000000 1.0
C      1  0.5142280000000  0.5579480000000  0.4679210000000 1.0
C      1  0.4497070000000  0.5693490000000  0.5608640000000 1.0
C      1  0.5350860000000  0.5393190000000  0.4632550000000 1.0
C      1  0.4570180000000  0.5508390000000  0.4585940000000 1.0
C      1  0.4054010000000  0.5409420000000  0.4761030000000 1.0
C      1  0.5593910000000  0.5678270000000  0.5662850000000 1.0
C      1  0.4112270000000  0.4792830000000  0.4949960000000 1.0
C      1  0.4812600000000  0.5039500000000  0.5820630000000 1.0
C      1  0.5099940000000  0.5432670000000  0.5647030000000 1.0
C      1  0.4680190000000  0.4737910000000  0.5135250000000 1.0
C      1  0.4715750000000  0.4775190000000  0.5702900000000 1.0
C      1  0.5028370000000  0.5275710000000  0.5424530000000 1.0
C      1  0.4400920000000  0.5383420000000  0.4398180000000 1.0
C      1  0.5079210000000  0.5840690000000  0.4281490000000 1.0
C      1  0.4873560000000  0.4142470000000  0.5250030000000 1.0
C      1  0.5252230000000  0.5603900000000  0.5118400000000 1.0
C      1  0.5082780000000  0.5058390000000  0.4831590000000 1.0
C      1  0.5046740000000  0.5558380000000  0.4944040000000 1.0
C      1  0.5618400000000  0.5847690000000  0.5140490000000 1.0
C      1  0.4311060000000  0.4985550000000  0.4904770000000 1.0
C      1  0.4746270000000  0.4880800000000  0.4528170000000 1.0
C      1  0.4246730000000  0.4891170000000  0.5420120000000 1.0
C      1  0.5109580000000  0.5050030000000  0.5891840000000 1.0
C      1  0.4146780000000  0.4558540000000  0.4774120000000 1.0
C      1  0.4898890000000  0.4587040000000  0.5209950000000 1.0
C      1  0.4174800000000  0.4612930000000  0.4498340000000 1.0
C      1  0.5335960000000  0.4941350000000  0.4192330000000 1.0
C      1  0.5104470000000  0.4487810000000  0.4074910000000 1.0
C      1  0.5261370000000  0.4616070000000  0.4556860000000 1.0
C      1  0.4245480000000  0.4772130000000  0.4291470000000 1.0
C      1  0.5357930000000  0.5225440000000  0.4159860000000 1.0
C      1  0.5621730000000  0.4719100000000  0.4937480000000 1.0
END
