TITL C-627110-360-950 0.89102230988176 125000 -962.802132014643 0 0 157 (C1) n - 1
REM
REM in /home/nfs/bkarasulu/CARBON/AIRSS/Generating-Clusters/LCBOP/Only-C1/SD-CG/FIRE-CG
REM
REM
REM
REM
REM
REM ./C.cell (11c1c37f851c82e70ff6c80c92926a4b)
REM AIRSS Version 0.9.1 bugfix July 2018 build 013d7b7c2542+ Fri, 06 Jul 2018 19:26:36 +0100
REM compiler GCC version 9.2.1 20190827 (Red Hat 9.2.1-1)
REM options -cpp -mtune=generic -march=x86-64 -g -O0 -fpre-include=/usr/include/finclude/math-vector-fortran.h
REM seed -1443637207 1320244342 -171843851 -1792807392 1252790856 1456825657 1729303286 -13978593 -2120913046 1081811870 593104281 -555549802 309651251 -1740732523 473631091 -1561536537 -1536283466 -697854257 1244414895 1456686298 15763313 -1327392271 -375629020 1699644050 -505866397 -1224192815 1826936182 291999931 1980862924 833335403 -1116561375 1077386681 1534066368
REM
CELL 1.54180   50.00000   50.00000   50.00000   90.00000   90.00000   90.00000
LATT -1
SFAC C  
C      1  0.4130270000000  0.4506490000000  0.4662880000000 1.0
C      1  0.5085750000000  0.5833100000000  0.5430340000000 1.0
C      1  0.4498770000000  0.5415540000000  0.5888360000000 1.0
C      1  0.5629060000000  0.4801350000000  0.5254630000000 1.0
C      1  0.4210530000000  0.4300970000000  0.4817040000000 1.0
C      1  0.5514000000000  0.5825490000000  0.4448980000000 1.0
C      1  0.4741900000000  0.5587170000000  0.5915400000000 1.0
C      1  0.4638580000000  0.6026990000000  0.5305310000000 1.0
C      1  0.5483760000000  0.4805820000000  0.4545260000000 1.0
C      1  0.4996630000000  0.5127910000000  0.4811230000000 1.0
C      1  0.5026280000000  0.5213420000000  0.5972880000000 1.0
C      1  0.5010490000000  0.4971050000000  0.5291030000000 1.0
C      1  0.4521010000000  0.3986860000000  0.4029530000000 1.0
C      1  0.5643960000000  0.4059750000000  0.4430970000000 1.0
C      1  0.5311220000000  0.3914960000000  0.5063590000000 1.0
C      1  0.5592200000000  0.4936540000000  0.4324150000000 1.0
C      1  0.6082370000000  0.5092570000000  0.4675170000000 1.0
C      1  0.6051270000000  0.4643740000000  0.4879180000000 1.0
C      1  0.3863260000000  0.5642500000000  0.5132200000000 1.0
C      1  0.4667130000000  0.5395470000000  0.5397770000000 1.0
C      1  0.4333630000000  0.5596830000000  0.5741240000000 1.0
C      1  0.5705120000000  0.5744330000000  0.4636430000000 1.0
C      1  0.5486210000000  0.4952410000000  0.4804390000000 1.0
C      1  0.4143480000000  0.5237880000000  0.4568290000000 1.0
C      1  0.4614040000000  0.6504250000000  0.5220110000000 1.0
C      1  0.4796750000000  0.4368040000000  0.4431670000000 1.0
C      1  0.4621790000000  0.3938010000000  0.5331840000000 1.0
C      1  0.5280700000000  0.4360700000000  0.4280790000000 1.0
C      1  0.5024120000000  0.3916640000000  0.5085370000000 1.0
C      1  0.4605960000000  0.4154670000000  0.4476210000000 1.0
C      1  0.3983940000000  0.5649360000000  0.5371560000000 1.0
C      1  0.5203160000000  0.5333240000000  0.4775360000000 1.0
C      1  0.4933350000000  0.5379800000000  0.4325880000000 1.0
C      1  0.4350320000000  0.4430570000000  0.5843850000000 1.0
C      1  0.5938060000000  0.4549380000000  0.5740150000000 1.0
C      1  0.4626350000000  0.5140120000000  0.5528420000000 1.0
C      1  0.5635760000000  0.5123720000000  0.6079360000000 1.0
C      1  0.4872670000000  0.3915680000000  0.4829370000000 1.0
C      1  0.4811860000000  0.5925020000000  0.5520550000000 1.0
C      1  0.5019380000000  0.4090280000000  0.5593040000000 1.0
C      1  0.4729530000000  0.5178960000000  0.4915450000000 1.0
C      1  0.4729750000000  0.4967860000000  0.5327300000000 1.0
C      1  0.5802340000000  0.5305850000000  0.5968630000000 1.0
C      1  0.4870110000000  0.4211920000000  0.5812290000000 1.0
C      1  0.4246980000000  0.4651580000000  0.4215830000000 1.0
C      1  0.5895090000000  0.5402170000000  0.5734760000000 1.0
C      1  0.5460510000000  0.5241890000000  0.4847100000000 1.0
C      1  0.4827630000000  0.4449150000000  0.5981510000000 1.0
C      1  0.5114790000000  0.5215460000000  0.5368530000000 1.0
C      1  0.5068470000000  0.4573950000000  0.6092610000000 1.0
C      1  0.5859190000000  0.5322160000000  0.4311130000000 1.0
C      1  0.5196640000000  0.3895240000000  0.4407300000000 1.0
C      1  0.4960970000000  0.6661740000000  0.4930840000000 1.0
C      1  0.4092330000000  0.4922160000000  0.5200240000000 1.0
C      1  0.4583270000000  0.4998460000000  0.5082700000000 1.0
C      1  0.5520840000000  0.5200110000000  0.3942510000000 1.0
C      1  0.5555670000000  0.5952820000000  0.4191170000000 1.0
C      1  0.4661650000000  0.6972260000000  0.5132440000000 1.0
C      1  0.5243100000000  0.5718320000000  0.4426060000000 1.0
C      1  0.5013730000000  0.4986840000000  0.4561530000000 1.0
C      1  0.5668330000000  0.5162450000000  0.4178190000000 1.0
C      1  0.5221480000000  0.5646330000000  0.5855110000000 1.0
C      1  0.4278970000000  0.4370200000000  0.4184390000000 1.0
C      1  0.4572690000000  0.5000550000000  0.3917760000000 1.0
C      1  0.4024280000000  0.4972970000000  0.4561490000000 1.0
C      1  0.4957790000000  0.4767960000000  0.5684990000000 1.0
C      1  0.5745240000000  0.4077180000000  0.4678200000000 1.0
C      1  0.4988180000000  0.4507100000000  0.4837390000000 1.0
C      1  0.4585390000000  0.5427270000000  0.4795730000000 1.0
C      1  0.5027320000000  0.5678700000000  0.5189960000000 1.0
C      1  0.5085290000000  0.4535410000000  0.5104070000000 1.0
C      1  0.4930230000000  0.5554760000000  0.4097640000000 1.0
C      1  0.4832860000000  0.4587660000000  0.5529880000000 1.0
C      1  0.4049450000000  0.4990940000000  0.5461930000000 1.0
C      1  0.5452160000000  0.4984490000000  0.5666320000000 1.0
C      1  0.4585830000000  0.5046670000000  0.4470800000000 1.0
C      1  0.5307810000000  0.5099140000000  0.3814430000000 1.0
C      1  0.6133220000000  0.4720560000000  0.5670760000000 1.0
C      1  0.5138050000000  0.5748310000000  0.4141620000000 1.0
C      1  0.4520760000000  0.4881850000000  0.5933570000000 1.0
C      1  0.4225900000000  0.4290020000000  0.5650880000000 1.0
C      1  0.4350680000000  0.4834250000000  0.5114670000000 1.0
C      1  0.5452300000000  0.4946470000000  0.5956120000000 1.0
C      1  0.5968610000000  0.4821930000000  0.4662380000000 1.0
C      1  0.4717480000000  0.5524580000000  0.3911750000000 1.0
C      1  0.6611600000000  0.4635930000000  0.5309980000000 1.0
C      1  0.3982310000000  0.5449000000000  0.4664970000000 1.0
C      1  0.5435950000000  0.4837770000000  0.5058890000000 1.0
C      1  0.5897820000000  0.4423730000000  0.4966280000000 1.0
C      1  0.4398070000000  0.4117430000000  0.4930810000000 1.0
C      1  0.5950840000000  0.5325670000000  0.4582670000000 1.0
C      1  0.3874230000000  0.4919350000000  0.5024720000000 1.0
C      1  0.4563790000000  0.4591820000000  0.5948400000000 1.0
C      1  0.4847350000000  0.5117660000000  0.4370020000000 1.0
C      1  0.5385040000000  0.4091920000000  0.4326060000000 1.0
C      1  0.5230220000000  0.4440770000000  0.4705940000000 1.0
C      1  0.4996510000000  0.4360360000000  0.4216740000000 1.0
C      1  0.5667180000000  0.5402380000000  0.4985030000000 1.0
C      1  0.3826240000000  0.4940610000000  0.4762350000000 1.0
C      1  0.4424720000000  0.4134620000000  0.4251810000000 1.0
C      1  0.6297970000000  0.5049930000000  0.4861110000000 1.0
C      1  0.4375140000000  0.4834260000000  0.4038340000000 1.0
C      1  0.4426200000000  0.5269900000000  0.4577110000000 1.0
C      1  0.4563540000000  0.5284810000000  0.3914590000000 1.0
C      1  0.4822030000000  0.4899420000000  0.3828920000000 1.0
C      1  0.4987090000000  0.4982090000000  0.5844700000000 1.0
C      1  0.4616380000000  0.4040550000000  0.4752100000000 1.0
C      1  0.4636160000000  0.4506100000000  0.5367940000000 1.0
C      1  0.4039060000000  0.6297910000000  0.5605940000000 1.0
C      1  0.4129910000000  0.4721820000000  0.4469340000000 1.0
C      1  0.5468360000000  0.4154110000000  0.5071200000000 1.0
C      1  0.5508860000000  0.4300320000000  0.5665090000000 1.0
C      1  0.4919970000000  0.4250590000000  0.3967400000000 1.0
C      1  0.5294160000000  0.4354340000000  0.5172110000000 1.0
C      1  0.4529590000000  0.5138940000000  0.5798050000000 1.0
C      1  0.5579910000000  0.4770180000000  0.5527490000000 1.0
C      1  0.5290020000000  0.4736950000000  0.6076490000000 1.0
C      1  0.5073730000000  0.5521080000000  0.4572150000000 1.0
C      1  0.4432870000000  0.5513040000000  0.5290610000000 1.0
C      1  0.5169620000000  0.4795540000000  0.5152280000000 1.0
C      1  0.4901820000000  0.3970910000000  0.5346000000000 1.0
C      1  0.4606490000000  0.4783040000000  0.4595440000000 1.0
C      1  0.4836970000000  0.5616480000000  0.4731890000000 1.0
C      1  0.5353070000000  0.5221240000000  0.5521740000000 1.0
C      1  0.4939450000000  0.5430380000000  0.5306010000000 1.0
C      1  0.5362100000000  0.4550590000000  0.4486920000000 1.0
C      1  0.3874850000000  0.5578010000000  0.4873010000000 1.0
C      1  0.4681870000000  0.5803780000000  0.5745030000000 1.0
C      1  0.4881570000000  0.5780690000000  0.4966050000000 1.0
C      1  0.4432510000000  0.4579950000000  0.5209020000000 1.0
C      1  0.4217160000000  0.4165020000000  0.5411430000000 1.0
C      1  0.4783990000000  0.4563010000000  0.4643790000000 1.0
C      1  0.6377610000000  0.4765060000000  0.5256750000000 1.0
C      1  0.6218250000000  0.4885440000000  0.5459310000000 1.0
C      1  0.5026800000000  0.3829380000000  0.4604140000000 1.0
C      1  0.5004090000000  0.5491850000000  0.5953910000000 1.0
C      1  0.5343870000000  0.5907130000000  0.4017810000000 1.0
C      1  0.5819520000000  0.5515350000000  0.4760990000000 1.0
C      1  0.5299660000000  0.4137900000000  0.5619350000000 1.0
C      1  0.4660230000000  0.5722280000000  0.3731610000000 1.0
C      1  0.5467690000000  0.5484990000000  0.5461840000000 1.0
C      1  0.4236320000000  0.5594010000000  0.5479520000000 1.0
C      1  0.6274890000000  0.4794060000000  0.4997730000000 1.0
C      1  0.5079180000000  0.4962920000000  0.3787860000000 1.0
C      1  0.5700310000000  0.5442420000000  0.5282050000000 1.0
C      1  0.4392660000000  0.4055380000000  0.5215610000000 1.0
C      1  0.4746960000000  0.6715100000000  0.5093110000000 1.0
C      1  0.4260460000000  0.6286330000000  0.5468950000000 1.0
C      1  0.5921200000000  0.5347110000000  0.5454150000000 1.0
C      1  0.5712340000000  0.4210600000000  0.4925680000000 1.0
C      1  0.4503250000000  0.6273670000000  0.5331740000000 1.0
C      1  0.4460840000000  0.5617150000000  0.5026940000000 1.0
C      1  0.6099930000000  0.5136130000000  0.5401800000000 1.0
C      1  0.5669840000000  0.4531230000000  0.5656250000000 1.0
C      1  0.5299480000000  0.5701330000000  0.5584280000000 1.0
C      1  0.4621700000000  0.5869900000000  0.5063620000000 1.0
C      1  0.4740670000000  0.4064080000000  0.3891220000000 1.0
END
