TITL C-627110-360-1517 -7.40761165931451e-07 125000 -424.169651763565 0 0 70 (C1) n - 1
REM
REM in /home/nfs/bkarasulu/CARBON/AIRSS/Generating-Clusters/LCBOP/Only-C1/SD-CG/FIRE-CG
REM
REM
REM
REM
REM
REM ./C.cell (11c1c37f851c82e70ff6c80c92926a4b)
REM AIRSS Version 0.9.1 bugfix July 2018 build 013d7b7c2542+ Fri, 06 Jul 2018 19:26:36 +0100
REM compiler GCC version 9.2.1 20190827 (Red Hat 9.2.1-1)
REM options -cpp -mtune=generic -march=x86-64 -g -O0 -fpre-include=/usr/include/finclude/math-vector-fortran.h
REM seed -479274441 -664139561 1693174064 -786392367 1679544458 675265411 -1103692936 708674325 -1745784516 -1772754500 1365519113 -2134960797 -1660496287 101080646 -541372301 1760379948 -170123002 -1708802785 56787351 -87434523 704782490 -1732138240 438039641 2084037089 -832808424 1775848426 -1118027330 1648616275 2139439159 1692492069 1024483034 667903837 -123950290
REM
CELL 1.54180   50.00000   50.00000   50.00000   90.00000   90.00000   90.00000
LATT -1
SFAC C  
C      1  0.4729170000000  0.5351500000000  0.5659000000000 1.0
C      1  0.4118000000000  0.5123040000000  0.5052700000000 1.0
C      1  0.4702570000000  0.6117190000000  0.4716570000000 1.0
C      1  0.5542060000000  0.6028690000000  0.5971190000000 1.0
C      1  0.4640210000000  0.4132480000000  0.5124640000000 1.0
C      1  0.5250610000000  0.5171360000000  0.4864380000000 1.0
C      1  0.4654710000000  0.5664430000000  0.4553030000000 1.0
C      1  0.4550300000000  0.4453750000000  0.4410230000000 1.0
C      1  0.4335030000000  0.5310190000000  0.4610920000000 1.0
C      1  0.5950100000000  0.5280380000000  0.5484940000000 1.0
C      1  0.4328620000000  0.4726900000000  0.5267720000000 1.0
C      1  0.5562840000000  0.4701260000000  0.4593800000000 1.0
C      1  0.4122420000000  0.4916520000000  0.5229920000000 1.0
C      1  0.4588820000000  0.5396000000000  0.4497860000000 1.0
C      1  0.4825920000000  0.5095730000000  0.5578280000000 1.0
C      1  0.5289220000000  0.5220230000000  0.4238090000000 1.0
C      1  0.4583550000000  0.5032570000000  0.4937050000000 1.0
C      1  0.5198690000000  0.4893650000000  0.4900500000000 1.0
C      1  0.5067210000000  0.5678230000000  0.5549510000000 1.0
C      1  0.4819770000000  0.4665210000000  0.5231610000000 1.0
C      1  0.5739130000000  0.4852710000000  0.5588380000000 1.0
C      1  0.4720290000000  0.5535490000000  0.5203080000000 1.0
C      1  0.5309080000000  0.4719650000000  0.5347580000000 1.0
C      1  0.4588740000000  0.4859600000000  0.4658750000000 1.0
C      1  0.4104310000000  0.5340760000000  0.4466040000000 1.0
C      1  0.4889360000000  0.4120110000000  0.4991500000000 1.0
C      1  0.5372290000000  0.4720540000000  0.5061870000000 1.0
C      1  0.4334100000000  0.4442630000000  0.4823000000000 1.0
C      1  0.4678670000000  0.5849500000000  0.4762960000000 1.0
C      1  0.5439620000000  0.5845690000000  0.5816480000000 1.0
C      1  0.5157500000000  0.5339880000000  0.4665400000000 1.0
C      1  0.5651060000000  0.4966560000000  0.4530920000000 1.0
C      1  0.5806860000000  0.5119250000000  0.4708190000000 1.0
C      1  0.5203050000000  0.5220270000000  0.5315030000000 1.0
C      1  0.5004980000000  0.4735620000000  0.4777700000000 1.0
C      1  0.4829560000000  0.4473440000000  0.4416120000000 1.0
C      1  0.5466920000000  0.4890750000000  0.5525560000000 1.0
C      1  0.5405170000000  0.4288530000000  0.4479980000000 1.0
C      1  0.5422700000000  0.4558190000000  0.4373490000000 1.0
C      1  0.4944580000000  0.4475330000000  0.4681480000000 1.0
C      1  0.5802530000000  0.5290600000000  0.4914140000000 1.0
C      1  0.5631680000000  0.5371440000000  0.5122500000000 1.0
C      1  0.5492990000000  0.4552100000000  0.4854450000000 1.0
C      1  0.4809750000000  0.5570800000000  0.5484140000000 1.0
C      1  0.5365570000000  0.5161950000000  0.5542370000000 1.0
C      1  0.4582640000000  0.4803260000000  0.5149250000000 1.0
C      1  0.5207210000000  0.4691440000000  0.4239490000000 1.0
C      1  0.4749050000000  0.5255310000000  0.5111570000000 1.0
C      1  0.5068700000000  0.4262810000000  0.4827300000000 1.0
C      1  0.5719950000000  0.5420110000000  0.5394590000000 1.0
C      1  0.5334540000000  0.5647790000000  0.5649420000000 1.0
C      1  0.5071390000000  0.5297980000000  0.4402220000000 1.0
C      1  0.4436510000000  0.4607420000000  0.4622000000000 1.0
C      1  0.4795700000000  0.5219420000000  0.4393230000000 1.0
C      1  0.4677090000000  0.5743810000000  0.5023040000000 1.0
C      1  0.5521750000000  0.5102050000000  0.4314400000000 1.0
C      1  0.4327560000000  0.5191000000000  0.4873400000000 1.0
C      1  0.4409230000000  0.4308910000000  0.5056890000000 1.0
C      1  0.5497480000000  0.5419830000000  0.5584360000000 1.0
C      1  0.5948950000000  0.5022510000000  0.5569180000000 1.0
C      1  0.4929710000000  0.4723290000000  0.4300730000000 1.0
C      1  0.4932210000000  0.5152070000000  0.5309000000000 1.0
C      1  0.5355790000000  0.5294530000000  0.5091590000000 1.0
C      1  0.4759780000000  0.4938170000000  0.4424430000000 1.0
C      1  0.5026610000000  0.4685110000000  0.5427800000000 1.0
C      1  0.4315150000000  0.4446080000000  0.5304700000000 1.0
C      1  0.5353010000000  0.4292890000000  0.4770510000000 1.0
C      1  0.4419530000000  0.4276460000000  0.5513700000000 1.0
C      1  0.4924450000000  0.4839780000000  0.5652010000000 1.0
C      1  0.4605710000000  0.4097310000000  0.5412180000000 1.0
END
