TITL C-627109-622-1324 -9.16158255555302e-08 125000 -372.587423361129 0 0 63 (C1) n - 1
REM
REM in /home/nfs/bkarasulu/CARBON/AIRSS/Generating-Clusters/LCBOP/Only-C1/SD-CG/FIRE-CG
REM
REM
REM
REM
REM
REM ./C.cell (11c1c37f851c82e70ff6c80c92926a4b)
REM AIRSS Version 0.9.1 bugfix July 2018 build 013d7b7c2542+ Fri, 06 Jul 2018 19:26:36 +0100
REM compiler GCC version 9.2.1 20190827 (Red Hat 9.2.1-1)
REM options -cpp -mtune=generic -march=x86-64 -g -O0 -fpre-include=/usr/include/finclude/math-vector-fortran.h
REM seed -1013445969 2135027894 -1457938227 -2094736213 1474328761 1458600772 -490591072 -1866698607 693148387 1469564781 680487574 256013518 -406484041 -46709120 857252131 -639115612 378761194 1820038765 859183747 1040484396 1829984016 -1453350683 -1790219551 -1602958607 146866171 1896417773 1037240046 1995909478 1102620819 1719456482 -243210353 1723526181 -8717718
REM
CELL 1.54180   50.00000   50.00000   50.00000   90.00000   90.00000   90.00000
LATT -1
SFAC C  
C      1  0.4440490000000  0.5247490000000  0.5258190000000 1.0
C      1  0.5312330000000  0.5682190000000  0.5412470000000 1.0
C      1  0.5367970000000  0.4732250000000  0.4364560000000 1.0
C      1  0.4758570000000  0.5785340000000  0.5303450000000 1.0
C      1  0.4976710000000  0.4516260000000  0.5039830000000 1.0
C      1  0.5460980000000  0.4601430000000  0.4625830000000 1.0
C      1  0.5063460000000  0.4935600000000  0.5239470000000 1.0
C      1  0.5746120000000  0.4546010000000  0.4707740000000 1.0
C      1  0.4771630000000  0.5208790000000  0.4353880000000 1.0
C      1  0.4537500000000  0.4777240000000  0.4546530000000 1.0
C      1  0.5331380000000  0.5065740000000  0.4882660000000 1.0
C      1  0.5245290000000  0.5333800000000  0.4413010000000 1.0
C      1  0.4950990000000  0.4796530000000  0.5020140000000 1.0
C      1  0.4851160000000  0.5018080000000  0.4857590000000 1.0
C      1  0.4956020000000  0.4847630000000  0.5709440000000 1.0
C      1  0.5407790000000  0.4823600000000  0.4817760000000 1.0
C      1  0.5133870000000  0.4854860000000  0.4248370000000 1.0
C      1  0.5800000000000  0.4855350000000  0.5133110000000 1.0
C      1  0.4852300000000  0.4415250000000  0.5275190000000 1.0
C      1  0.5164800000000  0.4417500000000  0.5651600000000 1.0
C      1  0.4604620000000  0.5178140000000  0.5735490000000 1.0
C      1  0.5585510000000  0.5496140000000  0.4761510000000 1.0
C      1  0.4920480000000  0.5735910000000  0.5066560000000 1.0
C      1  0.4480240000000  0.4706410000000  0.5122150000000 1.0
C      1  0.4371050000000  0.4968060000000  0.5197450000000 1.0
C      1  0.5412500000000  0.5660020000000  0.4924060000000 1.0
C      1  0.5203170000000  0.4699500000000  0.5667950000000 1.0
C      1  0.4691220000000  0.4731640000000  0.5602910000000 1.0
C      1  0.5081530000000  0.5361150000000  0.5706740000000 1.0
C      1  0.4816100000000  0.4193420000000  0.4753090000000 1.0
C      1  0.5043000000000  0.5196640000000  0.5281670000000 1.0
C      1  0.4911030000000  0.5136570000000  0.5802230000000 1.0
C      1  0.4753530000000  0.4481550000000  0.4188950000000 1.0
C      1  0.5506930000000  0.5422380000000  0.4490420000000 1.0
C      1  0.5007050000000  0.4289110000000  0.5473380000000 1.0
C      1  0.5060290000000  0.5135700000000  0.4285060000000 1.0
C      1  0.4593660000000  0.5156000000000  0.4847060000000 1.0
C      1  0.5446940000000  0.4795120000000  0.5552730000000 1.0
C      1  0.5282300000000  0.4371610000000  0.4692130000000 1.0
C      1  0.4496200000000  0.4910490000000  0.5718150000000 1.0
C      1  0.5777250000000  0.5337360000000  0.4897990000000 1.0
C      1  0.5843970000000  0.5122050000000  0.5043970000000 1.0
C      1  0.4638220000000  0.4589670000000  0.5351720000000 1.0
C      1  0.5851270000000  0.4648260000000  0.4940610000000 1.0
C      1  0.5044610000000  0.4334670000000  0.4836840000000 1.0
C      1  0.4723810000000  0.5556160000000  0.5461870000000 1.0
C      1  0.5087460000000  0.5400910000000  0.4648090000000 1.0
C      1  0.4550750000000  0.5040680000000  0.4429240000000 1.0
C      1  0.4956610000000  0.5392490000000  0.5450930000000 1.0
C      1  0.4741650000000  0.5578980000000  0.4880850000000 1.0
C      1  0.5300390000000  0.5551650000000  0.5663980000000 1.0
C      1  0.4597330000000  0.4348590000000  0.4365420000000 1.0
C      1  0.4825300000000  0.5480720000000  0.4602330000000 1.0
C      1  0.4514970000000  0.4596670000000  0.4780450000000 1.0
C      1  0.4523620000000  0.5356610000000  0.5514440000000 1.0
C      1  0.4939090000000  0.4672070000000  0.4150590000000 1.0
C      1  0.5216460000000  0.5709160000000  0.5129310000000 1.0
C      1  0.4570020000000  0.5378100000000  0.5024820000000 1.0
C      1  0.4163780000000  0.5299930000000  0.4617370000000 1.0
C      1  0.4594360000000  0.4338120000000  0.4653110000000 1.0
C      1  0.5089240000000  0.5184840000000  0.4824170000000 1.0
C      1  0.4406950000000  0.5183410000000  0.4630870000000 1.0
C      1  0.5646180000000  0.4812410000000  0.5370510000000 1.0
END
