TITL C-627109-622-353 8.57608649198533e-08 125000 -775.154075501536 0 0 128 (C1) n - 1
REM
REM in /home/nfs/bkarasulu/CARBON/AIRSS/Generating-Clusters/LCBOP/Only-C1/SD-CG/FIRE-CG
REM
REM
REM
REM
REM
REM ./C.cell (11c1c37f851c82e70ff6c80c92926a4b)
REM AIRSS Version 0.9.1 bugfix July 2018 build 013d7b7c2542+ Fri, 06 Jul 2018 19:26:36 +0100
REM compiler GCC version 9.2.1 20190827 (Red Hat 9.2.1-1)
REM options -cpp -mtune=generic -march=x86-64 -g -O0 -fpre-include=/usr/include/finclude/math-vector-fortran.h
REM seed 1829675000 -92572693 -1906127546 168715662 1475919358 -46803222 1095753501 845630896 -788562468 2030509419 1051535857 889455844 1389927257 2101784573 2010491737 373912357 224847560 -1319272338 -1894173405 1501576030 312064926 -1512908582 762675383 -1161962110 122502823 -26520216 -1239633009 1690342375 -83204678 -242409835 -1113382765 1611309359 -224208769
REM
CELL 1.54180   50.00000   50.00000   50.00000   90.00000   90.00000   90.00000
LATT -1
SFAC C  
C      1  0.5209160000000  0.5510290000000  0.5771610000000 1.0
C      1  0.4712000000000  0.5448180000000  0.5951800000000 1.0
C      1  0.5913040000000  0.4882000000000  0.5167250000000 1.0
C      1  0.5407170000000  0.5659920000000  0.4414390000000 1.0
C      1  0.5386620000000  0.5200300000000  0.4717840000000 1.0
C      1  0.5779290000000  0.4606680000000  0.4498890000000 1.0
C      1  0.4916410000000  0.5546680000000  0.5781340000000 1.0
C      1  0.4450590000000  0.5511150000000  0.5266160000000 1.0
C      1  0.4955150000000  0.5434480000000  0.4956630000000 1.0
C      1  0.5687390000000  0.5985320000000  0.5091410000000 1.0
C      1  0.4594740000000  0.4146670000000  0.5344180000000 1.0
C      1  0.4132050000000  0.4784040000000  0.5624260000000 1.0
C      1  0.3604920000000  0.4388190000000  0.5379760000000 1.0
C      1  0.5700030000000  0.5309830000000  0.5092700000000 1.0
C      1  0.5997270000000  0.5311230000000  0.4303030000000 1.0
C      1  0.5879820000000  0.5092980000000  0.4718010000000 1.0
C      1  0.4623840000000  0.4838230000000  0.4176010000000 1.0
C      1  0.4739520000000  0.3916860000000  0.5264840000000 1.0
C      1  0.5214260000000  0.4773700000000  0.4808260000000 1.0
C      1  0.4143020000000  0.3939310000000  0.4524420000000 1.0
C      1  0.5571760000000  0.4944130000000  0.4153020000000 1.0
C      1  0.4835560000000  0.5378410000000  0.6473520000000 1.0
C      1  0.5784670000000  0.4853700000000  0.4328750000000 1.0
C      1  0.5411930000000  0.5062750000000  0.5528880000000 1.0
C      1  0.5127540000000  0.4506480000000  0.4723350000000 1.0
C      1  0.4547330000000  0.3903740000000  0.4783050000000 1.0
C      1  0.4979900000000  0.5123290000000  0.5362980000000 1.0
C      1  0.4436290000000  0.4324680000000  0.4542830000000 1.0
C      1  0.5247850000000  0.4322890000000  0.5659060000000 1.0
C      1  0.3749000000000  0.4618680000000  0.5345190000000 1.0
C      1  0.5338390000000  0.4788220000000  0.4152470000000 1.0
C      1  0.5824190000000  0.4458340000000  0.5013930000000 1.0
C      1  0.5111930000000  0.5924330000000  0.4691660000000 1.0
C      1  0.4327870000000  0.4443530000000  0.5012710000000 1.0
C      1  0.4483780000000  0.6316980000000  0.5437100000000 1.0
C      1  0.4464300000000  0.5308640000000  0.4297800000000 1.0
C      1  0.5841980000000  0.5142080000000  0.5255800000000 1.0
C      1  0.4406030000000  0.4721570000000  0.5684450000000 1.0
C      1  0.5210160000000  0.5978420000000  0.5217020000000 1.0
C      1  0.5655440000000  0.4361100000000  0.4424640000000 1.0
C      1  0.5557870000000  0.5486220000000  0.4232810000000 1.0
C      1  0.4211380000000  0.4434860000000  0.5276200000000 1.0
C      1  0.4875090000000  0.4894610000000  0.4312230000000 1.0
C      1  0.4522640000000  0.6150920000000  0.5239970000000 1.0
C      1  0.4025400000000  0.4620240000000  0.5407570000000 1.0
C      1  0.4575510000000  0.5974330000000  0.5049400000000 1.0
C      1  0.5929370000000  0.5075970000000  0.4442390000000 1.0
C      1  0.4558750000000  0.4579090000000  0.4082130000000 1.0
C      1  0.5721710000000  0.4231790000000  0.4179160000000 1.0
C      1  0.4889590000000  0.5352990000000  0.5220540000000 1.0
C      1  0.4808790000000  0.5103790000000  0.4489640000000 1.0
C      1  0.5667440000000  0.5910690000000  0.4821340000000 1.0
C      1  0.4450100000000  0.5378890000000  0.5864400000000 1.0
C      1  0.5269590000000  0.4958480000000  0.4604820000000 1.0
C      1  0.5705280000000  0.4194880000000  0.5750730000000 1.0
C      1  0.5240310000000  0.5020690000000  0.5298720000000 1.0
C      1  0.5125860000000  0.5717700000000  0.4488610000000 1.0
C      1  0.4771640000000  0.5414940000000  0.6223540000000 1.0
C      1  0.4858790000000  0.4417830000000  0.4711480000000 1.0
C      1  0.5690550000000  0.3965820000000  0.4130700000000 1.0
C      1  0.5154180000000  0.4861930000000  0.4348840000000 1.0
C      1  0.4401690000000  0.5024680000000  0.4243160000000 1.0
C      1  0.4510720000000  0.4914300000000  0.5268700000000 1.0
C      1  0.5347690000000  0.5273410000000  0.5708510000000 1.0
C      1  0.4736810000000  0.5561120000000  0.4779020000000 1.0
C      1  0.4581510000000  0.4901740000000  0.5543850000000 1.0
C      1  0.5654520000000  0.5234870000000  0.4819920000000 1.0
C      1  0.4693570000000  0.4764720000000  0.5108780000000 1.0
C      1  0.4069320000000  0.5045990000000  0.5714090000000 1.0
C      1  0.5878410000000  0.4613450000000  0.4771210000000 1.0
C      1  0.5305580000000  0.4330000000000  0.5089760000000 1.0
C      1  0.5103410000000  0.5973540000000  0.4955990000000 1.0
C      1  0.4608170000000  0.5835370000000  0.4809130000000 1.0
C      1  0.5467500000000  0.6106770000000  0.5228120000000 1.0
C      1  0.4675050000000  0.3826910000000  0.5006380000000 1.0
C      1  0.5111240000000  0.5845390000000  0.5451710000000 1.0
C      1  0.5577080000000  0.3807770000000  0.4321220000000 1.0
C      1  0.5810050000000  0.4617980000000  0.5259160000000 1.0
C      1  0.5158000000000  0.4558480000000  0.5189920000000 1.0
C      1  0.4785250000000  0.4356780000000  0.5378860000000 1.0
C      1  0.5308300000000  0.5755980000000  0.5651870000000 1.0
C      1  0.5489680000000  0.3919980000000  0.4553230000000 1.0
C      1  0.4303530000000  0.5057970000000  0.5125170000000 1.0
C      1  0.5955160000000  0.4871720000000  0.4877780000000 1.0
C      1  0.5954030000000  0.5765550000000  0.4122770000000 1.0
C      1  0.4506190000000  0.5342630000000  0.4793720000000 1.0
C      1  0.5321760000000  0.4308370000000  0.4803800000000 1.0
C      1  0.5578250000000  0.4851620000000  0.5602780000000 1.0
C      1  0.5495780000000  0.6349850000000  0.5351150000000 1.0
C      1  0.4862910000000  0.5698200000000  0.5533330000000 1.0
C      1  0.5531030000000  0.5885260000000  0.5739230000000 1.0
C      1  0.4855670000000  0.4973270000000  0.5585000000000 1.0
C      1  0.4485330000000  0.4447120000000  0.5692660000000 1.0
C      1  0.4452740000000  0.4404810000000  0.4274690000000 1.0
C      1  0.5925470000000  0.5936680000000  0.5229630000000 1.0
C      1  0.5020210000000  0.4796310000000  0.5745680000000 1.0
C      1  0.4597340000000  0.4504880000000  0.3822720000000 1.0
C      1  0.4879560000000  0.5565920000000  0.4487350000000 1.0
C      1  0.4422450000000  0.6076310000000  0.4359880000000 1.0
C      1  0.5584140000000  0.5801820000000  0.4592970000000 1.0
C      1  0.6143940000000  0.5876950000000  0.5358540000000 1.0
C      1  0.4991310000000  0.3903040000000  0.5405820000000 1.0
C      1  0.4188660000000  0.4922360000000  0.4407540000000 1.0
C      1  0.5508290000000  0.5225360000000  0.4131660000000 1.0
C      1  0.4131890000000  0.4940800000000  0.4928030000000 1.0
C      1  0.5532850000000  0.4374440000000  0.5632500000000 1.0
C      1  0.4337040000000  0.5402160000000  0.4543390000000 1.0
C      1  0.4874220000000  0.4558060000000  0.5212560000000 1.0
C      1  0.4375000000000  0.4053450000000  0.4615690000000 1.0
C      1  0.4374260000000  0.5328030000000  0.5063380000000 1.0
C      1  0.4717790000000  0.5540900000000  0.5349900000000 1.0
C      1  0.4650540000000  0.5060220000000  0.4721400000000 1.0
C      1  0.5844550000000  0.5535540000000  0.4219420000000 1.0
C      1  0.4098660000000  0.4901960000000  0.4662070000000 1.0
C      1  0.4561210000000  0.4501790000000  0.4754260000000 1.0
C      1  0.4775250000000  0.4413150000000  0.5663960000000 1.0
C      1  0.3627570000000  0.4846480000000  0.5253840000000 1.0
C      1  0.5155160000000  0.4064400000000  0.5554600000000 1.0
C      1  0.5199010000000  0.5369820000000  0.4840160000000 1.0
C      1  0.4753500000000  0.5351520000000  0.4352280000000 1.0
C      1  0.5650220000000  0.4600460000000  0.5497120000000 1.0
C      1  0.5032320000000  0.4509600000000  0.5742180000000 1.0
C      1  0.5494340000000  0.4199490000000  0.4611050000000 1.0
C      1  0.4507900000000  0.5957170000000  0.4575330000000 1.0
C      1  0.5248480000000  0.4814140000000  0.5095770000000 1.0
C      1  0.4364410000000  0.4277630000000  0.5467240000000 1.0
C      1  0.4624430000000  0.4795420000000  0.4828900000000 1.0
C      1  0.4220000000000  0.5253490000000  0.5802330000000 1.0
END
