TITL C-627113-6568-1144 -569.389952544641 125000 -745.086908038784 0 0 123 (C1) n - 1
REM
REM in /home/nfs/bkarasulu/CARBON/AIRSS/Generating-Clusters/LCBOP/Only-C1/SD-CG/FIRE-CG
REM
REM
REM
REM
REM
REM ./C.cell (11c1c37f851c82e70ff6c80c92926a4b)
REM AIRSS Version 0.9.1 bugfix July 2018 build 013d7b7c2542+ Fri, 06 Jul 2018 19:26:36 +0100
REM compiler GCC version 9.2.1 20190827 (Red Hat 9.2.1-1)
REM options -cpp -mtune=generic -march=x86-64 -g -O0 -fpre-include=/usr/include/finclude/math-vector-fortran.h
REM seed 941618873 1206339069 538168246 388360311 -1623333560 -2115125659 836470929 1292172766 -184445233 -1471439369 -647306747 2922398 1452298627 1188431262 -637514099 1071121733 -1772563877 -415505563 1836866973 630711860 -1865402672 -1524797695 1950424684 1187570375 1606034765 -1456768978 2049145070 370379436 -247182446 1180126136 -1456894675 1978158334 721115856
REM
CELL 1.54180   50.00000   50.00000   50.00000   90.00000   90.00000   90.00000
LATT -1
SFAC C  
C      1  0.5327550000000  0.5461660000000  0.5098040000000 1.0
C      1  0.5286400000000  0.3898520000000  0.5323340000000 1.0
C      1  0.6014120000000  0.4647200000000  0.5253780000000 1.0
C      1  0.3677630000000  0.5098630000000  0.4162300000000 1.0
C      1  0.4496560000000  0.4713470000000  0.4765310000000 1.0
C      1  0.5248420000000  0.5115640000000  0.4171770000000 1.0
C      1  0.5072480000000  0.3970270000000  0.4788510000000 1.0
C      1  0.3988140000000  0.4568060000000  0.5201010000000 1.0
C      1  0.5098570000000  0.4451090000000  0.4862630000000 1.0
C      1  0.5380060000000  0.4449310000000  0.4900960000000 1.0
C      1  0.4798560000000  0.5108890000000  0.5853880000000 1.0
C      1  0.3869670000000  0.4670380000000  0.4983500000000 1.0
C      1  0.4703700000000  0.5589930000000  0.5158460000000 1.0
C      1  0.5524340000000  0.5327360000000  0.5263500000000 1.0
C      1  0.5618190000000  0.4852670000000  0.5479920000000 1.0
C      1  0.5212490000000  0.5381080000000  0.5781340000000 1.0
C      1  0.5548790000000  0.5437580000000  0.4414940000000 1.0
C      1  0.4681350000000  0.5065270000000  0.4187720000000 1.0
C      1  0.5410020000000  0.4405260000000  0.4326680000000 1.0
C      1  0.5967120000000  0.5078010000000  0.5007300000000 1.0
C      1  0.5743010000000  0.4739230000000  0.4536420000000 1.0
C      1  0.5836540000000  0.4585220000000  0.4777670000000 1.0
C      1  0.5409640000000  0.4580420000000  0.5167520000000 1.0
C      1  0.5868530000000  0.5613450000000  0.5444320000000 1.0
C      1  0.4325110000000  0.4891410000000  0.5338130000000 1.0
C      1  0.4231470000000  0.5166110000000  0.5305740000000 1.0
C      1  0.3332570000000  0.4931120000000  0.3802720000000 1.0
C      1  0.4285430000000  0.5675890000000  0.4485920000000 1.0
C      1  0.5005080000000  0.5051230000000  0.5164340000000 1.0
C      1  0.4971330000000  0.4355390000000  0.5104390000000 1.0
C      1  0.4559730000000  0.4483270000000  0.5680040000000 1.0
C      1  0.4939940000000  0.5991180000000  0.5286000000000 1.0
C      1  0.6050440000000  0.5195000000000  0.5285050000000 1.0
C      1  0.4965510000000  0.5532790000000  0.4728960000000 1.0
C      1  0.5444810000000  0.4854840000000  0.5700480000000 1.0
C      1  0.5141940000000  0.4481340000000  0.4223950000000 1.0
C      1  0.4982060000000  0.5804280000000  0.4132590000000 1.0
C      1  0.5612870000000  0.5501090000000  0.5483230000000 1.0
C      1  0.4062370000000  0.5231860000000  0.4527040000000 1.0
C      1  0.4517720000000  0.4979870000000  0.4777860000000 1.0
C      1  0.5562570000000  0.5013880000000  0.5917540000000 1.0
C      1  0.4872700000000  0.4034970000000  0.5690110000000 1.0
C      1  0.5178210000000  0.5379760000000  0.4870340000000 1.0
C      1  0.4394700000000  0.5378760000000  0.5447790000000 1.0
C      1  0.4971170000000  0.4068020000000  0.5035010000000 1.0
C      1  0.5056400000000  0.5119300000000  0.4898760000000 1.0
C      1  0.3857680000000  0.5171230000000  0.4342480000000 1.0
C      1  0.4534360000000  0.4279010000000  0.5001710000000 1.0
C      1  0.4967090000000  0.5031730000000  0.4251790000000 1.0
C      1  0.5423040000000  0.5930960000000  0.4870530000000 1.0
C      1  0.5439440000000  0.5533250000000  0.5708190000000 1.0
C      1  0.6171780000000  0.4427690000000  0.5289990000000 1.0
C      1  0.5657810000000  0.4360300000000  0.4861590000000 1.0
C      1  0.4577760000000  0.5234220000000  0.4836790000000 1.0
C      1  0.3502660000000  0.5015760000000  0.3981240000000 1.0
C      1  0.4103150000000  0.5229280000000  0.5054910000000 1.0
C      1  0.5106160000000  0.5243210000000  0.6012020000000 1.0
C      1  0.5001710000000  0.3913670000000  0.5265470000000 1.0
C      1  0.5044210000000  0.4234880000000  0.5806390000000 1.0
C      1  0.5414720000000  0.4149340000000  0.4442880000000 1.0
C      1  0.5194400000000  0.5625890000000  0.4124220000000 1.0
C      1  0.5485160000000  0.4106620000000  0.5275420000000 1.0
C      1  0.5257450000000  0.3991320000000  0.4594360000000 1.0
C      1  0.3884390000000  0.4881620000000  0.4819370000000 1.0
C      1  0.4889550000000  0.4848610000000  0.5742050000000 1.0
C      1  0.4615780000000  0.4406120000000  0.5948440000000 1.0
C      1  0.4110240000000  0.5763210000000  0.4693130000000 1.0
C      1  0.4596280000000  0.4886210000000  0.5297350000000 1.0
C      1  0.5029470000000  0.5810880000000  0.4676370000000 1.0
C      1  0.5142600000000  0.5193520000000  0.5582260000000 1.0
C      1  0.4510360000000  0.5862860000000  0.4429960000000 1.0
C      1  0.4622530000000  0.6039210000000  0.4929690000000 1.0
C      1  0.5213090000000  0.4665910000000  0.4010780000000 1.0
C      1  0.5066840000000  0.4806320000000  0.5287020000000 1.0
C      1  0.4916340000000  0.5412790000000  0.4470800000000 1.0
C      1  0.5401910000000  0.4369690000000  0.5387660000000 1.0
C      1  0.5453740000000  0.4854250000000  0.5075350000000 1.0
C      1  0.4923100000000  0.4561360000000  0.5320770000000 1.0
C      1  0.5025450000000  0.5267750000000  0.5348760000000 1.0
C      1  0.4904890000000  0.6087160000000  0.5021150000000 1.0
C      1  0.5674520000000  0.4137830000000  0.5054080000000 1.0
C      1  0.5258490000000  0.4342220000000  0.5642060000000 1.0
C      1  0.5406980000000  0.4861360000000  0.4131020000000 1.0
C      1  0.5656740000000  0.4987160000000  0.4658760000000 1.0
C      1  0.6002030000000  0.5050640000000  0.5550010000000 1.0
C      1  0.4722850000000  0.5469080000000  0.4902990000000 1.0
C      1  0.4716460000000  0.5487260000000  0.4294380000000 1.0
C      1  0.5839520000000  0.5106410000000  0.5812050000000 1.0
C      1  0.5966530000000  0.4765870000000  0.4991610000000 1.0
C      1  0.4968890000000  0.4581430000000  0.4429880000000 1.0
C      1  0.4018270000000  0.5132120000000  0.4798450000000 1.0
C      1  0.5894130000000  0.4789660000000  0.5467800000000 1.0
C      1  0.4919990000000  0.5714110000000  0.5295070000000 1.0
C      1  0.5155200000000  0.4941630000000  0.4706610000000 1.0
C      1  0.5137290000000  0.6003490000000  0.4853150000000 1.0
C      1  0.5117330000000  0.5527040000000  0.5282220000000 1.0
C      1  0.4880520000000  0.4355260000000  0.6011300000000 1.0
C      1  0.5603480000000  0.5728910000000  0.4803820000000 1.0
C      1  0.5163260000000  0.4902400000000  0.5619400000000 1.0
C      1  0.5011570000000  0.4859530000000  0.4478550000000 1.0
C      1  0.5423060000000  0.4910700000000  0.4797900000000 1.0
C      1  0.5341500000000  0.5391520000000  0.4219570000000 1.0
C      1  0.4362970000000  0.5863920000000  0.5113800000000 1.0
C      1  0.4529950000000  0.4205720000000  0.5286010000000 1.0
C      1  0.4779070000000  0.3998950000000  0.5429910000000 1.0
C      1  0.6067160000000  0.5477840000000  0.5318970000000 1.0
C      1  0.4782680000000  0.4626480000000  0.5578820000000 1.0
C      1  0.4514690000000  0.5291170000000  0.4268660000000 1.0
C      1  0.4447760000000  0.5628330000000  0.5275420000000 1.0
C      1  0.4216310000000  0.4619910000000  0.5357310000000 1.0
C      1  0.5538990000000  0.5037260000000  0.5269840000000 1.0
C      1  0.4621130000000  0.4460010000000  0.4788180000000 1.0
C      1  0.4280980000000  0.5386810000000  0.4417100000000 1.0
C      1  0.5350390000000  0.5102180000000  0.6104320000000 1.0
C      1  0.4585990000000  0.5273590000000  0.5686820000000 1.0
C      1  0.5569930000000  0.4663640000000  0.4315950000000 1.0
C      1  0.4889020000000  0.4455180000000  0.4667440000000 1.0
C      1  0.4715290000000  0.5767550000000  0.4244420000000 1.0
C      1  0.5678070000000  0.5473040000000  0.4676550000000 1.0
C      1  0.5799370000000  0.5213380000000  0.4782330000000 1.0
C      1  0.4392710000000  0.4403950000000  0.5461210000000 1.0
C      1  0.4136430000000  0.5842640000000  0.4949600000000 1.0
C      1  0.4571360000000  0.6037030000000  0.4648940000000 1.0
END
