TITL C-627106-156-1937 0.00161985997138749 125000 -824.452179249663 0 0 136 (C1) n - 1
REM
REM in /home/nfs/bkarasulu/CARBON/AIRSS/Generating-Clusters/LCBOP/Only-C1/SD-CG/FIRE-CG
REM
REM
REM
REM
REM
REM ./C.cell (11c1c37f851c82e70ff6c80c92926a4b)
REM AIRSS Version 0.9.1 bugfix July 2018 build 013d7b7c2542+ Fri, 06 Jul 2018 19:26:36 +0100
REM compiler GCC version 9.2.1 20190827 (Red Hat 9.2.1-1)
REM options -cpp -mtune=generic -march=x86-64 -g -O0 -fpre-include=/usr/include/finclude/math-vector-fortran.h
REM seed 980322228 688435389 -1219592348 -1437085290 1136183555 -1545696694 1906461601 555782698 -1968002978 -1444472233 -778597198 -1168737219 22096340 -689296932 2037456659 2056678407 13098685 586766084 -17194123 1724760376 -1416312015 -1513005774 -1590590048 -1948597915 337877124 -1866772312 -1722457571 1723022337 110126922 1789132816 -2054041796 -2050072618 -961365719
REM
CELL 1.54180   50.00000   50.00000   50.00000   90.00000   90.00000   90.00000
LATT -1
SFAC C  
C      1  0.5468120000000  0.5187850000000  0.5128830000000 1.0
C      1  0.4665590000000  0.4699520000000  0.3980290000000 1.0
C      1  0.6057150000000  0.4955500000000  0.5012420000000 1.0
C      1  0.4789260000000  0.6137120000000  0.5945220000000 1.0
C      1  0.4747470000000  0.6319790000000  0.5483310000000 1.0
C      1  0.3905350000000  0.4789480000000  0.5242220000000 1.0
C      1  0.4603040000000  0.4908150000000  0.5760520000000 1.0
C      1  0.5142370000000  0.5426450000000  0.4182500000000 1.0
C      1  0.5192340000000  0.4692350000000  0.5150450000000 1.0
C      1  0.4500320000000  0.5984120000000  0.4853440000000 1.0
C      1  0.4478020000000  0.4695960000000  0.4194410000000 1.0
C      1  0.4644870000000  0.4542600000000  0.5016990000000 1.0
C      1  0.4866240000000  0.5793950000000  0.6293220000000 1.0
C      1  0.4037690000000  0.4390170000000  0.5557760000000 1.0
C      1  0.4981840000000  0.5253480000000  0.4637500000000 1.0
C      1  0.4588520000000  0.5786820000000  0.5562910000000 1.0
C      1  0.4993620000000  0.5260520000000  0.4353980000000 1.0
C      1  0.4399500000000  0.5749920000000  0.3971290000000 1.0
C      1  0.4210320000000  0.4952460000000  0.4886710000000 1.0
C      1  0.4611850000000  0.5257840000000  0.5161720000000 1.0
C      1  0.4826040000000  0.3791000000000  0.5384350000000 1.0
C      1  0.5022000000000  0.5014510000000  0.4806860000000 1.0
C      1  0.4835890000000  0.4844710000000  0.5923410000000 1.0
C      1  0.6084260000000  0.5565370000000  0.5151880000000 1.0
C      1  0.5468910000000  0.4695630000000  0.5112910000000 1.0
C      1  0.5573390000000  0.4249930000000  0.5576720000000 1.0
C      1  0.4687970000000  0.4777920000000  0.4619240000000 1.0
C      1  0.5475180000000  0.4454410000000  0.5729040000000 1.0
C      1  0.4359940000000  0.6241510000000  0.5790100000000 1.0
C      1  0.4582060000000  0.3914750000000  0.5293780000000 1.0
C      1  0.6114360000000  0.4589220000000  0.4623030000000 1.0
C      1  0.5086290000000  0.4812620000000  0.5776020000000 1.0
C      1  0.4640280000000  0.6271210000000  0.5740080000000 1.0
C      1  0.5898730000000  0.4939470000000  0.5272980000000 1.0
C      1  0.4854750000000  0.5474800000000  0.4755510000000 1.0
C      1  0.5064960000000  0.4988410000000  0.5550930000000 1.0
C      1  0.5115180000000  0.5261240000000  0.5511620000000 1.0
C      1  0.6125670000000  0.5328790000000  0.4729050000000 1.0
C      1  0.5984550000000  0.5509100000000  0.4893380000000 1.0
C      1  0.4430770000000  0.4497600000000  0.5181140000000 1.0
C      1  0.4819520000000  0.5436360000000  0.5035030000000 1.0
C      1  0.5797780000000  0.5134800000000  0.4141880000000 1.0
C      1  0.5554370000000  0.5274330000000  0.4864540000000 1.0
C      1  0.5676810000000  0.4253660000000  0.5098770000000 1.0
C      1  0.6065570000000  0.4445020000000  0.5296800000000 1.0
C      1  0.4845000000000  0.5078250000000  0.4206490000000 1.0
C      1  0.4250190000000  0.5895840000000  0.4877890000000 1.0
C      1  0.4478920000000  0.5026230000000  0.4994940000000 1.0
C      1  0.5542060000000  0.5080390000000  0.4651600000000 1.0
C      1  0.6116370000000  0.5048840000000  0.4753330000000 1.0
C      1  0.4074600000000  0.4505530000000  0.4676560000000 1.0
C      1  0.4361840000000  0.4074200000000  0.4862610000000 1.0
C      1  0.4629260000000  0.4794400000000  0.4898840000000 1.0
C      1  0.4502130000000  0.5173240000000  0.5707330000000 1.0
C      1  0.6091200000000  0.4863690000000  0.4536570000000 1.0
C      1  0.4710410000000  0.5779480000000  0.4393580000000 1.0
C      1  0.5016980000000  0.5663410000000  0.6460980000000 1.0
C      1  0.4848940000000  0.5689450000000  0.5606920000000 1.0
C      1  0.5600990000000  0.4934590000000  0.5199250000000 1.0
C      1  0.3985620000000  0.4991360000000  0.5059950000000 1.0
C      1  0.3882680000000  0.5252570000000  0.5064040000000 1.0
C      1  0.5126920000000  0.3835810000000  0.4350400000000 1.0
C      1  0.4354480000000  0.5804760000000  0.5448270000000 1.0
C      1  0.4343440000000  0.5556300000000  0.6087390000000 1.0
C      1  0.5311080000000  0.3932810000000  0.5282220000000 1.0
C      1  0.5106860000000  0.4712750000000  0.3615550000000 1.0
C      1  0.4392840000000  0.5352070000000  0.5896420000000 1.0
C      1  0.4623110000000  0.5284450000000  0.5463700000000 1.0
C      1  0.5056450000000  0.4458960000000  0.5243700000000 1.0
C      1  0.4971230000000  0.4785100000000  0.4629400000000 1.0
C      1  0.5032190000000  0.4139200000000  0.5614870000000 1.0
C      1  0.5171870000000  0.5804480000000  0.4553690000000 1.0
C      1  0.4866450000000  0.4365430000000  0.5052280000000 1.0
C      1  0.5077600000000  0.5536010000000  0.5144400000000 1.0
C      1  0.4429290000000  0.5827880000000  0.6056710000000 1.0
C      1  0.5670420000000  0.4593230000000  0.4482070000000 1.0
C      1  0.4049350000000  0.5730250000000  0.4934040000000 1.0
C      1  0.4883170000000  0.5755140000000  0.4636560000000 1.0
C      1  0.4208480000000  0.4265410000000  0.4750920000000 1.0
C      1  0.5526390000000  0.4852940000000  0.4481830000000 1.0
C      1  0.4551600000000  0.5772350000000  0.4181790000000 1.0
C      1  0.5249530000000  0.5356030000000  0.3944960000000 1.0
C      1  0.4844900000000  0.4103630000000  0.4934430000000 1.0
C      1  0.4694110000000  0.4521160000000  0.3762570000000 1.0
C      1  0.5075100000000  0.3913350000000  0.5454790000000 1.0
C      1  0.4873430000000  0.5412580000000  0.5560840000000 1.0
C      1  0.5011580000000  0.4909390000000  0.5096500000000 1.0
C      1  0.5609300000000  0.5611600000000  0.4323260000000 1.0
C      1  0.4781400000000  0.5947790000000  0.4850080000000 1.0
C      1  0.5252060000000  0.3853990000000  0.5017040000000 1.0
C      1  0.5515580000000  0.4371540000000  0.4349310000000 1.0
C      1  0.5385720000000  0.4205030000000  0.4545470000000 1.0
C      1  0.5339860000000  0.4396660000000  0.4756130000000 1.0
C      1  0.4313590000000  0.4316670000000  0.5563370000000 1.0
C      1  0.4469340000000  0.4536680000000  0.5456690000000 1.0
C      1  0.4701430000000  0.5915880000000  0.6105470000000 1.0
C      1  0.5406140000000  0.5752030000000  0.4431350000000 1.0
C      1  0.4266130000000  0.6032250000000  0.5939680000000 1.0
C      1  0.5957720000000  0.4316790000000  0.5068140000000 1.0
C      1  0.4205940000000  0.5489600000000  0.6315730000000 1.0
C      1  0.5607790000000  0.5042190000000  0.3943980000000 1.0
C      1  0.5752650000000  0.5402870000000  0.4231920000000 1.0
C      1  0.5064650000000  0.4401660000000  0.5525200000000 1.0
C      1  0.3910480000000  0.4584580000000  0.5416970000000 1.0
C      1  0.3806150000000  0.4499120000000  0.4621050000000 1.0
C      1  0.5194450000000  0.3994430000000  0.4561520000000 1.0
C      1  0.4588130000000  0.3989260000000  0.5011500000000 1.0
C      1  0.5075100000000  0.3964160000000  0.4823870000000 1.0
C      1  0.5065170000000  0.5839050000000  0.5503490000000 1.0
C      1  0.4858800000000  0.4895410000000  0.5356540000000 1.0
C      1  0.4931320000000  0.6017880000000  0.5082890000000 1.0
C      1  0.5700560000000  0.5521370000000  0.4864290000000 1.0
C      1  0.5983270000000  0.4968630000000  0.4289290000000 1.0
C      1  0.6063040000000  0.4400930000000  0.4813270000000 1.0
C      1  0.5083170000000  0.5814990000000  0.5219940000000 1.0
C      1  0.3918180000000  0.5511090000000  0.5009380000000 1.0
C      1  0.5342680000000  0.4532950000000  0.4178580000000 1.0
C      1  0.4874190000000  0.4900450000000  0.3994140000000 1.0
C      1  0.5333550000000  0.4796970000000  0.4269810000000 1.0
C      1  0.5541180000000  0.4117060000000  0.5323300000000 1.0
C      1  0.4217150000000  0.4756280000000  0.4654500000000 1.0
C      1  0.6059400000000  0.5425470000000  0.5380540000000 1.0
C      1  0.4631140000000  0.4764440000000  0.5508310000000 1.0
C      1  0.5256120000000  0.5336680000000  0.5267130000000 1.0
C      1  0.5967930000000  0.5178790000000  0.5436670000000 1.0
C      1  0.4413340000000  0.4058300000000  0.5479710000000 1.0
C      1  0.5333560000000  0.5094580000000  0.3870010000000 1.0
C      1  0.5114230000000  0.4908100000000  0.3821920000000 1.0
C      1  0.5517280000000  0.4450450000000  0.4969670000000 1.0
C      1  0.5997550000000  0.4685870000000  0.5397670000000 1.0
C      1  0.4448730000000  0.4753070000000  0.4470540000000 1.0
C      1  0.4905740000000  0.4530800000000  0.3591610000000 1.0
C      1  0.5214260000000  0.4567160000000  0.5709080000000 1.0
C      1  0.4847070000000  0.6236230000000  0.5247120000000 1.0
C      1  0.5580170000000  0.5763450000000  0.4907770000000 1.0
C      1  0.5129820000000  0.4565400000000  0.4679150000000 1.0
END
