TITL C-627112-676-355 -4.87883052883737e-07 125000 -695.341850168449 0 0 113 (C1) n - 1
REM
REM in /home/nfs/bkarasulu/CARBON/AIRSS/Generating-Clusters/LCBOP/Only-C1/SD-CG/FIRE-CG
REM
REM
REM
REM
REM
REM ./C.cell (11c1c37f851c82e70ff6c80c92926a4b)
REM AIRSS Version 0.9.1 bugfix July 2018 build 013d7b7c2542+ Fri, 06 Jul 2018 19:26:36 +0100
REM compiler GCC version 9.2.1 20190827 (Red Hat 9.2.1-1)
REM options -cpp -mtune=generic -march=x86-64 -g -O0 -fpre-include=/usr/include/finclude/math-vector-fortran.h
REM seed -1217889470 1551312558 -368949031 415738959 1945722535 -1244860950 1755511887 -1401538038 -763904659 -1611938558 670789135 1955247637 79014111 -1443652098 275966971 -651123131 -2089108040 2133384644 1943730753 -999178778 1176670083 1579499617 631944408 -86922095 -1928945958 1086331048 -931731748 1720178665 -1382813891 -1658821829 -1767009843 -1872093743 -729594999
REM
CELL 1.54180   50.00000   50.00000   50.00000   90.00000   90.00000   90.00000
LATT -1
SFAC C  
C      1  0.4628480000000  0.4233430000000  0.4866190000000 1.0
C      1  0.5750900000000  0.5447560000000  0.4813310000000 1.0
C      1  0.4547620000000  0.6010190000000  0.5320780000000 1.0
C      1  0.4905780000000  0.5744670000000  0.5802200000000 1.0
C      1  0.5606690000000  0.5957730000000  0.4438660000000 1.0
C      1  0.3946610000000  0.4641460000000  0.4924670000000 1.0
C      1  0.5370840000000  0.4200140000000  0.5326940000000 1.0
C      1  0.5383080000000  0.4444480000000  0.4920300000000 1.0
C      1  0.5654680000000  0.4968140000000  0.4658510000000 1.0
C      1  0.4016890000000  0.4491470000000  0.5689860000000 1.0
C      1  0.5435140000000  0.4450470000000  0.5199630000000 1.0
C      1  0.5189800000000  0.3897950000000  0.4971670000000 1.0
C      1  0.4695470000000  0.5660290000000  0.5627260000000 1.0
C      1  0.5167370000000  0.5807030000000  0.5784150000000 1.0
C      1  0.5639990000000  0.4969520000000  0.4369770000000 1.0
C      1  0.4358140000000  0.5425220000000  0.5186460000000 1.0
C      1  0.4382730000000  0.5188060000000  0.5570500000000 1.0
C      1  0.5520580000000  0.4639720000000  0.5789040000000 1.0
C      1  0.5137380000000  0.5225790000000  0.4061130000000 1.0
C      1  0.4628500000000  0.4611500000000  0.4517150000000 1.0
C      1  0.5422210000000  0.4711110000000  0.5316210000000 1.0
C      1  0.5416210000000  0.5066930000000  0.4760880000000 1.0
C      1  0.4419580000000  0.4598100000000  0.4707100000000 1.0
C      1  0.4861510000000  0.5751820000000  0.4896340000000 1.0
C      1  0.5931510000000  0.5377500000000  0.5406350000000 1.0
C      1  0.5776280000000  0.4520780000000  0.4356230000000 1.0
C      1  0.4918690000000  0.5952830000000  0.4471360000000 1.0
C      1  0.4418510000000  0.5041450000000  0.4042760000000 1.0
C      1  0.5364120000000  0.5122530000000  0.5034370000000 1.0
C      1  0.5016600000000  0.4815490000000  0.5042430000000 1.0
C      1  0.4553120000000  0.5060220000000  0.4498410000000 1.0
C      1  0.5333980000000  0.5398420000000  0.5102290000000 1.0
C      1  0.4893210000000  0.4569110000000  0.5083820000000 1.0
C      1  0.6003920000000  0.5208160000000  0.5183810000000 1.0
C      1  0.4988470000000  0.5255040000000  0.4731320000000 1.0
C      1  0.4600430000000  0.5376450000000  0.5651680000000 1.0
C      1  0.5015740000000  0.5124600000000  0.5780760000000 1.0
C      1  0.5084220000000  0.4846080000000  0.4443890000000 1.0
C      1  0.4909810000000  0.5162820000000  0.3935490000000 1.0
C      1  0.4337490000000  0.5020380000000  0.4310290000000 1.0
C      1  0.5444160000000  0.5903820000000  0.5369040000000 1.0
C      1  0.5026040000000  0.5684170000000  0.4471700000000 1.0
C      1  0.3858130000000  0.4898250000000  0.5431060000000 1.0
C      1  0.5213700000000  0.4045200000000  0.4713670000000 1.0
C      1  0.5525190000000  0.5698980000000  0.4442210000000 1.0
C      1  0.4915530000000  0.5720880000000  0.5170740000000 1.0
C      1  0.5259150000000  0.4898280000000  0.5168740000000 1.0
C      1  0.4851510000000  0.5233170000000  0.5587330000000 1.0
C      1  0.4825390000000  0.5988900000000  0.4741330000000 1.0
C      1  0.4786690000000  0.4859840000000  0.4556450000000 1.0
C      1  0.4617190000000  0.4556330000000  0.5204390000000 1.0
C      1  0.5465100000000  0.5260220000000  0.5967060000000 1.0
C      1  0.4408110000000  0.4062720000000  0.4792580000000 1.0
C      1  0.4607470000000  0.5066270000000  0.4992830000000 1.0
C      1  0.4079240000000  0.4994800000000  0.4443010000000 1.0
C      1  0.3855350000000  0.4678060000000  0.5583440000000 1.0
C      1  0.4428920000000  0.4722960000000  0.5725440000000 1.0
C      1  0.3976670000000  0.4929230000000  0.4957350000000 1.0
C      1  0.5274480000000  0.4630350000000  0.4342520000000 1.0
C      1  0.4209970000000  0.5302790000000  0.4765020000000 1.0
C      1  0.4650590000000  0.5098290000000  0.3919490000000 1.0
C      1  0.5913000000000  0.4988400000000  0.4766000000000 1.0
C      1  0.4715000000000  0.5797580000000  0.5369650000000 1.0
C      1  0.3995010000000  0.4378620000000  0.4867400000000 1.0
C      1  0.4023690000000  0.5088180000000  0.4715820000000 1.0
C      1  0.5082510000000  0.5485120000000  0.5220360000000 1.0
C      1  0.4631290000000  0.5309110000000  0.5160640000000 1.0
C      1  0.5222390000000  0.5152240000000  0.5945650000000 1.0
C      1  0.4004460000000  0.5047520000000  0.5235400000000 1.0
C      1  0.5594480000000  0.5250720000000  0.4323750000000 1.0
C      1  0.5286630000000  0.5299590000000  0.4305820000000 1.0
C      1  0.4877970000000  0.4118160000000  0.5345640000000 1.0
C      1  0.5818270000000  0.5207450000000  0.5626750000000 1.0
C      1  0.4469560000000  0.4473310000000  0.4955790000000 1.0
C      1  0.4452610000000  0.4271530000000  0.5586950000000 1.0
C      1  0.4460220000000  0.5168030000000  0.4746780000000 1.0
C      1  0.4900920000000  0.4350580000000  0.4895410000000 1.0
C      1  0.5470570000000  0.4512050000000  0.6010660000000 1.0
C      1  0.5803550000000  0.5630860000000  0.5432560000000 1.0
C      1  0.5976900000000  0.4938630000000  0.5296290000000 1.0
C      1  0.5638530000000  0.5635240000000  0.5684590000000 1.0
C      1  0.5579970000000  0.4766240000000  0.5547150000000 1.0
C      1  0.4883930000000  0.5299520000000  0.5312480000000 1.0
C      1  0.5687130000000  0.5468940000000  0.4522600000000 1.0
C      1  0.5558350000000  0.4699910000000  0.4303400000000 1.0
C      1  0.4913830000000  0.4340340000000  0.4200630000000 1.0
C      1  0.5125000000000  0.4193330000000  0.5474510000000 1.0
C      1  0.5161450000000  0.4311030000000  0.4808690000000 1.0
C      1  0.5564100000000  0.5560180000000  0.5019490000000 1.0
C      1  0.4934670000000  0.3923290000000  0.5129120000000 1.0
C      1  0.4540220000000  0.4835780000000  0.5265060000000 1.0
C      1  0.4648030000000  0.4299050000000  0.5384500000000 1.0
C      1  0.5264340000000  0.4103480000000  0.4434500000000 1.0
C      1  0.5268920000000  0.5596100000000  0.4364570000000 1.0
C      1  0.5199600000000  0.5125110000000  0.4549520000000 1.0
C      1  0.6070910000000  0.4765910000000  0.4687600000000 1.0
C      1  0.4195560000000  0.5251480000000  0.5352760000000 1.0
C      1  0.5656140000000  0.5370260000000  0.5798130000000 1.0
C      1  0.5178960000000  0.4352160000000  0.4301690000000 1.0
C      1  0.5803990000000  0.4935990000000  0.5528350000000 1.0
C      1  0.4147430000000  0.4157470000000  0.4810460000000 1.0
C      1  0.4906950000000  0.6128230000000  0.4265690000000 1.0
C      1  0.4222400000000  0.5508040000000  0.4953040000000 1.0
C      1  0.5409730000000  0.5809780000000  0.5644230000000 1.0
C      1  0.4468640000000  0.4914360000000  0.5524120000000 1.0
C      1  0.5404750000000  0.3963800000000  0.5160200000000 1.0
C      1  0.5936730000000  0.5236690000000  0.4909960000000 1.0
C      1  0.4937900000000  0.5534790000000  0.4711160000000 1.0
C      1  0.5992850000000  0.4567090000000  0.4516720000000 1.0
C      1  0.4297110000000  0.4473120000000  0.5707110000000 1.0
C      1  0.4687940000000  0.4438430000000  0.4306690000000 1.0
C      1  0.4862340000000  0.4991290000000  0.4854450000000 1.0
C      1  0.5641670000000  0.5747720000000  0.5220100000000 1.0
END
