TITL C-627106-156-264 0.0843864593943645 125000 -581.837611917165 0 0 97 (C1) n - 1
REM
REM in /home/nfs/bkarasulu/CARBON/AIRSS/Generating-Clusters/LCBOP/Only-C1/SD-CG/FIRE-CG
REM
REM
REM
REM
REM
REM ./C.cell (11c1c37f851c82e70ff6c80c92926a4b)
REM AIRSS Version 0.9.1 bugfix July 2018 build 013d7b7c2542+ Fri, 06 Jul 2018 19:26:36 +0100
REM compiler GCC version 9.2.1 20190827 (Red Hat 9.2.1-1)
REM options -cpp -mtune=generic -march=x86-64 -g -O0 -fpre-include=/usr/include/finclude/math-vector-fortran.h
REM seed 857066677 -593467675 895416941 2058898817 2131540518 985792579 204493715 -1644931248 49893728 -138982044 1871091321 -1344193221 -739448561 1308551293 1947675649 5266949 -1011043761 -30254025 189203911 -1742367911 1892603249 -1843086312 801063564 2074425687 1534075356 1018300223 1488680945 294637892 1122015385 -856252912 1395079479 -816076625 408901139
REM
CELL 1.54180   50.00000   50.00000   50.00000   90.00000   90.00000   90.00000
LATT -1
SFAC C  
C      1  0.4409780000000  0.5673160000000  0.5836780000000 1.0
C      1  0.5211920000000  0.3778140000000  0.5199980000000 1.0
C      1  0.5004860000000  0.4964890000000  0.5800730000000 1.0
C      1  0.4653720000000  0.3752810000000  0.4845110000000 1.0
C      1  0.6219040000000  0.4901490000000  0.4838780000000 1.0
C      1  0.4733520000000  0.4235600000000  0.4907210000000 1.0
C      1  0.4538530000000  0.4637780000000  0.4963670000000 1.0
C      1  0.4656120000000  0.5745660000000  0.4738160000000 1.0
C      1  0.4766520000000  0.5115170000000  0.4570510000000 1.0
C      1  0.5287960000000  0.5566280000000  0.4055750000000 1.0
C      1  0.5059430000000  0.5477660000000  0.5269650000000 1.0
C      1  0.4750860000000  0.5852830000000  0.4484880000000 1.0
C      1  0.4283050000000  0.5450460000000  0.5745280000000 1.0
C      1  0.4183320000000  0.4871630000000  0.4766820000000 1.0
C      1  0.5185000000000  0.5993110000000  0.4314690000000 1.0
C      1  0.5506980000000  0.5963010000000  0.5114100000000 1.0
C      1  0.4875620000000  0.5802510000000  0.4950160000000 1.0
C      1  0.5755180000000  0.5251230000000  0.5229690000000 1.0
C      1  0.4965920000000  0.4502990000000  0.4290870000000 1.0
C      1  0.4940330000000  0.4240990000000  0.4340240000000 1.0
C      1  0.4269990000000  0.4394750000000  0.5489690000000 1.0
C      1  0.5516220000000  0.4104490000000  0.4995080000000 1.0
C      1  0.4359140000000  0.5354050000000  0.4637590000000 1.0
C      1  0.4688040000000  0.3788600000000  0.5124700000000 1.0
C      1  0.5880170000000  0.3501060000000  0.5157480000000 1.0
C      1  0.4297550000000  0.4404190000000  0.4649840000000 1.0
C      1  0.5588140000000  0.4748390000000  0.5321210000000 1.0
C      1  0.5705270000000  0.5001470000000  0.5305580000000 1.0
C      1  0.4733190000000  0.3832750000000  0.4601150000000 1.0
C      1  0.5668760000000  0.4536760000000  0.5156580000000 1.0
C      1  0.5557270000000  0.4684200000000  0.4252010000000 1.0
C      1  0.5654720000000  0.5732830000000  0.5046350000000 1.0
C      1  0.5126740000000  0.5632060000000  0.5489990000000 1.0
C      1  0.5605120000000  0.5957220000000  0.5627220000000 1.0
C      1  0.4269020000000  0.5384320000000  0.5468570000000 1.0
C      1  0.4776070000000  0.4766830000000  0.4897860000000 1.0
C      1  0.4415810000000  0.5591540000000  0.4786330000000 1.0
C      1  0.5326330000000  0.5252120000000  0.4598040000000 1.0
C      1  0.5864210000000  0.5858640000000  0.6018940000000 1.0
C      1  0.5064710000000  0.6003050000000  0.4806410000000 1.0
C      1  0.5282460000000  0.5822200000000  0.4133050000000 1.0
C      1  0.5772520000000  0.5417060000000  0.4527770000000 1.0
C      1  0.4901110000000  0.4761510000000  0.5635510000000 1.0
C      1  0.4275480000000  0.4858390000000  0.5292610000000 1.0
C      1  0.5205560000000  0.5423130000000  0.4792990000000 1.0
C      1  0.4383360000000  0.4658450000000  0.5473670000000 1.0
C      1  0.4306530000000  0.4794780000000  0.5016800000000 1.0
C      1  0.4541230000000  0.5798660000000  0.5386720000000 1.0
C      1  0.4874770000000  0.5269210000000  0.5291360000000 1.0
C      1  0.4176910000000  0.5148030000000  0.4704050000000 1.0
C      1  0.5237870000000  0.5313730000000  0.4129020000000 1.0
C      1  0.4277020000000  0.5621340000000  0.5026820000000 1.0
C      1  0.5537780000000  0.6042040000000  0.5382720000000 1.0
C      1  0.4999040000000  0.5995730000000  0.4523800000000 1.0
C      1  0.4222480000000  0.5121260000000  0.5379960000000 1.0
C      1  0.5592320000000  0.4369190000000  0.4944770000000 1.0
C      1  0.5353070000000  0.4706870000000  0.5466170000000 1.0
C      1  0.4778430000000  0.5038980000000  0.4842300000000 1.0
C      1  0.5609940000000  0.4708190000000  0.4519320000000 1.0
C      1  0.4219720000000  0.4668050000000  0.4556550000000 1.0
C      1  0.4845530000000  0.4008120000000  0.4432300000000 1.0
C      1  0.4742600000000  0.5186600000000  0.5074440000000 1.0
C      1  0.5184570000000  0.5163410000000  0.4361020000000 1.0
C      1  0.5088270000000  0.4616370000000  0.5476120000000 1.0
C      1  0.5744240000000  0.5492480000000  0.5118500000000 1.0
C      1  0.4348740000000  0.5601260000000  0.5295120000000 1.0
C      1  0.5725080000000  0.4947690000000  0.4623430000000 1.0
C      1  0.4401190000000  0.4162840000000  0.5392110000000 1.0
C      1  0.5542880000000  0.5534840000000  0.5869760000000 1.0
C      1  0.5978170000000  0.4928720000000  0.4743060000000 1.0
C      1  0.5574370000000  0.4489870000000  0.4692480000000 1.0
C      1  0.4736110000000  0.5887680000000  0.5201860000000 1.0
C      1  0.4577180000000  0.4765390000000  0.4198150000000 1.0
C      1  0.5070460000000  0.5569970000000  0.4998040000000 1.0
C      1  0.5608310000000  0.5206070000000  0.4592360000000 1.0
C      1  0.5306070000000  0.6060830000000  0.4941180000000 1.0
C      1  0.5671410000000  0.5783880000000  0.5839290000000 1.0
C      1  0.5467110000000  0.3852770000000  0.5109600000000 1.0
C      1  0.4507550000000  0.3942700000000  0.5280540000000 1.0
C      1  0.5182900000000  0.5146230000000  0.5882410000000 1.0
C      1  0.4948920000000  0.3739300000000  0.5220380000000 1.0
C      1  0.4611070000000  0.5453470000000  0.4239540000000 1.0
C      1  0.5379860000000  0.5325560000000  0.5898480000000 1.0
C      1  0.5678520000000  0.3671370000000  0.5134430000000 1.0
C      1  0.4675410000000  0.5715240000000  0.4252300000000 1.0
C      1  0.4332640000000  0.4741640000000  0.4307730000000 1.0
C      1  0.4532880000000  0.5845470000000  0.5665970000000 1.0
C      1  0.4854370000000  0.4760470000000  0.4265750000000 1.0
C      1  0.5014870000000  0.4404650000000  0.5307620000000 1.0
C      1  0.4568310000000  0.5283440000000  0.4459950000000 1.0
C      1  0.5085750000000  0.5791250000000  0.5692930000000 1.0
C      1  0.4954440000000  0.4999760000000  0.4389420000000 1.0
C      1  0.4505250000000  0.4384130000000  0.4841290000000 1.0
C      1  0.4925670000000  0.4277460000000  0.5090960000000 1.0
C      1  0.4022990000000  0.4366410000000  0.5606360000000 1.0
C      1  0.6078730000000  0.3333650000000  0.5180090000000 1.0
C      1  0.4625910000000  0.4715500000000  0.5605440000000 1.0
END
