TITL C-627109-622-707 3344.15883951099 125000 -1135.84391262814 0 0 183 (C1) n - 1
REM
REM in /home/nfs/bkarasulu/CARBON/AIRSS/Generating-Clusters/LCBOP/Only-C1/SD-CG/FIRE-CG
REM
REM
REM
REM
REM
REM ./C.cell (11c1c37f851c82e70ff6c80c92926a4b)
REM AIRSS Version 0.9.1 bugfix July 2018 build 013d7b7c2542+ Fri, 06 Jul 2018 19:26:36 +0100
REM compiler GCC version 9.2.1 20190827 (Red Hat 9.2.1-1)
REM options -cpp -mtune=generic -march=x86-64 -g -O0 -fpre-include=/usr/include/finclude/math-vector-fortran.h
REM seed -2142160460 -756637007 1720091479 908456517 1038947118 1779832811 -813482876 251460407 410348613 923364595 -1376768694 -1784041526 -699553710 1214812052 -1860038985 -1462589767 2048829650 1366223531 1331262581 -1722338083 -1149931832 -688498653 1950134163 -502961637 1136838940 -124362313 1988784525 -595904435 143851937 1789377898 744174380 1384569463 349214410
REM
CELL 1.54180   50.00000   50.00000   50.00000   90.00000   90.00000   90.00000
LATT -1
SFAC C  
C      1  0.4303040000000  0.5385930000000  0.5639240000000 1.0
C      1  0.5373510000000  0.6072510000000  0.4631490000000 1.0
C      1  0.3818860000000  0.5045060000000  0.4911410000000 1.0
C      1  0.5251260000000  0.4303310000000  0.4957870000000 1.0
C      1  0.4026060000000  0.5498910000000  0.4875400000000 1.0
C      1  0.3982160000000  0.4608490000000  0.5024820000000 1.0
C      1  0.4354670000000  0.5174390000000  0.4082410000000 1.0
C      1  0.5230320000000  0.4720760000000  0.3823570000000 1.0
C      1  0.4442670000000  0.4523460000000  0.5145800000000 1.0
C      1  0.5469520000000  0.4576990000000  0.5241660000000 1.0
C      1  0.5921300000000  0.4511270000000  0.5405230000000 1.0
C      1  0.5062450000000  0.4556050000000  0.4355770000000 1.0
C      1  0.4828660000000  0.6182110000000  0.4599680000000 1.0
C      1  0.4794560000000  0.4507780000000  0.4438430000000 1.0
C      1  0.4031060000000  0.5460400000000  0.5535260000000 1.0
C      1  0.4936560000000  0.3799800000000  0.4162630000000 1.0
C      1  0.5146740000000  0.4585520000000  0.5601220000000 1.0
C      1  0.5228680000000  0.4030840000000  0.5871980000000 1.0
C      1  0.3837990000000  0.5036330000000  0.5222920000000 1.0
C      1  0.6002380000000  0.4755190000000  0.5217790000000 1.0
C      1  0.4959500000000  0.4142500000000  0.5899560000000 1.0
C      1  0.5318840000000  0.4615420000000  0.6065090000000 1.0
C      1  0.4873290000000  0.4222500000000  0.5628460000000 1.0
C      1  0.4216480000000  0.4454480000000  0.4984320000000 1.0
C      1  0.5224990000000  0.5484860000000  0.3995230000000 1.0
C      1  0.5765490000000  0.5602520000000  0.4540950000000 1.0
C      1  0.4927200000000  0.6079610000000  0.5524020000000 1.0
C      1  0.5173480000000  0.6166360000000  0.5110960000000 1.0
C      1  0.4869110000000  0.5477930000000  0.6119670000000 1.0
C      1  0.5023790000000  0.3791610000000  0.4655380000000 1.0
C      1  0.5584280000000  0.5747500000000  0.4969100000000 1.0
C      1  0.5666890000000  0.4194500000000  0.5722980000000 1.0
C      1  0.5045440000000  0.5693140000000  0.4090880000000 1.0
C      1  0.4631310000000  0.4738810000000  0.4461790000000 1.0
C      1  0.5530080000000  0.5640360000000  0.4371920000000 1.0
C      1  0.3958680000000  0.4751970000000  0.5274500000000 1.0
C      1  0.5601810000000  0.5208630000000  0.5027080000000 1.0
C      1  0.6057450000000  0.5260830000000  0.5388740000000 1.0
C      1  0.4655450000000  0.5447160000000  0.5134420000000 1.0
C      1  0.4662700000000  0.5142640000000  0.4050110000000 1.0
C      1  0.5740180000000  0.4771160000000  0.4744790000000 1.0
C      1  0.4697230000000  0.5888070000000  0.5524660000000 1.0
C      1  0.5450090000000  0.4245910000000  0.4214000000000 1.0
C      1  0.5081010000000  0.4995340000000  0.5894370000000 1.0
C      1  0.4677060000000  0.4626790000000  0.5027080000000 1.0
C      1  0.4326350000000  0.5105800000000  0.5252960000000 1.0
C      1  0.5885000000000  0.4910890000000  0.4544360000000 1.0
C      1  0.5530460000000  0.4896020000000  0.5714830000000 1.0
C      1  0.5187700000000  0.5334020000000  0.5584830000000 1.0
C      1  0.4308090000000  0.4654400000000  0.4059620000000 1.0
C      1  0.5613930000000  0.4893670000000  0.4138760000000 1.0
C      1  0.5354420000000  0.5881300000000  0.4418420000000 1.0
C      1  0.4208040000000  0.4909200000000  0.4148280000000 1.0
C      1  0.5337960000000  0.5583910000000  0.4956490000000 1.0
C      1  0.5374460000000  0.5314900000000  0.4903490000000 1.0
C      1  0.4762300000000  0.4320440000000  0.3970270000000 1.0
C      1  0.5631840000000  0.5073110000000  0.5513550000000 1.0
C      1  0.5490730000000  0.3934150000000  0.4963760000000 1.0
C      1  0.4695900000000  0.6176890000000  0.4832430000000 1.0
C      1  0.5865850000000  0.4385070000000  0.4940020000000 1.0
C      1  0.5584100000000  0.5674740000000  0.5446910000000 1.0
C      1  0.5225300000000  0.5233480000000  0.5846000000000 1.0
C      1  0.4535050000000  0.5461620000000  0.5788480000000 1.0
C      1  0.5731800000000  0.4293830000000  0.4705870000000 1.0
C      1  0.4260910000000  0.4338640000000  0.4727870000000 1.0
C      1  0.4324530000000  0.5056290000000  0.4723150000000 1.0
C      1  0.4145680000000  0.5423680000000  0.3629410000000 1.0
C      1  0.4863160000000  0.3578450000000  0.4669730000000 1.0
C      1  0.5871200000000  0.4639880000000  0.5890210000000 1.0
C      1  0.4817000000000  0.4244430000000  0.6123230000000 1.0
C      1  0.3898890000000  0.5042020000000  0.5701920000000 1.0
C      1  0.5799380000000  0.5740140000000  0.4790810000000 1.0
C      1  0.5847150000000  0.4434790000000  0.5684220000000 1.0
C      1  0.5651850000000  0.5122000000000  0.6086630000000 1.0
C      1  0.3987870000000  0.4708600000000  0.4537340000000 1.0
C      1  0.4316460000000  0.5770590000000  0.4619660000000 1.0
C      1  0.4249260000000  0.5086300000000  0.4996120000000 1.0
C      1  0.5726100000000  0.4349610000000  0.5206570000000 1.0
C      1  0.5718900000000  0.4268610000000  0.4201480000000 1.0
C      1  0.5260040000000  0.4765750000000  0.5808910000000 1.0
C      1  0.4869070000000  0.4515110000000  0.5595590000000 1.0
C      1  0.4432550000000  0.4631920000000  0.5408010000000 1.0
C      1  0.4766740000000  0.4078450000000  0.6342100000000 1.0
C      1  0.5214510000000  0.5780170000000  0.5858010000000 1.0
C      1  0.5383740000000  0.4836590000000  0.5180650000000 1.0
C      1  0.5112590000000  0.5911440000000  0.4263820000000 1.0
C      1  0.5825660000000  0.5285510000000  0.5566110000000 1.0
C      1  0.5283350000000  0.5942160000000  0.5237720000000 1.0
C      1  0.4934020000000  0.5475410000000  0.6383440000000 1.0
C      1  0.5568870000000  0.5036510000000  0.5242690000000 1.0
C      1  0.4562550000000  0.5902100000000  0.5251890000000 1.0
C      1  0.4730060000000  0.4325860000000  0.4656040000000 1.0
C      1  0.5814080000000  0.4752770000000  0.4311100000000 1.0
C      1  0.4720180000000  0.4511370000000  0.6125000000000 1.0
C      1  0.5458490000000  0.5128720000000  0.4236100000000 1.0
C      1  0.5448380000000  0.5421050000000  0.4179740000000 1.0
C      1  0.5909320000000  0.4665430000000  0.4948570000000 1.0
C      1  0.4284150000000  0.5359020000000  0.4348650000000 1.0
C      1  0.4694470000000  0.4774400000000  0.6077210000000 1.0
C      1  0.4928400000000  0.6205680000000  0.5255130000000 1.0
C      1  0.6117030000000  0.5125080000000  0.4914070000000 1.0
C      1  0.5161200000000  0.5651870000000  0.5207300000000 1.0
C      1  0.4238530000000  0.5301960000000  0.3840050000000 1.0
C      1  0.6191700000000  0.5683650000000  0.5119620000000 1.0
C      1  0.4522540000000  0.4860110000000  0.4686130000000 1.0
C      1  0.4707650000000  0.5695670000000  0.5736840000000 1.0
C      1  0.4667150000000  0.4896430000000  0.4940040000000 1.0
C      1  0.4164620000000  0.4469260000000  0.4490680000000 1.0
C      1  0.4473270000000  0.3909810000000  0.4752330000000 1.0
C      1  0.5497970000000  0.4645850000000  0.4644740000000 1.0
C      1  0.5472990000000  0.4172140000000  0.5949440000000 1.0
C      1  0.5823290000000  0.4451280000000  0.4387270000000 1.0
C      1  0.6015010000000  0.5142130000000  0.4642400000000 1.0
C      1  0.4692100000000  0.5283700000000  0.5983020000000 1.0
C      1  0.5546080000000  0.4010990000000  0.5510800000000 1.0
C      1  0.5572050000000  0.5867350000000  0.5235160000000 1.0
C      1  0.5108780000000  0.4518800000000  0.4858710000000 1.0
C      1  0.4945570000000  0.5675960000000  0.5924440000000 1.0
C      1  0.5010010000000  0.5240830000000  0.4398000000000 1.0
C      1  0.5051940000000  0.4071740000000  0.5434340000000 1.0
C      1  0.4263140000000  0.5665710000000  0.4883300000000 1.0
C      1  0.3986710000000  0.5210990000000  0.4460770000000 1.0
C      1  0.5270270000000  0.3946230000000  0.5590270000000 1.0
C      1  0.3942540000000  0.5716880000000  0.5510650000000 1.0
C      1  0.4691380000000  0.5308210000000  0.4717870000000 1.0
C      1  0.4164340000000  0.4708500000000  0.5484310000000 1.0
C      1  0.4881700000000  0.5058650000000  0.3868320000000 1.0
C      1  0.5438460000000  0.4384350000000  0.6128860000000 1.0
C      1  0.4447110000000  0.5276460000000  0.4582370000000 1.0
C      1  0.4642580000000  0.6027040000000  0.4196030000000 1.0
C      1  0.4883650000000  0.6080430000000  0.4342820000000 1.0
C      1  0.4958810000000  0.5250990000000  0.5435540000000 1.0
C      1  0.4951570000000  0.4779340000000  0.3827080000000 1.0
C      1  0.5118920000000  0.4952140000000  0.5112710000000 1.0
C      1  0.5454360000000  0.5320590000000  0.6001680000000 1.0
C      1  0.6083070000000  0.5038050000000  0.5196510000000 1.0
C      1  0.4839360000000  0.4463700000000  0.4878320000000 1.0
C      1  0.4831470000000  0.3961430000000  0.4340800000000 1.0
C      1  0.5093200000000  0.5267310000000  0.3843470000000 1.0
C      1  0.3903440000000  0.5272170000000  0.4739690000000 1.0
C      1  0.4472270000000  0.5670200000000  0.5098420000000 1.0
C      1  0.5274750000000  0.6203100000000  0.4848400000000 1.0
C      1  0.5310960000000  0.4419950000000  0.4374420000000 1.0
C      1  0.5512400000000  0.5582070000000  0.5890660000000 1.0
C      1  0.4704000000000  0.3915020000000  0.6535160000000 1.0
C      1  0.4158210000000  0.4923730000000  0.5670040000000 1.0
C      1  0.4804830000000  0.5014300000000  0.5977870000000 1.0
C      1  0.6054400000000  0.5774070000000  0.4907570000000 1.0
C      1  0.4665900000000  0.5200650000000  0.4987160000000 1.0
C      1  0.5477850000000  0.4762380000000  0.3923900000000 1.0
C      1  0.4916150000000  0.4976080000000  0.5341930000000 1.0
C      1  0.5152280000000  0.6016260000000  0.5697110000000 1.0
C      1  0.4326230000000  0.4424830000000  0.4244620000000 1.0
C      1  0.4691610000000  0.6123790000000  0.5107680000000 1.0
C      1  0.4784510000000  0.5589020000000  0.4146300000000 1.0
C      1  0.5614290000000  0.4045840000000  0.5232230000000 1.0
C      1  0.4708770000000  0.4720930000000  0.5481050000000 1.0
C      1  0.4476260000000  0.4657690000000  0.3832160000000 1.0
C      1  0.5134910000000  0.5159380000000  0.4884200000000 1.0
C      1  0.4610190000000  0.4208380000000  0.4186220000000 1.0
C      1  0.3856940000000  0.5216360000000  0.5465730000000 1.0
C      1  0.5278690000000  0.4454960000000  0.5391300000000 1.0
C      1  0.5164190000000  0.4240320000000  0.5232880000000 1.0
C      1  0.3884340000000  0.4769450000000  0.4803630000000 1.0
C      1  0.4903140000000  0.5484270000000  0.5260100000000 1.0
C      1  0.5246240000000  0.4720310000000  0.4717250000000 1.0
C      1  0.5722510000000  0.4880830000000  0.5938390000000 1.0
C      1  0.4961500000000  0.5262920000000  0.4670050000000 1.0
C      1  0.5943140000000  0.5383610000000  0.4515340000000 1.0
C      1  0.4329270000000  0.5120910000000  0.5535770000000 1.0
C      1  0.5478060000000  0.4188450000000  0.4815090000000 1.0
C      1  0.4492760000000  0.4176340000000  0.4700740000000 1.0
C      1  0.6192430000000  0.5498400000000  0.5313560000000 1.0
C      1  0.5137310000000  0.4810500000000  0.4467760000000 1.0
C      1  0.5329500000000  0.5528770000000  0.5434980000000 1.0
C      1  0.4343710000000  0.5658730000000  0.4353370000000 1.0
C      1  0.4747580000000  0.4575820000000  0.3843360000000 1.0
C      1  0.5712050000000  0.5545350000000  0.5665840000000 1.0
C      1  0.4559630000000  0.5756730000000  0.4191110000000 1.0
C      1  0.5204100000000  0.5048770000000  0.4346280000000 1.0
C      1  0.4800470000000  0.5322100000000  0.4226180000000 1.0
C      1  0.5258900000000  0.3795580000000  0.4827530000000 1.0
C      1  0.4014050000000  0.4936480000000  0.4361050000000 1.0
END
