TITL C-627113-6568-1087 -1.23166141288238e-06 125000 -558.779758359892 0 0 90 (C1) n - 1
REM
REM in /home/nfs/bkarasulu/CARBON/AIRSS/Generating-Clusters/LCBOP/Only-C1/SD-CG/FIRE-CG
REM
REM
REM
REM
REM
REM ./C.cell (11c1c37f851c82e70ff6c80c92926a4b)
REM AIRSS Version 0.9.1 bugfix July 2018 build 013d7b7c2542+ Fri, 06 Jul 2018 19:26:36 +0100
REM compiler GCC version 9.2.1 20190827 (Red Hat 9.2.1-1)
REM options -cpp -mtune=generic -march=x86-64 -g -O0 -fpre-include=/usr/include/finclude/math-vector-fortran.h
REM seed -68407259 1751613634 600391466 1157825407 -1543789401 -2116700683 1483974438 -2134527989 840122968 1269661601 1986768394 1207178311 -1928322109 -143178512 -1898519725 1875458439 506935369 -819097248 434764236 1755026851 -1561470474 2090452985 -1688957675 1762296183 549529501 914565387 -2124306947 -1450089624 -1688102352 1046770420 -715946951 -1843218412 1503542247
REM
CELL 1.54180   50.00000   50.00000   50.00000   90.00000   90.00000   90.00000
LATT -1
SFAC C  
C      1  0.4218840000000  0.4167560000000  0.5060780000000 1.0
C      1  0.4205610000000  0.3989870000000  0.4863670000000 1.0
C      1  0.4842480000000  0.4242860000000  0.4355200000000 1.0
C      1  0.5750870000000  0.4922900000000  0.4179460000000 1.0
C      1  0.4563330000000  0.4735410000000  0.5634790000000 1.0
C      1  0.4585980000000  0.4339700000000  0.5333000000000 1.0
C      1  0.5278750000000  0.5945010000000  0.5440930000000 1.0
C      1  0.5273320000000  0.5642090000000  0.5831220000000 1.0
C      1  0.4945460000000  0.5413070000000  0.4371820000000 1.0
C      1  0.5110200000000  0.5195640000000  0.4273630000000 1.0
C      1  0.5848930000000  0.4483430000000  0.4788530000000 1.0
C      1  0.4637720000000  0.5126420000000  0.5884810000000 1.0
C      1  0.5518220000000  0.4245160000000  0.5133470000000 1.0
C      1  0.5541610000000  0.5551390000000  0.5425270000000 1.0
C      1  0.4886480000000  0.4730140000000  0.4346560000000 1.0
C      1  0.4505470000000  0.5472850000000  0.5503270000000 1.0
C      1  0.4474740000000  0.3899330000000  0.4438310000000 1.0
C      1  0.4944970000000  0.5425510000000  0.5249490000000 1.0
C      1  0.5024840000000  0.4697490000000  0.4920810000000 1.0
C      1  0.5024400000000  0.5759320000000  0.5901840000000 1.0
C      1  0.4532280000000  0.4895560000000  0.5405090000000 1.0
C      1  0.4778490000000  0.5783260000000  0.5791610000000 1.0
C      1  0.5854320000000  0.4525480000000  0.4507950000000 1.0
C      1  0.5387150000000  0.5303260000000  0.4261310000000 1.0
C      1  0.5395240000000  0.5955330000000  0.4878290000000 1.0
C      1  0.4297250000000  0.3886410000000  0.4636350000000 1.0
C      1  0.4908680000000  0.4480450000000  0.4489290000000 1.0
C      1  0.4320830000000  0.5104530000000  0.4321110000000 1.0
C      1  0.4839480000000  0.4256430000000  0.5216830000000 1.0
C      1  0.4585300000000  0.5411140000000  0.4958110000000 1.0
C      1  0.4165580000000  0.5203560000000  0.4884960000000 1.0
C      1  0.5531590000000  0.4939910000000  0.4643890000000 1.0
C      1  0.5323540000000  0.4267560000000  0.5317280000000 1.0
C      1  0.4680490000000  0.4032690000000  0.4334410000000 1.0
C      1  0.4236120000000  0.5164910000000  0.5162360000000 1.0
C      1  0.5611500000000  0.5578120000000  0.4624840000000 1.0
C      1  0.5817780000000  0.4933520000000  0.5017440000000 1.0
C      1  0.4691060000000  0.5692960000000  0.5537800000000 1.0
C      1  0.5108720000000  0.5597280000000  0.4531670000000 1.0
C      1  0.5722590000000  0.5084040000000  0.4793210000000 1.0
C      1  0.5601000000000  0.5146780000000  0.4164180000000 1.0
C      1  0.5078110000000  0.5883120000000  0.5248800000000 1.0
C      1  0.5006690000000  0.5675990000000  0.4797000000000 1.0
C      1  0.5197970000000  0.4934960000000  0.5720720000000 1.0
C      1  0.5599810000000  0.5826540000000  0.4758490000000 1.0
C      1  0.4896940000000  0.5686630000000  0.5346550000000 1.0
C      1  0.5950750000000  0.4982360000000  0.5725720000000 1.0
C      1  0.4499710000000  0.5304350000000  0.5733580000000 1.0
C      1  0.4334060000000  0.4380520000000  0.5201050000000 1.0
C      1  0.4387350000000  0.4873760000000  0.4176570000000 1.0
C      1  0.5953820000000  0.4695880000000  0.4945760000000 1.0
C      1  0.4202720000000  0.4744310000000  0.4013500000000 1.0
C      1  0.4729240000000  0.4864820000000  0.5833270000000 1.0
C      1  0.5389160000000  0.4887800000000  0.5263810000000 1.0
C      1  0.5206770000000  0.5015950000000  0.5446440000000 1.0
C      1  0.5389400000000  0.5525880000000  0.4452590000000 1.0
C      1  0.5673270000000  0.4929490000000  0.5265960000000 1.0
C      1  0.4649370000000  0.4779500000000  0.4206610000000 1.0
C      1  0.4210830000000  0.4639740000000  0.5190960000000 1.0
C      1  0.4394280000000  0.5322480000000  0.4754030000000 1.0
C      1  0.5321720000000  0.4847780000000  0.4510300000000 1.0
C      1  0.3923800000000  0.5147570000000  0.4774970000000 1.0
C      1  0.4955850000000  0.4467570000000  0.4770310000000 1.0
C      1  0.4811340000000  0.4851740000000  0.5016060000000 1.0
C      1  0.4669290000000  0.5424600000000  0.4369920000000 1.0
C      1  0.4288630000000  0.4902710000000  0.5263320000000 1.0
C      1  0.5121570000000  0.5241220000000  0.4879220000000 1.0
C      1  0.4763450000000  0.4977090000000  0.5262720000000 1.0
C      1  0.4883050000000  0.4250470000000  0.4937910000000 1.0
C      1  0.5832490000000  0.4695840000000  0.4299960000000 1.0
C      1  0.5095030000000  0.4922730000000  0.4360820000000 1.0
C      1  0.5762030000000  0.5355100000000  0.4718780000000 1.0
C      1  0.5504270000000  0.5417700000000  0.5196030000000 1.0
C      1  0.5401100000000  0.5733490000000  0.5589660000000 1.0
C      1  0.5359040000000  0.5297820000000  0.5004040000000 1.0
C      1  0.4955910000000  0.4484370000000  0.5625000000000 1.0
C      1  0.4439160000000  0.5377720000000  0.5232050000000 1.0
C      1  0.5683460000000  0.4302530000000  0.4929520000000 1.0
C      1  0.5812430000000  0.4954280000000  0.5506660000000 1.0
C      1  0.4894440000000  0.5428790000000  0.4948720000000 1.0
C      1  0.5138090000000  0.5874550000000  0.4965980000000 1.0
C      1  0.5061090000000  0.4324400000000  0.5401860000000 1.0
C      1  0.4971260000000  0.5156190000000  0.5350610000000 1.0
C      1  0.5334040000000  0.5386200000000  0.5933400000000 1.0
C      1  0.4030860000000  0.4618950000000  0.3862930000000 1.0
C      1  0.4655680000000  0.4472440000000  0.5578880000000 1.0
C      1  0.5301950000000  0.5121550000000  0.5903600000000 1.0
C      1  0.4443650000000  0.5301230000000  0.4478510000000 1.0
C      1  0.5268830000000  0.4739750000000  0.5054520000000 1.0
C      1  0.4995030000000  0.4741200000000  0.5777500000000 1.0
END
