TITL C-627113-6568-1720 -4.73106972592246e-07 125000 -901.149471472217 0 0 146 (C1) n - 1
REM
REM in /home/nfs/bkarasulu/CARBON/AIRSS/Generating-Clusters/LCBOP/Only-C1/SD-CG/FIRE-CG
REM
REM
REM
REM
REM
REM ./C.cell (11c1c37f851c82e70ff6c80c92926a4b)
REM AIRSS Version 0.9.1 bugfix July 2018 build 013d7b7c2542+ Fri, 06 Jul 2018 19:26:36 +0100
REM compiler GCC version 9.2.1 20190827 (Red Hat 9.2.1-1)
REM options -cpp -mtune=generic -march=x86-64 -g -O0 -fpre-include=/usr/include/finclude/math-vector-fortran.h
REM seed -1285633325 1783910404 -1052694611 -1320537558 1588882932 -1250293695 273562668 487252690 215134261 761731273 1580466370 68763512 -331360173 -868641811 -1476367144 451116936 1613709978 1628497566 1018038206 -1766692954 104737126 1266312361 1485906122 54567886 -194317269 -1524607814 -946276226 1200461865 993503513 133758464 -1585490586 -1514192265 -532351099
REM
CELL 1.54180   50.00000   50.00000   50.00000   90.00000   90.00000   90.00000
LATT -1
SFAC C  
C      1  0.5939280000000  0.5250910000000  0.4465930000000 1.0
C      1  0.5898220000000  0.5266030000000  0.5644380000000 1.0
C      1  0.5367740000000  0.5481850000000  0.5491790000000 1.0
C      1  0.4432180000000  0.4626200000000  0.3652740000000 1.0
C      1  0.4862280000000  0.5169850000000  0.5436490000000 1.0
C      1  0.4439330000000  0.4078460000000  0.5713760000000 1.0
C      1  0.5017590000000  0.5734580000000  0.4001920000000 1.0
C      1  0.5748000000000  0.5931250000000  0.4628230000000 1.0
C      1  0.5388490000000  0.4089060000000  0.4988830000000 1.0
C      1  0.5831190000000  0.5414670000000  0.5413790000000 1.0
C      1  0.4634910000000  0.5936330000000  0.4277240000000 1.0
C      1  0.5103700000000  0.4657890000000  0.4127040000000 1.0
C      1  0.5436190000000  0.4436170000000  0.5709900000000 1.0
C      1  0.4343120000000  0.4826290000000  0.4107600000000 1.0
C      1  0.6006150000000  0.4704130000000  0.5406370000000 1.0
C      1  0.4158100000000  0.4412730000000  0.4996740000000 1.0
C      1  0.5662730000000  0.4707030000000  0.6048600000000 1.0
C      1  0.5095890000000  0.4771870000000  0.5550150000000 1.0
C      1  0.4298590000000  0.4539180000000  0.5216410000000 1.0
C      1  0.5174020000000  0.4229570000000  0.5388090000000 1.0
C      1  0.4953690000000  0.5075880000000  0.4338510000000 1.0
C      1  0.4994170000000  0.4465610000000  0.3979440000000 1.0
C      1  0.5367320000000  0.4787860000000  0.5182740000000 1.0
C      1  0.5489430000000  0.4103360000000  0.4730530000000 1.0
C      1  0.5055700000000  0.6084980000000  0.4390970000000 1.0
C      1  0.4515110000000  0.5706690000000  0.4378940000000 1.0
C      1  0.5515200000000  0.6045230000000  0.4569670000000 1.0
C      1  0.4132770000000  0.5089180000000  0.4941520000000 1.0
C      1  0.5757770000000  0.5448510000000  0.4586940000000 1.0
C      1  0.4614650000000  0.4188870000000  0.4103450000000 1.0
C      1  0.5391470000000  0.3862620000000  0.5171100000000 1.0
C      1  0.4652440000000  0.3922280000000  0.4146050000000 1.0
C      1  0.5287780000000  0.5656290000000  0.3977420000000 1.0
C      1  0.6132810000000  0.4693200000000  0.5154160000000 1.0
C      1  0.3891070000000  0.5456310000000  0.4532140000000 1.0
C      1  0.6289470000000  0.5051620000000  0.4809880000000 1.0
C      1  0.4423210000000  0.5194090000000  0.5589660000000 1.0
C      1  0.4329420000000  0.4590100000000  0.4260520000000 1.0
C      1  0.5108090000000  0.4835600000000  0.4343670000000 1.0
C      1  0.6170200000000  0.5159200000000  0.4595260000000 1.0
C      1  0.5670140000000  0.4958690000000  0.4816720000000 1.0
C      1  0.5518960000000  0.3946650000000  0.5428620000000 1.0
C      1  0.4614900000000  0.4430780000000  0.3680540000000 1.0
C      1  0.5705370000000  0.4992100000000  0.6026260000000 1.0
C      1  0.4840040000000  0.5548250000000  0.3886230000000 1.0
C      1  0.4432310000000  0.4342830000000  0.4253500000000 1.0
C      1  0.5785100000000  0.5113860000000  0.4996690000000 1.0
C      1  0.5670520000000  0.4576900000000  0.5788020000000 1.0
C      1  0.5613000000000  0.5596310000000  0.5410810000000 1.0
C      1  0.5032280000000  0.5266350000000  0.6248590000000 1.0
C      1  0.5483540000000  0.5387610000000  0.4487460000000 1.0
C      1  0.5341230000000  0.5194290000000  0.5559510000000 1.0
C      1  0.5165490000000  0.5211340000000  0.5797520000000 1.0
C      1  0.4513680000000  0.5448740000000  0.4484660000000 1.0
C      1  0.6094970000000  0.5687580000000  0.4845840000000 1.0
C      1  0.4023920000000  0.5448720000000  0.5543950000000 1.0
C      1  0.4710530000000  0.3885020000000  0.4919370000000 1.0
C      1  0.4716400000000  0.4791700000000  0.5194440000000 1.0
C      1  0.5824470000000  0.4848570000000  0.4201400000000 1.0
C      1  0.5192340000000  0.6164470000000  0.5160490000000 1.0
C      1  0.6022170000000  0.4422920000000  0.4720980000000 1.0
C      1  0.4466920000000  0.5057860000000  0.4209560000000 1.0
C      1  0.4852810000000  0.4523610000000  0.4770280000000 1.0
C      1  0.4599860000000  0.5193520000000  0.4891490000000 1.0
C      1  0.4708110000000  0.5339520000000  0.4666760000000 1.0
C      1  0.4016570000000  0.4860090000000  0.4865040000000 1.0
C      1  0.4151960000000  0.5679790000000  0.5428780000000 1.0
C      1  0.5593680000000  0.5855210000000  0.5302850000000 1.0
C      1  0.4988470000000  0.4505630000000  0.5960030000000 1.0
C      1  0.4914530000000  0.5297160000000  0.5685690000000 1.0
C      1  0.4866860000000  0.6259840000000  0.4532800000000 1.0
C      1  0.4336660000000  0.5259060000000  0.4361290000000 1.0
C      1  0.4916760000000  0.5922760000000  0.4188300000000 1.0
C      1  0.5262930000000  0.4567490000000  0.5029080000000 1.0
C      1  0.4393960000000  0.5243760000000  0.5325730000000 1.0
C      1  0.4359360000000  0.5224220000000  0.5044980000000 1.0
C      1  0.5255550000000  0.4304590000000  0.5125750000000 1.0
C      1  0.5634200000000  0.4222500000000  0.4540540000000 1.0
C      1  0.4564930000000  0.4128180000000  0.4900580000000 1.0
C      1  0.4418530000000  0.5792400000000  0.5476540000000 1.0
C      1  0.4778320000000  0.3911330000000  0.5382220000000 1.0
C      1  0.5867430000000  0.5687210000000  0.4693920000000 1.0
C      1  0.4700940000000  0.4934910000000  0.4938750000000 1.0
C      1  0.4524150000000  0.3929650000000  0.5504270000000 1.0
C      1  0.4541620000000  0.4253490000000  0.5913800000000 1.0
C      1  0.4015070000000  0.5779140000000  0.5201040000000 1.0
C      1  0.4790500000000  0.5118900000000  0.6257030000000 1.0
C      1  0.5252340000000  0.5958550000000  0.4545900000000 1.0
C      1  0.4063100000000  0.5305520000000  0.4394320000000 1.0
C      1  0.5130160000000  0.4590390000000  0.4778080000000 1.0
C      1  0.4011830000000  0.4923080000000  0.5483890000000 1.0
C      1  0.5511930000000  0.5168190000000  0.6125940000000 1.0
C      1  0.4887540000000  0.5584170000000  0.5663950000000 1.0
C      1  0.5244680000000  0.5231730000000  0.6066320000000 1.0
C      1  0.4913260000000  0.5321360000000  0.5211860000000 1.0
C      1  0.4961700000000  0.4069520000000  0.5787530000000 1.0
C      1  0.3771840000000  0.4473250000000  0.4706760000000 1.0
C      1  0.4569830000000  0.5186000000000  0.6095290000000 1.0
C      1  0.4448770000000  0.5184070000000  0.5856570000000 1.0
C      1  0.4377620000000  0.4390110000000  0.6083540000000 1.0
C      1  0.5144910000000  0.3713170000000  0.5143600000000 1.0
C      1  0.4283260000000  0.4174710000000  0.4897270000000 1.0
C      1  0.5173640000000  0.4577770000000  0.5749130000000 1.0
C      1  0.5422790000000  0.4199550000000  0.5545470000000 1.0
C      1  0.5215390000000  0.5439740000000  0.4578490000000 1.0
C      1  0.4702460000000  0.6148440000000  0.5200150000000 1.0
C      1  0.4866910000000  0.3794100000000  0.5138740000000 1.0
C      1  0.5544930000000  0.5280500000000  0.4218300000000 1.0
C      1  0.6080500000000  0.4483510000000  0.4973960000000 1.0
C      1  0.5424410000000  0.6046850000000  0.5222120000000 1.0
C      1  0.4505230000000  0.6008330000000  0.5313160000000 1.0
C      1  0.4906860000000  0.6326970000000  0.4800280000000 1.0
C      1  0.5846140000000  0.5020960000000  0.5770280000000 1.0
C      1  0.4972610000000  0.4071640000000  0.5506670000000 1.0
C      1  0.5790090000000  0.5123020000000  0.4248020000000 1.0
C      1  0.6275870000000  0.4907490000000  0.5036360000000 1.0
C      1  0.5181230000000  0.5708760000000  0.4655940000000 1.0
C      1  0.4153570000000  0.4709410000000  0.5394550000000 1.0
C      1  0.4972770000000  0.5279780000000  0.4545910000000 1.0
C      1  0.4827110000000  0.4274660000000  0.5922470000000 1.0
C      1  0.4705220000000  0.4368830000000  0.4964460000000 1.0
C      1  0.4782730000000  0.5290970000000  0.3931050000000 1.0
C      1  0.5448790000000  0.5443420000000  0.4011360000000 1.0
C      1  0.3843450000000  0.5623800000000  0.4733840000000 1.0
C      1  0.4827040000000  0.4848140000000  0.6321870000000 1.0
C      1  0.5847720000000  0.4758730000000  0.5631980000000 1.0
C      1  0.4935290000000  0.6223380000000  0.5060760000000 1.0
C      1  0.4742180000000  0.5113540000000  0.4145080000000 1.0
C      1  0.4586020000000  0.4538840000000  0.5176610000000 1.0
C      1  0.5843240000000  0.4406900000000  0.4504600000000 1.0
C      1  0.5147670000000  0.5660200000000  0.5564180000000 1.0
C      1  0.5846120000000  0.4599950000000  0.4299560000000 1.0
C      1  0.4950080000000  0.4648180000000  0.6195910000000 1.0
C      1  0.4315670000000  0.4793760000000  0.3828020000000 1.0
C      1  0.3899310000000  0.5746200000000  0.4963550000000 1.0
C      1  0.4860550000000  0.4885120000000  0.5419410000000 1.0
C      1  0.4629340000000  0.5693390000000  0.5639920000000 1.0
C      1  0.4612250000000  0.6185160000000  0.4421040000000 1.0
C      1  0.5319440000000  0.4932190000000  0.5428210000000 1.0
C      1  0.4708460000000  0.4760980000000  0.4716090000000 1.0
C      1  0.5245950000000  0.4755700000000  0.4578890000000 1.0
C      1  0.3977370000000  0.4579770000000  0.4851940000000 1.0
C      1  0.5881520000000  0.5288630000000  0.5170290000000 1.0
C      1  0.5493220000000  0.4863460000000  0.4645250000000 1.0
C      1  0.3955630000000  0.5184630000000  0.5535090000000 1.0
C      1  0.4758900000000  0.4333780000000  0.3903020000000 1.0
END
