TITL C-627106-156-1601 -1.04875160934069e-06 125000 -325.910137733021 0 0 54 (C1) n - 1
REM
REM in /home/nfs/bkarasulu/CARBON/AIRSS/Generating-Clusters/LCBOP/Only-C1/SD-CG/FIRE-CG
REM
REM
REM
REM
REM
REM ./C.cell (11c1c37f851c82e70ff6c80c92926a4b)
REM AIRSS Version 0.9.1 bugfix July 2018 build 013d7b7c2542+ Fri, 06 Jul 2018 19:26:36 +0100
REM compiler GCC version 9.2.1 20190827 (Red Hat 9.2.1-1)
REM options -cpp -mtune=generic -march=x86-64 -g -O0 -fpre-include=/usr/include/finclude/math-vector-fortran.h
REM seed 1671318922 -120434238 -1719481100 -1397207753 1307429380 1298357817 -1932733878 -616161445 1989113402 1422445258 -1655458573 -1000634559 1084051490 -1417427552 1782798588 -162362161 1887823634 351986945 -62391494 -261233289 371513046 541524807 883980650 1654856767 -2014632059 1053250696 -542273312 72191485 752793833 -788496543 2003733115 1169420231 -50320543
REM
CELL 1.54180   50.00000   50.00000   50.00000   90.00000   90.00000   90.00000
LATT -1
SFAC C  
C      1  0.4964520000000  0.5175860000000  0.5161170000000 1.0
C      1  0.4898050000000  0.5212670000000  0.5455090000000 1.0
C      1  0.4525420000000  0.5419890000000  0.5691900000000 1.0
C      1  0.4418580000000  0.5233490000000  0.4713080000000 1.0
C      1  0.4464500000000  0.4942540000000  0.4690310000000 1.0
C      1  0.5379570000000  0.5520570000000  0.5259660000000 1.0
C      1  0.5376480000000  0.5261530000000  0.4518090000000 1.0
C      1  0.4173710000000  0.4982730000000  0.5301100000000 1.0
C      1  0.5190320000000  0.5091630000000  0.4971110000000 1.0
C      1  0.4303800000000  0.4766980000000  0.5394010000000 1.0
C      1  0.4546470000000  0.4650720000000  0.5378340000000 1.0
C      1  0.5133830000000  0.4809290000000  0.4932320000000 1.0
C      1  0.5478050000000  0.4591130000000  0.4697230000000 1.0
C      1  0.4810630000000  0.4328700000000  0.4644800000000 1.0
C      1  0.5131520000000  0.5616260000000  0.5200430000000 1.0
C      1  0.4396310000000  0.5339700000000  0.4992500000000 1.0
C      1  0.5955580000000  0.4974460000000  0.5751420000000 1.0
C      1  0.4720610000000  0.4917430000000  0.4808300000000 1.0
C      1  0.4556380000000  0.5375500000000  0.4501720000000 1.0
C      1  0.5699740000000  0.4866740000000  0.5089970000000 1.0
C      1  0.4956030000000  0.4806260000000  0.4699300000000 1.0
C      1  0.4200450000000  0.5203440000000  0.5150340000000 1.0
C      1  0.4830600000000  0.5124890000000  0.5916540000000 1.0
C      1  0.5037490000000  0.4650180000000  0.5157700000000 1.0
C      1  0.4615550000000  0.5292230000000  0.5915140000000 1.0
C      1  0.5363100000000  0.4763270000000  0.4476190000000 1.0
C      1  0.5202710000000  0.5277800000000  0.4743690000000 1.0
C      1  0.5514090000000  0.5016830000000  0.4470240000000 1.0
C      1  0.4981900000000  0.5060820000000  0.5683610000000 1.0
C      1  0.4747860000000  0.5054910000000  0.4153550000000 1.0
C      1  0.4902510000000  0.5471980000000  0.5058190000000 1.0
C      1  0.4774950000000  0.4726550000000  0.5238080000000 1.0
C      1  0.5080600000000  0.4788380000000  0.4447670000000 1.0
C      1  0.4939600000000  0.4880530000000  0.4223360000000 1.0
C      1  0.4608560000000  0.5472980000000  0.5155290000000 1.0
C      1  0.4411470000000  0.4677910000000  0.4591240000000 1.0
C      1  0.5559960000000  0.5320140000000  0.5262460000000 1.0
C      1  0.5412510000000  0.5475370000000  0.4351470000000 1.0
C      1  0.5273300000000  0.4623790000000  0.5554450000000 1.0
C      1  0.5689390000000  0.4762580000000  0.4828040000000 1.0
C      1  0.4746800000000  0.4971400000000  0.5085210000000 1.0
C      1  0.5164630000000  0.4844160000000  0.5670750000000 1.0
C      1  0.5369780000000  0.4341780000000  0.5109240000000 1.0
C      1  0.5837400000000  0.5024690000000  0.5524650000000 1.0
C      1  0.4652170000000  0.5388480000000  0.5441270000000 1.0
C      1  0.5750520000000  0.4958130000000  0.4621700000000 1.0
C      1  0.4574290000000  0.4455950000000  0.4595440000000 1.0
C      1  0.4780090000000  0.5528170000000  0.4582550000000 1.0
C      1  0.4584850000000  0.5245320000000  0.4251430000000 1.0
C      1  0.5328900000000  0.4376100000000  0.4822740000000 1.0
C      1  0.4979720000000  0.5462580000000  0.4767320000000 1.0
C      1  0.5696400000000  0.5071690000000  0.5286920000000 1.0
C      1  0.5234970000000  0.4507790000000  0.5299140000000 1.0
C      1  0.5072810000000  0.4295090000000  0.4712570000000 1.0
END
