TITL C-627106-156-1589 1.15023965239573 125000 -719.376171022092 0 0 119 (C1) n - 1
REM
REM in /home/nfs/bkarasulu/CARBON/AIRSS/Generating-Clusters/LCBOP/Only-C1/SD-CG/FIRE-CG
REM
REM
REM
REM
REM
REM ./C.cell (11c1c37f851c82e70ff6c80c92926a4b)
REM AIRSS Version 0.9.1 bugfix July 2018 build 013d7b7c2542+ Fri, 06 Jul 2018 19:26:36 +0100
REM compiler GCC version 9.2.1 20190827 (Red Hat 9.2.1-1)
REM options -cpp -mtune=generic -march=x86-64 -g -O0 -fpre-include=/usr/include/finclude/math-vector-fortran.h
REM seed -1401755357 -708084210 42713607 217563761 450061051 -326367138 -1779673664 -1046427079 1812191529 667507570 1216984336 -810648291 -1303711425 583584036 -76678830 107314815 -892023177 -829340498 1546699332 -1359707532 -478675172 1538434663 -710840983 544130574 1516922528 747759709 1269797215 -1741285859 -371828629 -280560593 1422501007 1375437648 1075224272
REM
CELL 1.54180   50.00000   50.00000   50.00000   90.00000   90.00000   90.00000
LATT -1
SFAC C  
C      1  0.5511680000000  0.5414910000000  0.4689920000000 1.0
C      1  0.5141180000000  0.5080250000000  0.4828730000000 1.0
C      1  0.5334520000000  0.5155740000000  0.3782180000000 1.0
C      1  0.4359920000000  0.5240960000000  0.4704070000000 1.0
C      1  0.5760620000000  0.4844800000000  0.5035870000000 1.0
C      1  0.5337410000000  0.5298920000000  0.5196740000000 1.0
C      1  0.5442430000000  0.4543230000000  0.5167290000000 1.0
C      1  0.4905140000000  0.4939920000000  0.5842800000000 1.0
C      1  0.5240780000000  0.5439590000000  0.5442640000000 1.0
C      1  0.5244430000000  0.4593920000000  0.5600540000000 1.0
C      1  0.5226230000000  0.4147080000000  0.5249160000000 1.0
C      1  0.5588990000000  0.5030060000000  0.5958160000000 1.0
C      1  0.5709580000000  0.4166390000000  0.5004630000000 1.0
C      1  0.5321000000000  0.4634460000000  0.5875230000000 1.0
C      1  0.4716680000000  0.5833110000000  0.4610650000000 1.0
C      1  0.4501510000000  0.4771870000000  0.4585740000000 1.0
C      1  0.6164140000000  0.5602530000000  0.5139940000000 1.0
C      1  0.4549570000000  0.3916700000000  0.4671300000000 1.0
C      1  0.4592620000000  0.4367390000000  0.5107840000000 1.0
C      1  0.5277760000000  0.5351150000000  0.4886810000000 1.0
C      1  0.5393740000000  0.5020730000000  0.5291690000000 1.0
C      1  0.4583570000000  0.4398300000000  0.4295190000000 1.0
C      1  0.4048800000000  0.5567000000000  0.4890630000000 1.0
C      1  0.5410950000000  0.5597040000000  0.4471030000000 1.0
C      1  0.4853260000000  0.5316860000000  0.4228820000000 1.0
C      1  0.5131760000000  0.5720600000000  0.5488730000000 1.0
C      1  0.4979520000000  0.5461970000000  0.3619100000000 1.0
C      1  0.4690110000000  0.5682980000000  0.3240050000000 1.0
C      1  0.5453980000000  0.5871730000000  0.4467220000000 1.0
C      1  0.5089390000000  0.5405490000000  0.4102490000000 1.0
C      1  0.5678950000000  0.4973420000000  0.5278510000000 1.0
C      1  0.4960950000000  0.4614960000000  0.4067310000000 1.0
C      1  0.4974320000000  0.5753900000000  0.4656250000000 1.0
C      1  0.4964620000000  0.4726970000000  0.5094920000000 1.0
C      1  0.4687950000000  0.4783220000000  0.5929760000000 1.0
C      1  0.5510110000000  0.6126220000000  0.4465720000000 1.0
C      1  0.5423620000000  0.5390490000000  0.5694900000000 1.0
C      1  0.5472350000000  0.5040830000000  0.4002560000000 1.0
C      1  0.4746100000000  0.5432090000000  0.6394290000000 1.0
C      1  0.4169240000000  0.4567990000000  0.5215250000000 1.0
C      1  0.4769160000000  0.6015940000000  0.5348090000000 1.0
C      1  0.5928160000000  0.4614030000000  0.5011830000000 1.0
C      1  0.5190040000000  0.4681030000000  0.4225970000000 1.0
C      1  0.4088460000000  0.5311510000000  0.4757800000000 1.0
C      1  0.4029910000000  0.5558130000000  0.5172800000000 1.0
C      1  0.4166760000000  0.4782690000000  0.5374540000000 1.0
C      1  0.4497590000000  0.4886540000000  0.6097230000000 1.0
C      1  0.5802120000000  0.4430600000000  0.5542980000000 1.0
C      1  0.5076120000000  0.5595640000000  0.4871860000000 1.0
C      1  0.4792400000000  0.4052240000000  0.4629550000000 1.0
C      1  0.4575600000000  0.5798010000000  0.5914150000000 1.0
C      1  0.5853730000000  0.4376140000000  0.4869070000000 1.0
C      1  0.4986990000000  0.5272700000000  0.5507430000000 1.0
C      1  0.4501360000000  0.6399200000000  0.5473650000000 1.0
C      1  0.4651470000000  0.4253590000000  0.5857740000000 1.0
C      1  0.4715210000000  0.4659440000000  0.4738030000000 1.0
C      1  0.4673140000000  0.4513230000000  0.5858390000000 1.0
C      1  0.5075710000000  0.5335900000000  0.6052820000000 1.0
C      1  0.4480400000000  0.5715650000000  0.4711400000000 1.0
C      1  0.4488290000000  0.5051620000000  0.4534180000000 1.0
C      1  0.4207170000000  0.5778090000000  0.4768250000000 1.0
C      1  0.5847690000000  0.4673350000000  0.4469060000000 1.0
C      1  0.4833820000000  0.5573340000000  0.3427900000000 1.0
C      1  0.4888460000000  0.5610350000000  0.5091260000000 1.0
C      1  0.4996720000000  0.4084440000000  0.5082880000000 1.0
C      1  0.4616630000000  0.3947930000000  0.5354510000000 1.0
C      1  0.4309740000000  0.4384110000000  0.5055840000000 1.0
C      1  0.5819100000000  0.4410080000000  0.4582170000000 1.0
C      1  0.4678700000000  0.5423010000000  0.5048870000000 1.0
C      1  0.4605590000000  0.6153640000000  0.5529660000000 1.0
C      1  0.5209110000000  0.4855310000000  0.5465670000000 1.0
C      1  0.4732760000000  0.4132170000000  0.5188680000000 1.0
C      1  0.5197630000000  0.4335040000000  0.5474270000000 1.0
C      1  0.5964170000000  0.5557310000000  0.4978950000000 1.0
C      1  0.5632220000000  0.5197670000000  0.5732310000000 1.0
C      1  0.5410670000000  0.4780530000000  0.4085850000000 1.0
C      1  0.5591720000000  0.4872640000000  0.4800820000000 1.0
C      1  0.5666870000000  0.4208630000000  0.4457820000000 1.0
C      1  0.5127060000000  0.5345840000000  0.3822970000000 1.0
C      1  0.4555840000000  0.6021900000000  0.5772210000000 1.0
C      1  0.4308460000000  0.4003970000000  0.4753340000000 1.0
C      1  0.5159940000000  0.4667790000000  0.4514060000000 1.0
C      1  0.4737430000000  0.4586880000000  0.5012660000000 1.0
C      1  0.3901190000000  0.4460890000000  0.4490840000000 1.0
C      1  0.4732050000000  0.5160580000000  0.5121670000000 1.0
C      1  0.4789650000000  0.4289400000000  0.4474170000000 1.0
C      1  0.5464210000000  0.4042450000000  0.4511730000000 1.0
C      1  0.5157860000000  0.5754490000000  0.5775700000000 1.0
C      1  0.4221240000000  0.4267810000000  0.4808030000000 1.0
C      1  0.5488060000000  0.4084820000000  0.5141680000000 1.0
C      1  0.4158290000000  0.4427300000000  0.4576500000000 1.0
C      1  0.4379650000000  0.4549730000000  0.4442430000000 1.0
C      1  0.4527530000000  0.5449200000000  0.4813110000000 1.0
C      1  0.5104180000000  0.5047270000000  0.6023430000000 1.0
C      1  0.4931630000000  0.5794310000000  0.5302480000000 1.0
C      1  0.4938310000000  0.5003360000000  0.5025860000000 1.0
C      1  0.5788340000000  0.5094910000000  0.5512970000000 1.0
C      1  0.5261750000000  0.3966710000000  0.4668360000000 1.0
C      1  0.5296700000000  0.4815970000000  0.4759700000000 1.0
C      1  0.4812030000000  0.5428840000000  0.6127360000000 1.0
C      1  0.5348150000000  0.4889350000000  0.6010100000000 1.0
C      1  0.5253060000000  0.5512290000000  0.5908910000000 1.0
C      1  0.4272740000000  0.5280180000000  0.5564100000000 1.0
C      1  0.4984690000000  0.5001260000000  0.5576510000000 1.0
C      1  0.5727660000000  0.4916710000000  0.4556800000000 1.0
C      1  0.4663470000000  0.5164120000000  0.4339780000000 1.0
C      1  0.5335500000000  0.5440080000000  0.4245210000000 1.0
C      1  0.5754790000000  0.5499930000000  0.4827270000000 1.0
C      1  0.5230340000000  0.4641620000000  0.5012620000000 1.0
C      1  0.4918520000000  0.4525690000000  0.4584850000000 1.0
C      1  0.4454190000000  0.5359980000000  0.5766740000000 1.0
C      1  0.4710020000000  0.4512560000000  0.4067460000000 1.0
C      1  0.4616140000000  0.5520270000000  0.5935970000000 1.0
C      1  0.4134840000000  0.5467350000000  0.5402430000000 1.0
C      1  0.4229280000000  0.5007740000000  0.5503830000000 1.0
C      1  0.5627250000000  0.4493290000000  0.5358780000000 1.0
C      1  0.5524510000000  0.5222190000000  0.4214610000000 1.0
C      1  0.5019060000000  0.4014180000000  0.4802070000000 1.0
C      1  0.5653510000000  0.5159600000000  0.4451730000000 1.0
END
