TITL C-627111-6168-905 -3.52610352040255e-07 125000 -796.069073959479 0 0 131 (C1) n - 1
REM
REM in /home/nfs/bkarasulu/CARBON/AIRSS/Generating-Clusters/LCBOP/Only-C1/SD-CG/FIRE-CG
REM
REM
REM
REM
REM
REM ./C.cell (11c1c37f851c82e70ff6c80c92926a4b)
REM AIRSS Version 0.9.1 bugfix July 2018 build 013d7b7c2542+ Fri, 06 Jul 2018 19:26:36 +0100
REM compiler GCC version 9.2.1 20190827 (Red Hat 9.2.1-1)
REM options -cpp -mtune=generic -march=x86-64 -g -O0 -fpre-include=/usr/include/finclude/math-vector-fortran.h
REM seed 1716643325 997942507 185749109 1248310606 -497308162 443142638 810620603 -832216851 -1219588107 1998171997 1124639091 1298667101 -853997499 -533375071 881340717 997675901 1589083337 -92178052 1592958262 1706817057 -993594327 -174506669 -974003816 85235932 896549585 -115782416 216907904 947098648 1794013428 564557335 -316811937 -896190298 -683460785
REM
CELL 1.54180   50.00000   50.00000   50.00000   90.00000   90.00000   90.00000
LATT -1
SFAC C  
C      1  0.5533480000000  0.4883880000000  0.5027610000000 1.0
C      1  0.6277110000000  0.4463900000000  0.4668340000000 1.0
C      1  0.4609250000000  0.5001220000000  0.4988180000000 1.0
C      1  0.6003670000000  0.5259580000000  0.5455350000000 1.0
C      1  0.4146780000000  0.5249240000000  0.5239300000000 1.0
C      1  0.5492740000000  0.4233050000000  0.5337740000000 1.0
C      1  0.4740080000000  0.5606680000000  0.4275040000000 1.0
C      1  0.4730350000000  0.4763620000000  0.4596540000000 1.0
C      1  0.5600340000000  0.4587940000000  0.6021890000000 1.0
C      1  0.5718040000000  0.5003910000000  0.5757220000000 1.0
C      1  0.4738370000000  0.4994090000000  0.3909710000000 1.0
C      1  0.5364060000000  0.4928370000000  0.4393670000000 1.0
C      1  0.4364440000000  0.4352310000000  0.4568780000000 1.0
C      1  0.5565690000000  0.4716770000000  0.4804500000000 1.0
C      1  0.4832410000000  0.5727430000000  0.5852650000000 1.0
C      1  0.4127280000000  0.4968290000000  0.4227290000000 1.0
C      1  0.5378540000000  0.5925140000000  0.5203920000000 1.0
C      1  0.4716300000000  0.5278150000000  0.3894970000000 1.0
C      1  0.5857360000000  0.5373030000000  0.4945190000000 1.0
C      1  0.4214950000000  0.5744720000000  0.4490770000000 1.0
C      1  0.5831480000000  0.5113720000000  0.4461310000000 1.0
C      1  0.5108140000000  0.5617750000000  0.4763950000000 1.0
C      1  0.4854890000000  0.4529510000000  0.4649740000000 1.0
C      1  0.5715630000000  0.4923990000000  0.5261240000000 1.0
C      1  0.4537960000000  0.4160840000000  0.5165330000000 1.0
C      1  0.5738540000000  0.4248090000000  0.5452000000000 1.0
C      1  0.4634290000000  0.4988530000000  0.5870810000000 1.0
C      1  0.5260610000000  0.4432550000000  0.4487430000000 1.0
C      1  0.5177320000000  0.5891170000000  0.5402120000000 1.0
C      1  0.4654980000000  0.4869220000000  0.5233180000000 1.0
C      1  0.5216320000000  0.5669660000000  0.5585720000000 1.0
C      1  0.4344420000000  0.4777170000000  0.4176540000000 1.0
C      1  0.5722830000000  0.4823630000000  0.5972770000000 1.0
C      1  0.4816830000000  0.5517610000000  0.4010270000000 1.0
C      1  0.5475000000000  0.4252450000000  0.4579340000000 1.0
C      1  0.5029270000000  0.3794840000000  0.4954880000000 1.0
C      1  0.5401310000000  0.4219480000000  0.4864110000000 1.0
C      1  0.6101270000000  0.4610460000000  0.5091920000000 1.0
C      1  0.4580490000000  0.4171030000000  0.4653100000000 1.0
C      1  0.5148110000000  0.4697210000000  0.5364880000000 1.0
C      1  0.4260330000000  0.5376690000000  0.4746790000000 1.0
C      1  0.4843810000000  0.4093310000000  0.4527940000000 1.0
C      1  0.5828370000000  0.4648340000000  0.4703700000000 1.0
C      1  0.5763610000000  0.5648680000000  0.4960010000000 1.0
C      1  0.5276980000000  0.5497210000000  0.4549690000000 1.0
C      1  0.4635980000000  0.5665570000000  0.6037770000000 1.0
C      1  0.5555550000000  0.5375710000000  0.5310370000000 1.0
C      1  0.4220810000000  0.4472830000000  0.4794260000000 1.0
C      1  0.4990410000000  0.5539210000000  0.5705030000000 1.0
C      1  0.4858890000000  0.4928780000000  0.4414120000000 1.0
C      1  0.5150440000000  0.3954760000000  0.5162800000000 1.0
C      1  0.4393890000000  0.5887330000000  0.4644480000000 1.0
C      1  0.5074300000000  0.4824780000000  0.5787820000000 1.0
C      1  0.4118130000000  0.5285850000000  0.4964510000000 1.0
C      1  0.5068220000000  0.5619370000000  0.3926730000000 1.0
C      1  0.4977700000000  0.3892630000000  0.4687960000000 1.0
C      1  0.4657760000000  0.5409720000000  0.4468390000000 1.0
C      1  0.5092400000000  0.4893340000000  0.4245330000000 1.0
C      1  0.5616430000000  0.5441590000000  0.5592120000000 1.0
C      1  0.4547890000000  0.5396490000000  0.4738480000000 1.0
C      1  0.4679130000000  0.5275690000000  0.4958790000000 1.0
C      1  0.5033250000000  0.4126650000000  0.5373460000000 1.0
C      1  0.5346040000000  0.5339920000000  0.5116580000000 1.0
C      1  0.4307570000000  0.5673720000000  0.5418650000000 1.0
C      1  0.4695140000000  0.6019030000000  0.5358010000000 1.0
C      1  0.5364850000000  0.6030630000000  0.6008360000000 1.0
C      1  0.3871850000000  0.4866740000000  0.4194030000000 1.0
C      1  0.6074380000000  0.4570350000000  0.4816830000000 1.0
C      1  0.4944890000000  0.5186810000000  0.5364880000000 1.0
C      1  0.4418490000000  0.4827140000000  0.5428860000000 1.0
C      1  0.5168540000000  0.4386480000000  0.4941880000000 1.0
C      1  0.4950030000000  0.4550420000000  0.5781740000000 1.0
C      1  0.5104450000000  0.4999070000000  0.4872750000000 1.0
C      1  0.4719730000000  0.5159800000000  0.4372890000000 1.0
C      1  0.4160550000000  0.4375960000000  0.5059610000000 1.0
C      1  0.4990600000000  0.4344660000000  0.4469850000000 1.0
C      1  0.4256680000000  0.4754620000000  0.4801540000000 1.0
C      1  0.4958410000000  0.3536080000000  0.5014310000000 1.0
C      1  0.4458700000000  0.4523390000000  0.5486110000000 1.0
C      1  0.4286230000000  0.5251350000000  0.5679320000000 1.0
C      1  0.5890310000000  0.5246730000000  0.4690950000000 1.0
C      1  0.5780320000000  0.4619250000000  0.4412160000000 1.0
C      1  0.4154660000000  0.5460360000000  0.4492950000000 1.0
C      1  0.4508970000000  0.4818760000000  0.3938170000000 1.0
C      1  0.4434760000000  0.4672640000000  0.3709660000000 1.0
C      1  0.5289760000000  0.4831860000000  0.5579810000000 1.0
C      1  0.5197880000000  0.4380720000000  0.5757100000000 1.0
C      1  0.5949250000000  0.4742230000000  0.5266100000000 1.0
C      1  0.4466870000000  0.5878590000000  0.5356110000000 1.0
C      1  0.4940120000000  0.6030330000000  0.5496230000000 1.0
C      1  0.5412960000000  0.4413860000000  0.5937500000000 1.0
C      1  0.5348960000000  0.4696100000000  0.4596700000000 1.0
C      1  0.5235000000000  0.4352580000000  0.5450950000000 1.0
C      1  0.5590320000000  0.5833390000000  0.5059950000000 1.0
C      1  0.4948220000000  0.5268970000000  0.5639730000000 1.0
C      1  0.4873960000000  0.5825710000000  0.4391960000000 1.0
C      1  0.4914920000000  0.5999140000000  0.5787170000000 1.0
C      1  0.4927650000000  0.4889770000000  0.5313530000000 1.0
C      1  0.4884970000000  0.5363020000000  0.5135940000000 1.0
C      1  0.4904480000000  0.5049990000000  0.5820170000000 1.0
C      1  0.4359510000000  0.4523530000000  0.4328030000000 1.0
C      1  0.5117200000000  0.5492350000000  0.5024650000000 1.0
C      1  0.5817140000000  0.5225060000000  0.5211340000000 1.0
C      1  0.5424150000000  0.4066840000000  0.5106590000000 1.0
C      1  0.5467600000000  0.5641430000000  0.5711180000000 1.0
C      1  0.5823360000000  0.5261970000000  0.5689770000000 1.0
C      1  0.5328800000000  0.5074760000000  0.5007250000000 1.0
C      1  0.5677220000000  0.4897700000000  0.4338180000000 1.0
C      1  0.4226080000000  0.5408460000000  0.5454260000000 1.0
C      1  0.4710970000000  0.4428770000000  0.5631060000000 1.0
C      1  0.4903390000000  0.5813620000000  0.4678950000000 1.0
C      1  0.4176350000000  0.4952180000000  0.5257650000000 1.0
C      1  0.4424430000000  0.5002560000000  0.5684040000000 1.0
C      1  0.5112740000000  0.6113150000000  0.5954980000000 1.0
C      1  0.5519010000000  0.5829140000000  0.5914450000000 1.0
C      1  0.4107360000000  0.4887190000000  0.4992620000000 1.0
C      1  0.5329460000000  0.5217960000000  0.4510670000000 1.0
C      1  0.4673990000000  0.4224800000000  0.4932310000000 1.0
C      1  0.4639440000000  0.5896400000000  0.4769180000000 1.0
C      1  0.5287720000000  0.5681840000000  0.4070540000000 1.0
C      1  0.4797750000000  0.4166340000000  0.5529420000000 1.0
C      1  0.4522430000000  0.4850050000000  0.4767710000000 1.0
C      1  0.4890890000000  0.4414370000000  0.4910260000000 1.0
C      1  0.4139940000000  0.5245690000000  0.4304690000000 1.0
C      1  0.5358840000000  0.5656580000000  0.4329040000000 1.0
C      1  0.5002590000000  0.4895910000000  0.3975740000000 1.0
C      1  0.4458120000000  0.5614990000000  0.6221390000000 1.0
C      1  0.4362790000000  0.4535100000000  0.3500340000000 1.0
C      1  0.5694440000000  0.4338420000000  0.4404170000000 1.0
C      1  0.4348770000000  0.4342470000000  0.5278340000000 1.0
C      1  0.5560870000000  0.4905440000000  0.5532290000000 1.0
END
