TITL C-627112-676-114 0.00366269644256208 125000 -848.545990080924 0 0 136 (C1) n - 1
REM
REM in /home/nfs/bkarasulu/CARBON/AIRSS/Generating-Clusters/LCBOP/Only-C1/SD-CG/FIRE-CG
REM
REM
REM
REM
REM
REM ./C.cell (11c1c37f851c82e70ff6c80c92926a4b)
REM AIRSS Version 0.9.1 bugfix July 2018 build 013d7b7c2542+ Fri, 06 Jul 2018 19:26:36 +0100
REM compiler GCC version 9.2.1 20190827 (Red Hat 9.2.1-1)
REM options -cpp -mtune=generic -march=x86-64 -g -O0 -fpre-include=/usr/include/finclude/math-vector-fortran.h
REM seed -922040189 1783371850 -9906031 653240826 1372176463 1002717964 1939887164 -1051427827 -2020639912 -425696956 1284528776 -1080395625 -1602384552 -1423777120 1941769237 15078936 314480609 1548916363 763147187 1367758150 563816891 2072529302 -61137415 -368457476 -199014311 -506758884 344401909 -1774359441 -2006462376 791706491 -149126190 -1651940047 -953389987
REM
CELL 1.54180   50.00000   50.00000   50.00000   90.00000   90.00000   90.00000
LATT -1
SFAC C  
C      1  0.4058780000000  0.4968330000000  0.6520610000000 1.0
C      1  0.5235740000000  0.4740960000000  0.4822990000000 1.0
C      1  0.4698250000000  0.4350910000000  0.5419090000000 1.0
C      1  0.5657840000000  0.5673320000000  0.5358210000000 1.0
C      1  0.5303940000000  0.6087900000000  0.4799610000000 1.0
C      1  0.4990750000000  0.4853480000000  0.4207620000000 1.0
C      1  0.5087030000000  0.5902820000000  0.5648210000000 1.0
C      1  0.4848050000000  0.6232630000000  0.4856060000000 1.0
C      1  0.4169450000000  0.4691430000000  0.5855230000000 1.0
C      1  0.4827230000000  0.5697810000000  0.4081850000000 1.0
C      1  0.5411680000000  0.4993390000000  0.4455890000000 1.0
C      1  0.5245920000000  0.4755260000000  0.5355140000000 1.0
C      1  0.5310200000000  0.3334250000000  0.5103580000000 1.0
C      1  0.4714280000000  0.6505490000000  0.5487760000000 1.0
C      1  0.5581890000000  0.5559460000000  0.6052630000000 1.0
C      1  0.5558280000000  0.4903870000000  0.5976120000000 1.0
C      1  0.5801570000000  0.4436800000000  0.4015900000000 1.0
C      1  0.4631230000000  0.4956060000000  0.5054050000000 1.0
C      1  0.5768970000000  0.5329670000000  0.4685700000000 1.0
C      1  0.5515900000000  0.5199120000000  0.4641040000000 1.0
C      1  0.4958020000000  0.5506730000000  0.4652790000000 1.0
C      1  0.4382240000000  0.4597920000000  0.4851220000000 1.0
C      1  0.4113770000000  0.5660350000000  0.5028800000000 1.0
C      1  0.5165220000000  0.5011530000000  0.4911670000000 1.0
C      1  0.5657470000000  0.5761340000000  0.5608510000000 1.0
C      1  0.4144690000000  0.4941420000000  0.5983940000000 1.0
C      1  0.4718090000000  0.6205610000000  0.4623170000000 1.0
C      1  0.4424140000000  0.5075020000000  0.4648440000000 1.0
C      1  0.5306050000000  0.4507200000000  0.4060860000000 1.0
C      1  0.5645220000000  0.4289400000000  0.4640530000000 1.0
C      1  0.4145180000000  0.4312850000000  0.4345930000000 1.0
C      1  0.5032950000000  0.4610950000000  0.4065990000000 1.0
C      1  0.4605020000000  0.3737580000000  0.4685010000000 1.0
C      1  0.5421030000000  0.4087550000000  0.5111020000000 1.0
C      1  0.5164790000000  0.6205470000000  0.5258880000000 1.0
C      1  0.4363660000000  0.5550560000000  0.4611410000000 1.0
C      1  0.5323430000000  0.5460300000000  0.4026500000000 1.0
C      1  0.4562080000000  0.6084310000000  0.5667420000000 1.0
C      1  0.4839110000000  0.5448080000000  0.5132060000000 1.0
C      1  0.5654390000000  0.5775660000000  0.4887730000000 1.0
C      1  0.4022830000000  0.4987030000000  0.6778140000000 1.0
C      1  0.4986670000000  0.4601580000000  0.4787730000000 1.0
C      1  0.4617080000000  0.5339300000000  0.6019830000000 1.0
C      1  0.5403400000000  0.4728030000000  0.4591140000000 1.0
C      1  0.4407270000000  0.5582800000000  0.5669680000000 1.0
C      1  0.4312100000000  0.4503790000000  0.5725810000000 1.0
C      1  0.5557290000000  0.4522610000000  0.3939100000000 1.0
C      1  0.4167300000000  0.5185530000000  0.5838120000000 1.0
C      1  0.4802780000000  0.4934650000000  0.5503230000000 1.0
C      1  0.4965470000000  0.3987190000000  0.4468850000000 1.0
C      1  0.5802380000000  0.4459130000000  0.5237890000000 1.0
C      1  0.5194790000000  0.5052630000000  0.4255610000000 1.0
C      1  0.3980020000000  0.4400460000000  0.3899130000000 1.0
C      1  0.5570120000000  0.6047040000000  0.4897830000000 1.0
C      1  0.5322070000000  0.3095660000000  0.5218010000000 1.0
C      1  0.5437790000000  0.6279690000000  0.5298090000000 1.0
C      1  0.5301070000000  0.4344170000000  0.4305750000000 1.0
C      1  0.5042690000000  0.4213180000000  0.4320520000000 1.0
C      1  0.5690240000000  0.4678170000000  0.5116640000000 1.0
C      1  0.3951330000000  0.4352950000000  0.4163690000000 1.0
C      1  0.4902000000000  0.4396920000000  0.5225280000000 1.0
C      1  0.4426000000000  0.4296560000000  0.4362870000000 1.0
C      1  0.4706380000000  0.3973040000000  0.4589420000000 1.0
C      1  0.4571950000000  0.4504010000000  0.5619870000000 1.0
C      1  0.5168930000000  0.4472980000000  0.5315200000000 1.0
C      1  0.5118830000000  0.5308190000000  0.4144430000000 1.0
C      1  0.4835520000000  0.4813800000000  0.4653430000000 1.0
C      1  0.4464140000000  0.4394520000000  0.3880960000000 1.0
C      1  0.5879950000000  0.5113970000000  0.5398450000000 1.0
C      1  0.4096140000000  0.4950460000000  0.6258940000000 1.0
C      1  0.5632830000000  0.6213060000000  0.5119770000000 1.0
C      1  0.5655390000000  0.4505120000000  0.5693850000000 1.0
C      1  0.4387860000000  0.5369860000000  0.5861100000000 1.0
C      1  0.4423180000000  0.4876820000000  0.4862560000000 1.0
C      1  0.5345290000000  0.5226800000000  0.4872640000000 1.0
C      1  0.4845860000000  0.5418010000000  0.4139790000000 1.0
C      1  0.4188260000000  0.5694900000000  0.4773240000000 1.0
C      1  0.5333940000000  0.2856900000000  0.5332510000000 1.0
C      1  0.4867160000000  0.4382350000000  0.4156730000000 1.0
C      1  0.4501430000000  0.5341020000000  0.4747770000000 1.0
C      1  0.5130120000000  0.5503760000000  0.5993390000000 1.0
C      1  0.5154980000000  0.5239530000000  0.5444820000000 1.0
C      1  0.4556300000000  0.5057940000000  0.4379810000000 1.0
C      1  0.4552520000000  0.4210790000000  0.4603220000000 1.0
C      1  0.5550460000000  0.5621640000000  0.5106390000000 1.0
C      1  0.4448620000000  0.5851980000000  0.5729480000000 1.0
C      1  0.5518250000000  0.4829980000000  0.5288340000000 1.0
C      1  0.5676460000000  0.4946650000000  0.5500420000000 1.0
C      1  0.4153900000000  0.5516640000000  0.5265170000000 1.0
C      1  0.4404510000000  0.5515730000000  0.4332200000000 1.0
C      1  0.4408590000000  0.5504590000000  0.5395770000000 1.0
C      1  0.5111780000000  0.5425780000000  0.5234120000000 1.0
C      1  0.5529440000000  0.5612510000000  0.3958850000000 1.0
C      1  0.4757360000000  0.5938830000000  0.4176060000000 1.0
C      1  0.5936760000000  0.5217590000000  0.4888000000000 1.0
C      1  0.5142480000000  0.3777270000000  0.4523920000000 1.0
C      1  0.5428810000000  0.5098950000000  0.6104100000000 1.0
C      1  0.5227650000000  0.5935580000000  0.4578070000000 1.0
C      1  0.5733980000000  0.5766820000000  0.3910810000000 1.0
C      1  0.5925720000000  0.4322440000000  0.4225930000000 1.0
C      1  0.5509840000000  0.5739240000000  0.5842220000000 1.0
C      1  0.5765980000000  0.5616410000000  0.4681960000000 1.0
C      1  0.4700390000000  0.6109100000000  0.4374330000000 1.0
C      1  0.5345610000000  0.2622070000000  0.5445130000000 1.0
C      1  0.5875510000000  0.4249750000000  0.4481500000000 1.0
C      1  0.5384770000000  0.4276430000000  0.5325140000000 1.0
C      1  0.5454700000000  0.4458030000000  0.4513960000000 1.0
C      1  0.4593240000000  0.5311970000000  0.4242690000000 1.0
C      1  0.4773000000000  0.4875940000000  0.4388660000000 1.0
C      1  0.5297500000000  0.3584800000000  0.4983430000000 1.0
C      1  0.5368910000000  0.5370730000000  0.6102440000000 1.0
C      1  0.3954850000000  0.5372490000000  0.5404230000000 1.0
C      1  0.5656030000000  0.4788710000000  0.5741030000000 1.0
C      1  0.5216480000000  0.5730850000000  0.5826850000000 1.0
C      1  0.5568120000000  0.4163450000000  0.4879470000000 1.0
C      1  0.5080750000000  0.4966640000000  0.5461020000000 1.0
C      1  0.4865760000000  0.5046100000000  0.4866100000000 1.0
C      1  0.4218640000000  0.4417590000000  0.3773290000000 1.0
C      1  0.4830480000000  0.4428560000000  0.4948030000000 1.0
C      1  0.5971070000000  0.5180510000000  0.5152770000000 1.0
C      1  0.5243460000000  0.3615910000000  0.4710050000000 1.0
C      1  0.4627140000000  0.5354570000000  0.5303470000000 1.0
C      1  0.4588540000000  0.4355900000000  0.4131160000000 1.0
C      1  0.5095840000000  0.6182350000000  0.4979100000000 1.0
C      1  0.5636070000000  0.4357220000000  0.5450990000000 1.0
C      1  0.5337740000000  0.3821360000000  0.5128700000000 1.0
C      1  0.4568860000000  0.4382740000000  0.4829680000000 1.0
C      1  0.3973330000000  0.5242720000000  0.5639510000000 1.0
C      1  0.5336480000000  0.5442290000000  0.5058940000000 1.0
C      1  0.4711130000000  0.4741760000000  0.5678490000000 1.0
C      1  0.5006200000000  0.6114850000000  0.5478580000000 1.0
C      1  0.4635910000000  0.5066800000000  0.5313850000000 1.0
C      1  0.4872250000000  0.5412690000000  0.6046300000000 1.0
C      1  0.4758020000000  0.6241300000000  0.5542040000000 1.0
C      1  0.5106400000000  0.5700810000000  0.4551610000000 1.0
C      1  0.4793060000000  0.5354740000000  0.4841710000000 1.0
END
