TITL C-627110-360-1549 0.0860727123333344 125000 -600.0798063637 0 0 99 (C1) n - 1
REM
REM in /home/nfs/bkarasulu/CARBON/AIRSS/Generating-Clusters/LCBOP/Only-C1/SD-CG/FIRE-CG
REM
REM
REM
REM
REM
REM ./C.cell (11c1c37f851c82e70ff6c80c92926a4b)
REM AIRSS Version 0.9.1 bugfix July 2018 build 013d7b7c2542+ Fri, 06 Jul 2018 19:26:36 +0100
REM compiler GCC version 9.2.1 20190827 (Red Hat 9.2.1-1)
REM options -cpp -mtune=generic -march=x86-64 -g -O0 -fpre-include=/usr/include/finclude/math-vector-fortran.h
REM seed -1552075235 -295437623 2125310505 -1023393475 -1592036879 -1387968423 -1718032765 -145798418 204846559 358372279 -358893930 2058491487 786281788 281545697 449601084 -187067410 -1762382493 -38633701 -1861767589 -509870232 979411337 -258581639 -311088853 -1232301429 -1553656784 -92494238 2103108220 1643683272 -1804618849 -896329785 361756824 1486146459 -677396436
REM
CELL 1.54180   50.00000   50.00000   50.00000   90.00000   90.00000   90.00000
LATT -1
SFAC C  
C      1  0.5244020000000  0.6108560000000  0.5244460000000 1.0
C      1  0.4842830000000  0.4600810000000  0.5513940000000 1.0
C      1  0.5002880000000  0.4143630000000  0.3363830000000 1.0
C      1  0.4428240000000  0.5154570000000  0.5695800000000 1.0
C      1  0.4908990000000  0.5421700000000  0.5746650000000 1.0
C      1  0.5049120000000  0.5270780000000  0.4584390000000 1.0
C      1  0.4618320000000  0.4815740000000  0.4593760000000 1.0
C      1  0.4949850000000  0.4248500000000  0.3596540000000 1.0
C      1  0.6124150000000  0.3592740000000  0.4276810000000 1.0
C      1  0.6086260000000  0.4778860000000  0.4895540000000 1.0
C      1  0.5399190000000  0.4917820000000  0.5375970000000 1.0
C      1  0.5073050000000  0.4629500000000  0.4674710000000 1.0
C      1  0.4930970000000  0.5693070000000  0.4296960000000 1.0
C      1  0.4597950000000  0.5936740000000  0.4986670000000 1.0
C      1  0.4896480000000  0.4355820000000  0.3832800000000 1.0
C      1  0.5630210000000  0.4192960000000  0.4421750000000 1.0
C      1  0.5550550000000  0.4825300000000  0.6063890000000 1.0
C      1  0.4496610000000  0.5603630000000  0.4625130000000 1.0
C      1  0.5236930000000  0.5894320000000  0.5414180000000 1.0
C      1  0.4828230000000  0.4762660000000  0.4095440000000 1.0
C      1  0.4998350000000  0.5375300000000  0.5188510000000 1.0
C      1  0.4348080000000  0.4380660000000  0.4983530000000 1.0
C      1  0.4472470000000  0.5712890000000  0.4895800000000 1.0
C      1  0.5385830000000  0.5657550000000  0.5351430000000 1.0
C      1  0.5248260000000  0.5392580000000  0.5357950000000 1.0
C      1  0.5554530000000  0.4388300000000  0.4992470000000 1.0
C      1  0.4141490000000  0.4490860000000  0.4853870000000 1.0
C      1  0.5849350000000  0.4795090000000  0.5536700000000 1.0
C      1  0.5174790000000  0.5350660000000  0.5650910000000 1.0
C      1  0.5587340000000  0.4873680000000  0.4891370000000 1.0
C      1  0.5197570000000  0.5660600000000  0.4245940000000 1.0
C      1  0.4472060000000  0.4940220000000  0.4385700000000 1.0
C      1  0.6172680000000  0.4741230000000  0.5146430000000 1.0
C      1  0.5623760000000  0.5712710000000  0.5203840000000 1.0
C      1  0.4865340000000  0.4687350000000  0.6001920000000 1.0
C      1  0.5591400000000  0.4891560000000  0.5583950000000 1.0
C      1  0.4310950000000  0.5505470000000  0.5331350000000 1.0
C      1  0.5081500000000  0.5099420000000  0.6032450000000 1.0
C      1  0.4381960000000  0.4930490000000  0.5525650000000 1.0
C      1  0.6067610000000  0.4746960000000  0.5392080000000 1.0
C      1  0.5482390000000  0.5351480000000  0.4746210000000 1.0
C      1  0.5631160000000  0.5929360000000  0.5036470000000 1.0
C      1  0.4860190000000  0.4234040000000  0.4569730000000 1.0
C      1  0.4875030000000  0.4410990000000  0.5056480000000 1.0
C      1  0.5846730000000  0.4833890000000  0.4788150000000 1.0
C      1  0.3984760000000  0.4688200000000  0.4762820000000 1.0
C      1  0.3976400000000  0.5085140000000  0.5221070000000 1.0
C      1  0.5233400000000  0.6008230000000  0.4770940000000 1.0
C      1  0.5456440000000  0.4643690000000  0.5018190000000 1.0
C      1  0.4596570000000  0.4355500000000  0.5080420000000 1.0
C      1  0.5410310000000  0.5167950000000  0.5230170000000 1.0
C      1  0.4882900000000  0.4839360000000  0.4691560000000 1.0
C      1  0.5388010000000  0.6077350000000  0.4998890000000 1.0
C      1  0.4594390000000  0.4815220000000  0.6028450000000 1.0
C      1  0.4322600000000  0.5169500000000  0.4440200000000 1.0
C      1  0.4951070000000  0.5095490000000  0.4777730000000 1.0
C      1  0.5270970000000  0.4696810000000  0.5237030000000 1.0
C      1  0.4151300000000  0.4575050000000  0.6080560000000 1.0
C      1  0.3965410000000  0.5164920000000  0.4943970000000 1.0
C      1  0.5079050000000  0.4826570000000  0.6114120000000 1.0
C      1  0.4286560000000  0.5551180000000  0.5053000000000 1.0
C      1  0.4397510000000  0.4946550000000  0.5083320000000 1.0
C      1  0.5168410000000  0.5734320000000  0.4751530000000 1.0
C      1  0.5278380000000  0.4778330000000  0.4261880000000 1.0
C      1  0.4847250000000  0.4474000000000  0.4081400000000 1.0
C      1  0.5516610000000  0.4992350000000  0.5835890000000 1.0
C      1  0.4145460000000  0.5373420000000  0.4864420000000 1.0
C      1  0.4570370000000  0.4874090000000  0.4130310000000 1.0
C      1  0.4696810000000  0.5668190000000  0.4433670000000 1.0
C      1  0.5469190000000  0.4395390000000  0.4479200000000 1.0
C      1  0.4829740000000  0.4492270000000  0.5782580000000 1.0
C      1  0.4692450000000  0.5549080000000  0.5625030000000 1.0
C      1  0.4968680000000  0.4388110000000  0.4784560000000 1.0
C      1  0.5885790000000  0.5393520000000  0.4458720000000 1.0
C      1  0.5505120000000  0.5146590000000  0.4953470000000 1.0
C      1  0.4408380000000  0.4590590000000  0.5996420000000 1.0
C      1  0.5217960000000  0.5462770000000  0.4705350000000 1.0
C      1  0.5619610000000  0.5434230000000  0.4502120000000 1.0
C      1  0.5297370000000  0.5174510000000  0.5846220000000 1.0
C      1  0.4212030000000  0.4953520000000  0.5299840000000 1.0
C      1  0.4588110000000  0.5088560000000  0.5932130000000 1.0
C      1  0.4836720000000  0.5232730000000  0.5957810000000 1.0
C      1  0.4449610000000  0.5415410000000  0.5562650000000 1.0
C      1  0.5028190000000  0.5175800000000  0.4315660000000 1.0
C      1  0.5153330000000  0.6194820000000  0.4589180000000 1.0
C      1  0.5051820000000  0.4925110000000  0.4181580000000 1.0
C      1  0.4819360000000  0.4306490000000  0.4310850000000 1.0
C      1  0.5960960000000  0.3790480000000  0.4324070000000 1.0
C      1  0.4610690000000  0.4764470000000  0.5478670000000 1.0
C      1  0.5446950000000  0.5568530000000  0.4310690000000 1.0
C      1  0.4296830000000  0.5387910000000  0.4612190000000 1.0
C      1  0.4859220000000  0.5199270000000  0.5020660000000 1.0
C      1  0.3907840000000  0.4946140000000  0.4772640000000 1.0
C      1  0.5011670000000  0.4559800000000  0.5276490000000 1.0
C      1  0.5288600000000  0.4608080000000  0.4485330000000 1.0
C      1  0.5331270000000  0.4726590000000  0.6191000000000 1.0
C      1  0.4562700000000  0.4387640000000  0.5854570000000 1.0
C      1  0.5795050000000  0.3991540000000  0.4372130000000 1.0
C      1  0.4608170000000  0.5107600000000  0.5078500000000 1.0
END
