TITL C-627111-6168-238 5.63972671552275e-06 125000 -246.115640500015 0 0 42 (C1) n - 1
REM
REM in /home/nfs/bkarasulu/CARBON/AIRSS/Generating-Clusters/LCBOP/Only-C1/SD-CG/FIRE-CG
REM
REM
REM
REM
REM
REM ./C.cell (11c1c37f851c82e70ff6c80c92926a4b)
REM AIRSS Version 0.9.1 bugfix July 2018 build 013d7b7c2542+ Fri, 06 Jul 2018 19:26:36 +0100
REM compiler GCC version 9.2.1 20190827 (Red Hat 9.2.1-1)
REM options -cpp -mtune=generic -march=x86-64 -g -O0 -fpre-include=/usr/include/finclude/math-vector-fortran.h
REM seed 1334414712 -2126747739 -1438667990 -782741391 907213673 1992584404 1693945396 803582469 -395260550 420059569 2016110781 1681237036 1546120628 -1681524751 1075287550 1325375170 -1931025389 -793830889 -1226546374 202745364 -1904044548 -861519050 -2096192619 -695339878 -830803039 821769116 -1134016030 615858011 8419790 -1011969446 -1550739840 -276462812 -459534987
REM
CELL 1.54180   50.00000   50.00000   50.00000   90.00000   90.00000   90.00000
LATT -1
SFAC C  
C      1  0.4815100000000  0.4998930000000  0.4314810000000 1.0
C      1  0.5834140000000  0.4727650000000  0.5099600000000 1.0
C      1  0.4917840000000  0.5342240000000  0.4704970000000 1.0
C      1  0.4589900000000  0.5351870000000  0.5208930000000 1.0
C      1  0.5002420000000  0.4297810000000  0.5411570000000 1.0
C      1  0.5247390000000  0.4350570000000  0.5287450000000 1.0
C      1  0.4780000000000  0.4455650000000  0.5349220000000 1.0
C      1  0.5623010000000  0.5054160000000  0.4774030000000 1.0
C      1  0.4980110000000  0.4089550000000  0.5596000000000 1.0
C      1  0.4148020000000  0.5537780000000  0.5298070000000 1.0
C      1  0.4430070000000  0.5820860000000  0.4778560000000 1.0
C      1  0.5363210000000  0.5079310000000  0.4673440000000 1.0
C      1  0.4998680000000  0.5526800000000  0.5475000000000 1.0
C      1  0.5324160000000  0.4398370000000  0.4381310000000 1.0
C      1  0.4985700000000  0.5860510000000  0.5117870000000 1.0
C      1  0.5252070000000  0.4873190000000  0.4508230000000 1.0
C      1  0.5071170000000  0.5749600000000  0.4868890000000 1.0
C      1  0.4789610000000  0.5371940000000  0.5408100000000 1.0
C      1  0.4960290000000  0.3891740000000  0.5771150000000 1.0
C      1  0.4604050000000  0.5131950000000  0.5026290000000 1.0
C      1  0.4940810000000  0.3697100000000  0.5943480000000 1.0
C      1  0.4713110000000  0.5940270000000  0.5140560000000 1.0
C      1  0.4626360000000  0.5744260000000  0.4608770000000 1.0
C      1  0.5292360000000  0.5560770000000  0.4846910000000 1.0
C      1  0.4865660000000  0.5626800000000  0.4693370000000 1.0
C      1  0.5206160000000  0.5302390000000  0.4744490000000 1.0
C      1  0.4626380000000  0.4650140000000  0.5254620000000 1.0
C      1  0.5082380000000  0.4953440000000  0.4292310000000 1.0
C      1  0.5095150000000  0.5748100000000  0.5353910000000 1.0
C      1  0.4477410000000  0.5804440000000  0.5057510000000 1.0
C      1  0.4700720000000  0.4676680000000  0.4640740000000 1.0
C      1  0.5797330000000  0.4933930000000  0.4935010000000 1.0
C      1  0.4715490000000  0.5151410000000  0.4762570000000 1.0
C      1  0.4926790000000  0.4529860000000  0.4647190000000 1.0
C      1  0.5441250000000  0.4451500000000  0.5113680000000 1.0
C      1  0.4398030000000  0.5564020000000  0.5190610000000 1.0
C      1  0.5221660000000  0.4581430000000  0.4601240000000 1.0
C      1  0.5367770000000  0.4525530000000  0.4853650000000 1.0
C      1  0.5709200000000  0.4497170000000  0.5199900000000 1.0
C      1  0.5838390000000  0.4324740000000  0.5367460000000 1.0
C      1  0.4682910000000  0.4948290000000  0.4563070000000 1.0
C      1  0.4557710000000  0.4877260000000  0.5135460000000 1.0
END
