TITL C-627107-135-905 9.55971679493221e-07 125000 -499.704724264032 0 0 82 (C1) n - 1
REM
REM in /home/nfs/bkarasulu/CARBON/AIRSS/Generating-Clusters/LCBOP/Only-C1/SD-CG/FIRE-CG
REM
REM
REM
REM
REM
REM ./C.cell (11c1c37f851c82e70ff6c80c92926a4b)
REM AIRSS Version 0.9.1 bugfix July 2018 build 013d7b7c2542+ Fri, 06 Jul 2018 19:26:36 +0100
REM compiler GCC version 9.2.1 20190827 (Red Hat 9.2.1-1)
REM options -cpp -mtune=generic -march=x86-64 -g -O0 -fpre-include=/usr/include/finclude/math-vector-fortran.h
REM seed -1299289920 629749125 -900872966 -58184197 -531199097 291108713 -1489301929 1329804739 602082474 1538978923 -1234449208 -748581003 1886020080 -203273752 1973244991 1044143686 -1431261439 825197590 -699364647 -353463652 2044991482 -294801870 470118044 1619957082 1202004459 1860424459 842282037 -1386703736 -653815656 -48587230 -1518448598 -654567522 1741567012
REM
CELL 1.54180   50.00000   50.00000   50.00000   90.00000   90.00000   90.00000
LATT -1
SFAC C  
C      1  0.5472890000000  0.5789630000000  0.5034850000000 1.0
C      1  0.5172260000000  0.5799490000000  0.5401760000000 1.0
C      1  0.5875830000000  0.4659370000000  0.4526580000000 1.0
C      1  0.5012010000000  0.4826480000000  0.5740910000000 1.0
C      1  0.4438240000000  0.4469850000000  0.4408660000000 1.0
C      1  0.4438710000000  0.5779420000000  0.5552880000000 1.0
C      1  0.3934310000000  0.5075000000000  0.5265640000000 1.0
C      1  0.4054720000000  0.4946820000000  0.6064260000000 1.0
C      1  0.5811150000000  0.4463530000000  0.4717670000000 1.0
C      1  0.5414470000000  0.4370000000000  0.5340600000000 1.0
C      1  0.4282020000000  0.5404650000000  0.5304020000000 1.0
C      1  0.5891810000000  0.5204310000000  0.5041620000000 1.0
C      1  0.4849560000000  0.3817720000000  0.4677390000000 1.0
C      1  0.4956440000000  0.5038530000000  0.4416130000000 1.0
C      1  0.5385530000000  0.5653760000000  0.5274110000000 1.0
C      1  0.4607620000000  0.4337460000000  0.4252560000000 1.0
C      1  0.4607540000000  0.3887180000000  0.4778460000000 1.0
C      1  0.5488070000000  0.4872520000000  0.5570230000000 1.0
C      1  0.5413620000000  0.5365760000000  0.4609870000000 1.0
C      1  0.5607560000000  0.4475830000000  0.4913430000000 1.0
C      1  0.4776220000000  0.5771030000000  0.4923760000000 1.0
C      1  0.5872590000000  0.5083020000000  0.4347840000000 1.0
C      1  0.5025840000000  0.5904240000000  0.4945170000000 1.0
C      1  0.5998150000000  0.5069690000000  0.4831940000000 1.0
C      1  0.5624500000000  0.4778480000000  0.5350300000000 1.0
C      1  0.5363790000000  0.4314590000000  0.4893420000000 1.0
C      1  0.4583080000000  0.4091610000000  0.4954450000000 1.0
C      1  0.4907050000000  0.5206500000000  0.5246430000000 1.0
C      1  0.5160330000000  0.5037400000000  0.4220480000000 1.0
C      1  0.4515450000000  0.5416160000000  0.5139500000000 1.0
C      1  0.4167880000000  0.5865020000000  0.4923680000000 1.0
C      1  0.4972650000000  0.4676310000000  0.4820980000000 1.0
C      1  0.5102240000000  0.4247270000000  0.4107740000000 1.0
C      1  0.4367840000000  0.4641430000000  0.4599050000000 1.0
C      1  0.5494270000000  0.5129830000000  0.4709430000000 1.0
C      1  0.4415450000000  0.4823620000000  0.4786620000000 1.0
C      1  0.4671850000000  0.5657990000000  0.5165270000000 1.0
C      1  0.4689480000000  0.5505360000000  0.4524730000000 1.0
C      1  0.4542130000000  0.4599120000000  0.5381340000000 1.0
C      1  0.4562640000000  0.4986140000000  0.4936760000000 1.0
C      1  0.5185910000000  0.4511360000000  0.5279010000000 1.0
C      1  0.4701230000000  0.5736450000000  0.5445880000000 1.0
C      1  0.5674570000000  0.4934170000000  0.4197250000000 1.0
C      1  0.4219530000000  0.5672930000000  0.5394620000000 1.0
C      1  0.5272110000000  0.5805650000000  0.4828490000000 1.0
C      1  0.5244850000000  0.4954580000000  0.5064530000000 1.0
C      1  0.5265200000000  0.4976890000000  0.5723640000000 1.0
C      1  0.4797640000000  0.5270790000000  0.4451510000000 1.0
C      1  0.5484570000000  0.4941110000000  0.4916560000000 1.0
C      1  0.5414120000000  0.5016790000000  0.4138000000000 1.0
C      1  0.4534420000000  0.4841620000000  0.5536630000000 1.0
C      1  0.5581520000000  0.4443120000000  0.4173840000000 1.0
C      1  0.4939780000000  0.4816810000000  0.4592630000000 1.0
C      1  0.5722380000000  0.4658200000000  0.4278830000000 1.0
C      1  0.5229710000000  0.5262250000000  0.5774870000000 1.0
C      1  0.4738020000000  0.4406060000000  0.5304370000000 1.0
C      1  0.5182360000000  0.5197950000000  0.5183590000000 1.0
C      1  0.4109400000000  0.5833370000000  0.5186230000000 1.0
C      1  0.4974130000000  0.4443900000000  0.5452780000000 1.0
C      1  0.4611620000000  0.5716330000000  0.4696220000000 1.0
C      1  0.4787990000000  0.4248460000000  0.5067040000000 1.0
C      1  0.4779480000000  0.4963780000000  0.5635350000000 1.0
C      1  0.5111680000000  0.4705010000000  0.5069100000000 1.0
C      1  0.5966130000000  0.4936980000000  0.4584200000000 1.0
C      1  0.5103720000000  0.4183410000000  0.4906660000000 1.0
C      1  0.4291020000000  0.4987350000000  0.5579490000000 1.0
C      1  0.4965120000000  0.5675260000000  0.5556180000000 1.0
C      1  0.4849770000000  0.5214080000000  0.5524430000000 1.0
C      1  0.5074250000000  0.3953890000000  0.4742920000000 1.0
C      1  0.5411930000000  0.5370930000000  0.5247130000000 1.0
C      1  0.4998840000000  0.4546910000000  0.5712460000000 1.0
C      1  0.5074480000000  0.6001550000000  0.5215710000000 1.0
C      1  0.5683420000000  0.5287520000000  0.5193510000000 1.0
C      1  0.5360990000000  0.4306200000000  0.4117580000000 1.0
C      1  0.5306690000000  0.5611540000000  0.4628370000000 1.0
C      1  0.4168460000000  0.5157190000000  0.5383040000000 1.0
C      1  0.5007080000000  0.5410830000000  0.5663910000000 1.0
C      1  0.4167330000000  0.4965030000000  0.5829950000000 1.0
C      1  0.4345200000000  0.5811470000000  0.4726860000000 1.0
C      1  0.4675060000000  0.5192740000000  0.5083880000000 1.0
C      1  0.4840560000000  0.4260570000000  0.4150810000000 1.0
C      1  0.5619920000000  0.4726850000000  0.5061440000000 1.0
END
