TITL C-627108-131-2078 3.27791341379109e-07 125000 -208.373536963256 0 0 35 (C1) n - 1
REM
REM in /home/nfs/bkarasulu/CARBON/AIRSS/Generating-Clusters/LCBOP/Only-C1/SD-CG/FIRE-CG
REM
REM
REM
REM
REM
REM ./C.cell (11c1c37f851c82e70ff6c80c92926a4b)
REM AIRSS Version 0.9.1 bugfix July 2018 build 013d7b7c2542+ Fri, 06 Jul 2018 19:26:36 +0100
REM compiler GCC version 9.2.1 20190827 (Red Hat 9.2.1-1)
REM options -cpp -mtune=generic -march=x86-64 -g -O0 -fpre-include=/usr/include/finclude/math-vector-fortran.h
REM seed 358134939 29537656 139463575 -35109867 1364555547 -1572178231 1151557881 2124757351 -781987458 331109070 1672122864 -1066236853 -136753016 -386681455 -1232648107 -1242530135 173267529 -1116076244 1892311089 1272313474 1707912579 -351731241 1401416497 -1687901109 1322955382 2145224375 1606835722 -83441362 29601698 -2101842682 -778814583 2053196576 1785735032
REM
CELL 1.54180   50.00000   50.00000   50.00000   90.00000   90.00000   90.00000
LATT -1
SFAC C  
C      1  0.4716070000000  0.4876840000000  0.5417920000000 1.0
C      1  0.4403340000000  0.5554820000000  0.4806730000000 1.0
C      1  0.5243750000000  0.5252060000000  0.5118370000000 1.0
C      1  0.5215210000000  0.4228200000000  0.5320910000000 1.0
C      1  0.5347050000000  0.5034710000000  0.5258720000000 1.0
C      1  0.4686800000000  0.5559070000000  0.4750940000000 1.0
C      1  0.4533720000000  0.4802160000000  0.4977250000000 1.0
C      1  0.5088460000000  0.4919340000000  0.4353940000000 1.0
C      1  0.5543950000000  0.4861880000000  0.5145120000000 1.0
C      1  0.5268740000000  0.4551730000000  0.4619920000000 1.0
C      1  0.4745280000000  0.4359060000000  0.5455250000000 1.0
C      1  0.4948110000000  0.4988160000000  0.5531220000000 1.0
C      1  0.4952420000000  0.5421790000000  0.4372180000000 1.0
C      1  0.5226910000000  0.4963130000000  0.5508800000000 1.0
C      1  0.5370580000000  0.4779180000000  0.5667800000000 1.0
C      1  0.5148960000000  0.5720620000000  0.5108760000000 1.0
C      1  0.4805920000000  0.5410280000000  0.4976450000000 1.0
C      1  0.4656270000000  0.4609370000000  0.5484100000000 1.0
C      1  0.4603760000000  0.4665750000000  0.4760070000000 1.0
C      1  0.5467880000000  0.4541530000000  0.5583270000000 1.0
C      1  0.4825990000000  0.6134950000000  0.4337290000000 1.0
C      1  0.5411470000000  0.4508740000000  0.4840480000000 1.0
C      1  0.5793820000000  0.4954290000000  0.5082910000000 1.0
C      1  0.5052980000000  0.4681880000000  0.4497970000000 1.0
C      1  0.4603150000000  0.4984740000000  0.5180290000000 1.0
C      1  0.5067770000000  0.5462400000000  0.5066770000000 1.0
C      1  0.5416730000000  0.4423880000000  0.5330030000000 1.0
C      1  0.4793120000000  0.4615190000000  0.4580070000000 1.0
C      1  0.4592370000000  0.5257540000000  0.5112860000000 1.0
C      1  0.5047140000000  0.5179540000000  0.4318120000000 1.0
C      1  0.5474290000000  0.4586810000000  0.5101750000000 1.0
C      1  0.4954930000000  0.4210960000000  0.5381050000000 1.0
C      1  0.4348990000000  0.5386660000000  0.5019620000000 1.0
C      1  0.4820300000000  0.5624920000000  0.4513150000000 1.0
C      1  0.4823790000000  0.5887800000000  0.4419920000000 1.0
END
