TITL C-627108-131-1611 0.712139686818366 125000 -641.92497029624 0 0 106 (C1) n - 1
REM
REM in /home/nfs/bkarasulu/CARBON/AIRSS/Generating-Clusters/LCBOP/Only-C1/SD-CG/FIRE-CG
REM
REM
REM
REM
REM
REM ./C.cell (11c1c37f851c82e70ff6c80c92926a4b)
REM AIRSS Version 0.9.1 bugfix July 2018 build 013d7b7c2542+ Fri, 06 Jul 2018 19:26:36 +0100
REM compiler GCC version 9.2.1 20190827 (Red Hat 9.2.1-1)
REM options -cpp -mtune=generic -march=x86-64 -g -O0 -fpre-include=/usr/include/finclude/math-vector-fortran.h
REM seed 147484237 1418284589 -203036538 -2078436126 -1660389051 -550325468 -1634065536 -882100812 1326816369 1083592720 -622682340 2115982941 13978440 -254701350 1571219689 1502917005 813245208 -1114470493 1997235031 1693329131 -965689184 1025550600 -1035657164 -1911242484 -1153348631 -106245896 -1738148063 1387641371 553975995 461194359 1583778495 1618713093 -161089618
REM
CELL 1.54180   50.00000   50.00000   50.00000   90.00000   90.00000   90.00000
LATT -1
SFAC C  
C      1  0.4300680000000  0.5136710000000  0.5289400000000 1.0
C      1  0.5299020000000  0.5462400000000  0.3981660000000 1.0
C      1  0.3651800000000  0.4560330000000  0.5341400000000 1.0
C      1  0.6018360000000  0.4308890000000  0.4751870000000 1.0
C      1  0.4576680000000  0.5103550000000  0.5230300000000 1.0
C      1  0.4444070000000  0.4858320000000  0.6128070000000 1.0
C      1  0.4639850000000  0.5314110000000  0.6066400000000 1.0
C      1  0.4552850000000  0.5444870000000  0.5833030000000 1.0
C      1  0.5471460000000  0.4645630000000  0.4841500000000 1.0
C      1  0.5741280000000  0.3170440000000  0.5873540000000 1.0
C      1  0.4805410000000  0.5245970000000  0.4724440000000 1.0
C      1  0.4274410000000  0.4781120000000  0.5934510000000 1.0
C      1  0.5284930000000  0.5174320000000  0.5232940000000 1.0
C      1  0.5996670000000  0.4061630000000  0.6036990000000 1.0
C      1  0.4211090000000  0.5584450000000  0.5085830000000 1.0
C      1  0.4941940000000  0.5545900000000  0.4302750000000 1.0
C      1  0.5042440000000  0.6070360000000  0.5145910000000 1.0
C      1  0.5241680000000  0.5093590000000  0.4462830000000 1.0
C      1  0.4330670000000  0.5836080000000  0.5125160000000 1.0
C      1  0.4027930000000  0.4959240000000  0.4037320000000 1.0
C      1  0.5722460000000  0.5814420000000  0.4544210000000 1.0
C      1  0.5084750000000  0.5074490000000  0.3820080000000 1.0
C      1  0.4763220000000  0.6046140000000  0.5198640000000 1.0
C      1  0.5665930000000  0.5596150000000  0.4365310000000 1.0
C      1  0.5441030000000  0.5003940000000  0.4289410000000 1.0
C      1  0.5786080000000  0.4690790000000  0.5703640000000 1.0
C      1  0.3563180000000  0.4517530000000  0.5587510000000 1.0
C      1  0.4091130000000  0.4524590000000  0.4760880000000 1.0
C      1  0.3859860000000  0.4996740000000  0.4257830000000 1.0
C      1  0.5036190000000  0.4902990000000  0.4513010000000 1.0
C      1  0.5287490000000  0.5508670000000  0.4847120000000 1.0
C      1  0.4939080000000  0.4813800000000  0.4977760000000 1.0
C      1  0.5083640000000  0.5576360000000  0.5336430000000 1.0
C      1  0.4340220000000  0.5964680000000  0.5384610000000 1.0
C      1  0.4948420000000  0.4913990000000  0.5454970000000 1.0
C      1  0.4711060000000  0.5893030000000  0.5679290000000 1.0
C      1  0.5309490000000  0.5306660000000  0.4644850000000 1.0
C      1  0.5546610000000  0.6090090000000  0.4979150000000 1.0
C      1  0.4781970000000  0.4895630000000  0.5222020000000 1.0
C      1  0.5846920000000  0.2911810000000  0.5889030000000 1.0
C      1  0.4702910000000  0.5357970000000  0.5211400000000 1.0
C      1  0.5660550000000  0.4733220000000  0.5459240000000 1.0
C      1  0.5201910000000  0.4653890000000  0.4985770000000 1.0
C      1  0.5380950000000  0.4735880000000  0.5430440000000 1.0
C      1  0.6113040000000  0.2919200000000  0.5806890000000 1.0
C      1  0.5702710000000  0.4575520000000  0.5004770000000 1.0
C      1  0.4819520000000  0.5508430000000  0.5429790000000 1.0
C      1  0.5835460000000  0.4328060000000  0.4954730000000 1.0
C      1  0.5653840000000  0.6275280000000  0.5148010000000 1.0
C      1  0.5981250000000  0.3816410000000  0.5936400000000 1.0
C      1  0.3930360000000  0.4962550000000  0.3782340000000 1.0
C      1  0.4947170000000  0.4678970000000  0.4361010000000 1.0
C      1  0.4593180000000  0.5075470000000  0.6180830000000 1.0
C      1  0.5278930000000  0.5988940000000  0.5006250000000 1.0
C      1  0.5890910000000  0.4548850000000  0.5901780000000 1.0
C      1  0.4312500000000  0.5347560000000  0.5719150000000 1.0
C      1  0.5225300000000  0.4973120000000  0.5427300000000 1.0
C      1  0.4779010000000  0.5339890000000  0.4440920000000 1.0
C      1  0.4567970000000  0.6074190000000  0.4739800000000 1.0
C      1  0.4998360000000  0.5463830000000  0.4031010000000 1.0
C      1  0.4876890000000  0.5202480000000  0.3975580000000 1.0
C      1  0.5845800000000  0.3733070000000  0.5483390000000 1.0
C      1  0.4300060000000  0.4918180000000  0.4088140000000 1.0
C      1  0.3968360000000  0.5179610000000  0.4940600000000 1.0
C      1  0.5965500000000  0.4325030000000  0.6023610000000 1.0
C      1  0.4886230000000  0.4967680000000  0.4740580000000 1.0
C      1  0.6016710000000  0.4907850000000  0.5174180000000 1.0
C      1  0.5395950000000  0.4470420000000  0.4396850000000 1.0
C      1  0.4666870000000  0.4675120000000  0.4312880000000 1.0
C      1  0.3883210000000  0.4963540000000  0.4784940000000 1.0
C      1  0.5693230000000  0.5978320000000  0.4757800000000 1.0
C      1  0.4230840000000  0.5124580000000  0.5564530000000 1.0
C      1  0.4561540000000  0.5962220000000  0.4994680000000 1.0
C      1  0.5945730000000  0.3358570000000  0.5776870000000 1.0
C      1  0.4152100000000  0.5306420000000  0.5108820000000 1.0
C      1  0.5238400000000  0.5788030000000  0.4809050000000 1.0
C      1  0.5178090000000  0.5696810000000  0.4359660000000 1.0
C      1  0.6178340000000  0.3182570000000  0.5738630000000 1.0
C      1  0.5003430000000  0.6113010000000  0.4516520000000 1.0
C      1  0.5259590000000  0.4547940000000  0.5251960000000 1.0
C      1  0.5322420000000  0.5221710000000  0.3821480000000 1.0
C      1  0.4292510000000  0.4450260000000  0.4604290000000 1.0
C      1  0.5156120000000  0.5408150000000  0.5092700000000 1.0
C      1  0.4552410000000  0.4915030000000  0.4206420000000 1.0
C      1  0.4714670000000  0.5609900000000  0.5670560000000 1.0
C      1  0.4181360000000  0.4886250000000  0.5705200000000 1.0
C      1  0.5416170000000  0.5600590000000  0.4214310000000 1.0
C      1  0.5802540000000  0.4743020000000  0.5212430000000 1.0
C      1  0.4864300000000  0.5374340000000  0.4973590000000 1.0
C      1  0.5161060000000  0.5886060000000  0.4557540000000 1.0
C      1  0.5820850000000  0.5356720000000  0.4398430000000 1.0
C      1  0.5793790000000  0.3901520000000  0.5285210000000 1.0
C      1  0.3809700000000  0.5001820000000  0.4518250000000 1.0
C      1  0.5540640000000  0.4651640000000  0.4561510000000 1.0
C      1  0.5924510000000  0.3632970000000  0.5732770000000 1.0
C      1  0.4497070000000  0.4492560000000  0.4439570000000 1.0
C      1  0.5782960000000  0.4107340000000  0.5118380000000 1.0
C      1  0.5851700000000  0.5091080000000  0.4454810000000 1.0
C      1  0.5660900000000  0.4880760000000  0.4426950000000 1.0
C      1  0.4711200000000  0.5148970000000  0.4210530000000 1.0
C      1  0.3485610000000  0.4480420000000  0.5833620000000 1.0
C      1  0.5140730000000  0.4482280000000  0.4309430000000 1.0
C      1  0.4614330000000  0.6034710000000  0.5455780000000 1.0
C      1  0.3761850000000  0.4615760000000  0.5106930000000 1.0
C      1  0.3909310000000  0.4697890000000  0.4884930000000 1.0
C      1  0.4746640000000  0.6169120000000  0.4565680000000 1.0
END
