TITL C-627112-676-15 0.630836727035696 125000 -143.644138308281 0 0 26 (C1) n - 1
REM
REM in /home/nfs/bkarasulu/CARBON/AIRSS/Generating-Clusters/LCBOP/Only-C1/SD-CG/FIRE-CG
REM
REM
REM
REM
REM
REM ./C.cell (11c1c37f851c82e70ff6c80c92926a4b)
REM AIRSS Version 0.9.1 bugfix July 2018 build 013d7b7c2542+ Fri, 06 Jul 2018 19:26:36 +0100
REM compiler GCC version 9.2.1 20190827 (Red Hat 9.2.1-1)
REM options -cpp -mtune=generic -march=x86-64 -g -O0 -fpre-include=/usr/include/finclude/math-vector-fortran.h
REM seed -2124108030 -629526895 -718939265 -1939235655 583439814 1358698871 -1919975934 321822837 -541172039 1867412252 -142284628 -606385733 633388851 1025522148 -1560790914 1861168620 860746815 -1766260213 -175269749 1938268222 1148956232 -951902155 1741074283 -856343545 1927759921 1161899113 862410440 1077407174 1961057435 1637997838 -1519394617 -1369736292 -913237058
REM
CELL 1.54180   50.00000   50.00000   50.00000   90.00000   90.00000   90.00000
LATT -1
SFAC C  
C      1  0.4716120000000  0.5181180000000  0.4329980000000 1.0
C      1  0.5768580000000  0.4123140000000  0.5490970000000 1.0
C      1  0.5225520000000  0.5613210000000  0.4874090000000 1.0
C      1  0.4969120000000  0.5551790000000  0.4801290000000 1.0
C      1  0.4439680000000  0.5253330000000  0.5348120000000 1.0
C      1  0.4792310000000  0.5225050000000  0.4065520000000 1.0
C      1  0.4911180000000  0.5142540000000  0.4534860000000 1.0
C      1  0.5634780000000  0.4280200000000  0.6184210000000 1.0
C      1  0.4507060000000  0.5197810000000  0.5089280000000 1.0
C      1  0.4289030000000  0.5182480000000  0.4620630000000 1.0
C      1  0.5325070000000  0.4802500000000  0.4469080000000 1.0
C      1  0.4784380000000  0.5753490000000  0.4743500000000 1.0
C      1  0.4870030000000  0.5265630000000  0.3820110000000 1.0
C      1  0.5124760000000  0.4967230000000  0.4494450000000 1.0
C      1  0.5624170000000  0.4283930000000  0.5919500000000 1.0
C      1  0.5435420000000  0.4467750000000  0.5515330000000 1.0
C      1  0.5611170000000  0.4289730000000  0.5640250000000 1.0
C      1  0.5645060000000  0.4276710000000  0.6444680000000 1.0
C      1  0.4445920000000  0.5178970000000  0.4404860000000 1.0
C      1  0.4937590000000  0.4975530000000  0.5160640000000 1.0
C      1  0.5268230000000  0.4637200000000  0.5399160000000 1.0
C      1  0.4886450000000  0.5280500000000  0.4783180000000 1.0
C      1  0.4313540000000  0.5189540000000  0.4886220000000 1.0
C      1  0.4595290000000  0.5922870000000  0.4684600000000 1.0
C      1  0.5101260000000  0.4806670000000  0.5282460000000 1.0
C      1  0.4778260000000  0.5151010000000  0.5013050000000 1.0
END
