TITL C-627113-6568-301 5.71857422805308e-07 125000 -638.748123340505 0 0 104 (C1) n - 1
REM
REM in /home/nfs/bkarasulu/CARBON/AIRSS/Generating-Clusters/LCBOP/Only-C1/SD-CG/FIRE-CG
REM
REM
REM
REM
REM
REM ./C.cell (11c1c37f851c82e70ff6c80c92926a4b)
REM AIRSS Version 0.9.1 bugfix July 2018 build 013d7b7c2542+ Fri, 06 Jul 2018 19:26:36 +0100
REM compiler GCC version 9.2.1 20190827 (Red Hat 9.2.1-1)
REM options -cpp -mtune=generic -march=x86-64 -g -O0 -fpre-include=/usr/include/finclude/math-vector-fortran.h
REM seed 498279984 76549599 -1025193244 2013274618 -1953070416 -1786607997 -1285510310 1547317333 -1200053573 1141116426 1937369159 -494801216 338757305 1929328066 1558830089 1083133170 -255417434 -1043387823 -1890300740 -2006152575 1854487310 1268752486 211761005 1626750022 324808158 -1972429058 1799453425 -1362161 -1450498564 -949349926 -1549534347 -2027019946 1287131842
REM
CELL 1.54180   50.00000   50.00000   50.00000   90.00000   90.00000   90.00000
LATT -1
SFAC C  
C      1  0.4763340000000  0.4576770000000  0.5574200000000 1.0
C      1  0.4745990000000  0.4797670000000  0.4767430000000 1.0
C      1  0.4871460000000  0.5146230000000  0.5216510000000 1.0
C      1  0.5534010000000  0.5127450000000  0.5849950000000 1.0
C      1  0.5141150000000  0.4020790000000  0.4397430000000 1.0
C      1  0.5001200000000  0.5746020000000  0.5403950000000 1.0
C      1  0.6216620000000  0.5365640000000  0.4958280000000 1.0
C      1  0.5600800000000  0.4185500000000  0.4622180000000 1.0
C      1  0.4738830000000  0.5846070000000  0.5433000000000 1.0
C      1  0.4017030000000  0.4642040000000  0.5099830000000 1.0
C      1  0.5680430000000  0.5203540000000  0.5617080000000 1.0
C      1  0.5193000000000  0.4707330000000  0.5655190000000 1.0
C      1  0.4538310000000  0.5399810000000  0.4709600000000 1.0
C      1  0.4956350000000  0.4628350000000  0.5777000000000 1.0
C      1  0.5032940000000  0.5509510000000  0.4599090000000 1.0
C      1  0.5004150000000  0.4961960000000  0.3731560000000 1.0
C      1  0.5392880000000  0.4057870000000  0.4497020000000 1.0
C      1  0.4973170000000  0.4176600000000  0.5233240000000 1.0
C      1  0.5813430000000  0.4617980000000  0.4876580000000 1.0
C      1  0.4487860000000  0.5641500000000  0.5773730000000 1.0
C      1  0.5505940000000  0.4797800000000  0.4345150000000 1.0
C      1  0.4817460000000  0.5441120000000  0.4783620000000 1.0
C      1  0.5090700000000  0.4927710000000  0.4159930000000 1.0
C      1  0.4174850000000  0.4851260000000  0.5151730000000 1.0
C      1  0.5849760000000  0.5028030000000  0.5178390000000 1.0
C      1  0.5377240000000  0.5223130000000  0.5251850000000 1.0
C      1  0.6376980000000  0.5534540000000  0.4841200000000 1.0
C      1  0.4962470000000  0.4513720000000  0.4064500000000 1.0
C      1  0.5018550000000  0.4418390000000  0.4752880000000 1.0
C      1  0.5235750000000  0.5701190000000  0.4653540000000 1.0
C      1  0.4430160000000  0.4952560000000  0.5096850000000 1.0
C      1  0.4638890000000  0.4982590000000  0.5289940000000 1.0
C      1  0.4954220000000  0.4781910000000  0.3953940000000 1.0
C      1  0.5818140000000  0.4823630000000  0.4670560000000 1.0
C      1  0.4008480000000  0.4404640000000  0.4977700000000 1.0
C      1  0.5564970000000  0.4848330000000  0.5903130000000 1.0
C      1  0.5640560000000  0.5147470000000  0.5341150000000 1.0
C      1  0.4468880000000  0.6285440000000  0.4857450000000 1.0
C      1  0.4602480000000  0.5464750000000  0.5957450000000 1.0
C      1  0.5372650000000  0.4901440000000  0.4125380000000 1.0
C      1  0.5257970000000  0.4171370000000  0.5187840000000 1.0
C      1  0.4590370000000  0.4009700000000  0.4912170000000 1.0
C      1  0.5068070000000  0.5580230000000  0.5185840000000 1.0
C      1  0.4421310000000  0.4181430000000  0.4763690000000 1.0
C      1  0.5024300000000  0.4934920000000  0.6153280000000 1.0
C      1  0.4833850000000  0.4363170000000  0.5399810000000 1.0
C      1  0.5003970000000  0.5068570000000  0.4384130000000 1.0
C      1  0.4553920000000  0.4383130000000  0.4614390000000 1.0
C      1  0.4349060000000  0.5572160000000  0.4839750000000 1.0
C      1  0.5669360000000  0.5483630000000  0.4583610000000 1.0
C      1  0.5112330000000  0.5327630000000  0.4396470000000 1.0
C      1  0.5467590000000  0.4656030000000  0.5720240000000 1.0
C      1  0.4156540000000  0.4226970000000  0.4843710000000 1.0
C      1  0.5667840000000  0.4982450000000  0.4484740000000 1.0
C      1  0.5575130000000  0.4582240000000  0.5457640000000 1.0
C      1  0.5358050000000  0.4667530000000  0.4960010000000 1.0
C      1  0.5063990000000  0.5198170000000  0.6061430000000 1.0
C      1  0.5206300000000  0.4466190000000  0.4224770000000 1.0
C      1  0.4076740000000  0.5546920000000  0.4781460000000 1.0
C      1  0.3822690000000  0.5508730000000  0.4737770000000 1.0
C      1  0.5280980000000  0.5546390000000  0.5806800000000 1.0
C      1  0.6043760000000  0.5198350000000  0.5069220000000 1.0
C      1  0.4400860000000  0.4871540000000  0.5700870000000 1.0
C      1  0.4444370000000  0.4730050000000  0.4291650000000 1.0
C      1  0.4518750000000  0.4946310000000  0.4833410000000 1.0
C      1  0.4603180000000  0.4808120000000  0.5516910000000 1.0
C      1  0.4901110000000  0.4101100000000  0.4291350000000 1.0
C      1  0.4122000000000  0.5440430000000  0.5485280000000 1.0
C      1  0.5839800000000  0.4583400000000  0.5367100000000 1.0
C      1  0.5166750000000  0.5715200000000  0.5632840000000 1.0
C      1  0.4929900000000  0.4707680000000  0.6043830000000 1.0
C      1  0.5598310000000  0.5264980000000  0.4415910000000 1.0
C      1  0.5503660000000  0.4226890000000  0.5080110000000 1.0
C      1  0.5136500000000  0.5064260000000  0.5296060000000 1.0
C      1  0.4883490000000  0.5395330000000  0.5063460000000 1.0
C      1  0.5503390000000  0.5651000000000  0.4740820000000 1.0
C      1  0.4454360000000  0.5133030000000  0.4627380000000 1.0
C      1  0.4504600000000  0.5718320000000  0.5300340000000 1.0
C      1  0.4932860000000  0.4938520000000  0.4616620000000 1.0
C      1  0.4767550000000  0.4340250000000  0.4187150000000 1.0
C      1  0.5671940000000  0.4338310000000  0.4861570000000 1.0
C      1  0.4496560000000  0.6531140000000  0.4774820000000 1.0
C      1  0.4432140000000  0.5769680000000  0.5030850000000 1.0
C      1  0.4407370000000  0.4987440000000  0.4382310000000 1.0
C      1  0.3882880000000  0.5339930000000  0.5460040000000 1.0
C      1  0.4648300000000  0.5873910000000  0.5706930000000 1.0
C      1  0.4803520000000  0.4012890000000  0.5075390000000 1.0
C      1  0.5381410000000  0.4661250000000  0.5241510000000 1.0
C      1  0.4443350000000  0.6035590000000  0.4941700000000 1.0
C      1  0.5303560000000  0.5288660000000  0.5925770000000 1.0
C      1  0.4358380000000  0.5581750000000  0.5515960000000 1.0
C      1  0.5525800000000  0.5633940000000  0.5020020000000 1.0
C      1  0.5879590000000  0.4740010000000  0.5135670000000 1.0
C      1  0.4759420000000  0.4519240000000  0.4755150000000 1.0
C      1  0.5164850000000  0.5187930000000  0.3766130000000 1.0
C      1  0.5315270000000  0.5323370000000  0.3955170000000 1.0
C      1  0.5362070000000  0.5337710000000  0.4243290000000 1.0
C      1  0.5181980000000  0.4806280000000  0.5388180000000 1.0
C      1  0.5353710000000  0.4580900000000  0.4445800000000 1.0
C      1  0.4221470000000  0.4901230000000  0.5887570000000 1.0
C      1  0.5261050000000  0.4556870000000  0.4717420000000 1.0
C      1  0.4550820000000  0.4463890000000  0.4337900000000 1.0
C      1  0.4828260000000  0.5355640000000  0.6050710000000 1.0
C      1  0.5338720000000  0.5491810000000  0.5171110000000 1.0
END
