TITL C-627106-156-1588 4.56641370753078 125000 -1239.52420377524 0 0 200 (C1) n - 1
REM
REM in /home/nfs/bkarasulu/CARBON/AIRSS/Generating-Clusters/LCBOP/Only-C1/SD-CG/FIRE-CG
REM
REM
REM
REM
REM
REM ./C.cell (11c1c37f851c82e70ff6c80c92926a4b)
REM AIRSS Version 0.9.1 bugfix July 2018 build 013d7b7c2542+ Fri, 06 Jul 2018 19:26:36 +0100
REM compiler GCC version 9.2.1 20190827 (Red Hat 9.2.1-1)
REM options -cpp -mtune=generic -march=x86-64 -g -O0 -fpre-include=/usr/include/finclude/math-vector-fortran.h
REM seed 1149056808 856472374 1034180100 -441036658 384161320 -1607344586 327026736 858473291 -11249941 1941796363 342852018 1863028568 -705950436 -295291580 -149998324 -1676829281 964734646 -1658303312 358067027 1524644118 -954520524 1758929972 1767852914 746517762 -1001627446 631321577 -1528399577 -910361273 701522147 -560797103 1829529006 1308990449 222802782
REM
CELL 1.54180   50.00000   50.00000   50.00000   90.00000   90.00000   90.00000
LATT -1
SFAC C  
C      1  0.4126020000000  0.4601380000000  0.5734560000000 1.0
C      1  0.5362950000000  0.4026130000000  0.4890610000000 1.0
C      1  0.4998640000000  0.4356310000000  0.4899910000000 1.0
C      1  0.4970520000000  0.4185260000000  0.4058740000000 1.0
C      1  0.4347820000000  0.4800370000000  0.3967240000000 1.0
C      1  0.4076990000000  0.5585540000000  0.4417710000000 1.0
C      1  0.4426970000000  0.5241230000000  0.4850340000000 1.0
C      1  0.5656660000000  0.4510750000000  0.4331390000000 1.0
C      1  0.4085130000000  0.5153800000000  0.4201750000000 1.0
C      1  0.4819850000000  0.6002190000000  0.5559880000000 1.0
C      1  0.4566460000000  0.5051380000000  0.5760130000000 1.0
C      1  0.5200360000000  0.5789290000000  0.4651560000000 1.0
C      1  0.4847400000000  0.5551910000000  0.5392340000000 1.0
C      1  0.6309600000000  0.5151690000000  0.4705640000000 1.0
C      1  0.6285230000000  0.6028620000000  0.5749240000000 1.0
C      1  0.4304950000000  0.4544330000000  0.5096630000000 1.0
C      1  0.4999830000000  0.4303070000000  0.4618630000000 1.0
C      1  0.5382680000000  0.4595890000000  0.4314770000000 1.0
C      1  0.4857250000000  0.5387030000000  0.4463760000000 1.0
C      1  0.3675370000000  0.4866780000000  0.4307200000000 1.0
C      1  0.3630170000000  0.4737160000000  0.4787440000000 1.0
C      1  0.5408610000000  0.5340610000000  0.4697200000000 1.0
C      1  0.4916230000000  0.5189040000000  0.5115610000000 1.0
C      1  0.5059540000000  0.4930590000000  0.6706670000000 1.0
C      1  0.4010770000000  0.4250550000000  0.4859070000000 1.0
C      1  0.4414190000000  0.4556350000000  0.5774430000000 1.0
C      1  0.5042050000000  0.4906440000000  0.5614980000000 1.0
C      1  0.5002120000000  0.5938280000000  0.4785290000000 1.0
C      1  0.3766930000000  0.5171060000000  0.5920760000000 1.0
C      1  0.5319340000000  0.4792430000000  0.6003820000000 1.0
C      1  0.5234770000000  0.4425910000000  0.6267180000000 1.0
C      1  0.4758250000000  0.4790960000000  0.4999680000000 1.0
C      1  0.5154350000000  0.5015670000000  0.4415540000000 1.0
C      1  0.3562840000000  0.4907680000000  0.4568170000000 1.0
C      1  0.4488270000000  0.4283490000000  0.3943370000000 1.0
C      1  0.5454460000000  0.4749230000000  0.5389890000000 1.0
C      1  0.6481710000000  0.5706000000000  0.4900650000000 1.0
C      1  0.5649360000000  0.6045990000000  0.5114110000000 1.0
C      1  0.5826040000000  0.4681440000000  0.5704660000000 1.0
C      1  0.4900540000000  0.5570760000000  0.3993990000000 1.0
C      1  0.4128990000000  0.5945670000000  0.4693560000000 1.0
C      1  0.5773020000000  0.4079880000000  0.5684620000000 1.0
C      1  0.4844860000000  0.4068390000000  0.4547220000000 1.0
C      1  0.5072020000000  0.4664570000000  0.6690510000000 1.0
C      1  0.6233250000000  0.5650420000000  0.4779210000000 1.0
C      1  0.5600560000000  0.4830300000000  0.5620530000000 1.0
C      1  0.4615550000000  0.5539150000000  0.3958250000000 1.0
C      1  0.4390820000000  0.5851160000000  0.4602600000000 1.0
C      1  0.5337190000000  0.5499600000000  0.5382100000000 1.0
C      1  0.3743410000000  0.4809780000000  0.5042750000000 1.0
C      1  0.5452530000000  0.4965190000000  0.5831180000000 1.0
C      1  0.4321050000000  0.5730590000000  0.4347890000000 1.0
C      1  0.5510180000000  0.5102190000000  0.3623350000000 1.0
C      1  0.6263080000000  0.6090720000000  0.6001380000000 1.0
C      1  0.4931030000000  0.3829960000000  0.6147720000000 1.0
C      1  0.5846240000000  0.4513530000000  0.5934500000000 1.0
C      1  0.5328010000000  0.5579670000000  0.5104180000000 1.0
C      1  0.5627190000000  0.5000620000000  0.4239720000000 1.0
C      1  0.3850020000000  0.5222970000000  0.4051790000000 1.0
C      1  0.6074410000000  0.5941980000000  0.5316970000000 1.0
C      1  0.4166740000000  0.5909730000000  0.5211020000000 1.0
C      1  0.5809160000000  0.5102320000000  0.4041110000000 1.0
C      1  0.5028280000000  0.5117730000000  0.3818580000000 1.0
C      1  0.6057090000000  0.5415570000000  0.4372770000000 1.0
C      1  0.5587900000000  0.5512000000000  0.5517130000000 1.0
C      1  0.5169480000000  0.3636450000000  0.5115740000000 1.0
C      1  0.4607110000000  0.4116130000000  0.4394600000000 1.0
C      1  0.5406930000000  0.6140280000000  0.5184380000000 1.0
C      1  0.5798750000000  0.5508000000000  0.4449610000000 1.0
C      1  0.4670290000000  0.6082550000000  0.5124200000000 1.0
C      1  0.5901470000000  0.4096740000000  0.5432920000000 1.0
C      1  0.5070170000000  0.4295440000000  0.6065830000000 1.0
C      1  0.5106830000000  0.5164020000000  0.6587210000000 1.0
C      1  0.4184940000000  0.5199390000000  0.5434510000000 1.0
C      1  0.5191960000000  0.4863760000000  0.5375940000000 1.0
C      1  0.6223920000000  0.5410530000000  0.4608300000000 1.0
C      1  0.5516050000000  0.4147790000000  0.4678020000000 1.0
C      1  0.5507520000000  0.4513790000000  0.5236280000000 1.0
C      1  0.4919280000000  0.4843840000000  0.4462300000000 1.0
C      1  0.5261940000000  0.5100800000000  0.4679960000000 1.0
C      1  0.5879320000000  0.4836570000000  0.4626040000000 1.0
C      1  0.5689190000000  0.4372190000000  0.4780750000000 1.0
C      1  0.5135870000000  0.3690800000000  0.4652940000000 1.0
C      1  0.5293270000000  0.3751140000000  0.4885140000000 1.0
C      1  0.4659740000000  0.4755080000000  0.4455890000000 1.0
C      1  0.4169340000000  0.5241910000000  0.4712250000000 1.0
C      1  0.5903580000000  0.4245230000000  0.5208440000000 1.0
C      1  0.5244330000000  0.5108640000000  0.3641240000000 1.0
C      1  0.4533740000000  0.5638510000000  0.5751940000000 1.0
C      1  0.5407800000000  0.4081730000000  0.4404630000000 1.0
C      1  0.3635460000000  0.5062700000000  0.4104160000000 1.0
C      1  0.4895750000000  0.3632540000000  0.5117780000000 1.0
C      1  0.3992960000000  0.4719580000000  0.5956530000000 1.0
C      1  0.5313570000000  0.4306020000000  0.5275960000000 1.0
C      1  0.4394970000000  0.6054620000000  0.5199480000000 1.0
C      1  0.6610060000000  0.5785280000000  0.5120440000000 1.0
C      1  0.4117480000000  0.4285090000000  0.4583550000000 1.0
C      1  0.5728770000000  0.4634990000000  0.6167620000000 1.0
C      1  0.5774610000000  0.4566840000000  0.4588860000000 1.0
C      1  0.3708200000000  0.4494910000000  0.4654390000000 1.0
C      1  0.5177660000000  0.6185020000000  0.4356570000000 1.0
C      1  0.5878450000000  0.4239040000000  0.5892500000000 1.0
C      1  0.6131160000000  0.4929380000000  0.4713930000000 1.0
C      1  0.6014590000000  0.5841780000000  0.4833620000000 1.0
C      1  0.4921860000000  0.4645500000000  0.3804700000000 1.0
C      1  0.3887720000000  0.5063930000000  0.5062390000000 1.0
C      1  0.5200460000000  0.5303980000000  0.6381010000000 1.0
C      1  0.4554380000000  0.4993000000000  0.3882030000000 1.0
C      1  0.5208100000000  0.4080480000000  0.4206310000000 1.0
C      1  0.4448410000000  0.5709200000000  0.4104130000000 1.0
C      1  0.4373400000000  0.4524270000000  0.3890690000000 1.0
C      1  0.4827980000000  0.4910540000000  0.3824010000000 1.0
C      1  0.5870110000000  0.5937120000000  0.4607600000000 1.0
C      1  0.3983320000000  0.5727300000000  0.5129390000000 1.0
C      1  0.4292320000000  0.3767460000000  0.5107760000000 1.0
C      1  0.3937060000000  0.5287330000000  0.4886360000000 1.0
C      1  0.5095910000000  0.6703070000000  0.4387600000000 1.0
C      1  0.5149290000000  0.6185780000000  0.5249390000000 1.0
C      1  0.5518140000000  0.5850530000000  0.4254520000000 1.0
C      1  0.5014060000000  0.4405750000000  0.3881630000000 1.0
C      1  0.5492450000000  0.5217650000000  0.5950630000000 1.0
C      1  0.4470950000000  0.4146310000000  0.4857930000000 1.0
C      1  0.6822400000000  0.5083220000000  0.4860650000000 1.0
C      1  0.5084850000000  0.5419140000000  0.5509290000000 1.0
C      1  0.5723330000000  0.4413290000000  0.5067220000000 1.0
C      1  0.4524010000000  0.4381310000000  0.5012120000000 1.0
C      1  0.4883470000000  0.4427210000000  0.5887510000000 1.0
C      1  0.5318080000000  0.5579220000000  0.4816360000000 1.0
C      1  0.5023800000000  0.5314670000000  0.4022120000000 1.0
C      1  0.3935260000000  0.4479180000000  0.4466990000000 1.0
C      1  0.5912260000000  0.5936290000000  0.5088260000000 1.0
C      1  0.4430560000000  0.5134920000000  0.5538840000000 1.0
C      1  0.4259630000000  0.5602730000000  0.5686480000000 1.0
C      1  0.4309910000000  0.4834940000000  0.5111570000000 1.0
C      1  0.3840230000000  0.5355400000000  0.5740910000000 1.0
C      1  0.4662010000000  0.5476480000000  0.5951660000000 1.0
C      1  0.3932980000000  0.4708660000000  0.4289690000000 1.0
C      1  0.5570860000000  0.5891850000000  0.3987970000000 1.0
C      1  0.6575020000000  0.5115530000000  0.4785310000000 1.0
C      1  0.5916860000000  0.5129250000000  0.6108550000000 1.0
C      1  0.6544400000000  0.5882840000000  0.5360690000000 1.0
C      1  0.5782550000000  0.5460030000000  0.5700350000000 1.0
C      1  0.5855220000000  0.4889140000000  0.6228160000000 1.0
C      1  0.5140260000000  0.4463020000000  0.6528740000000 1.0
C      1  0.4718390000000  0.5740070000000  0.5562790000000 1.0
C      1  0.4574570000000  0.5477560000000  0.4933370000000 1.0
C      1  0.4593330000000  0.4564620000000  0.4282750000000 1.0
C      1  0.6301120000000  0.5953850000000  0.5481820000000 1.0
C      1  0.4069040000000  0.5411900000000  0.5588700000000 1.0
C      1  0.4878390000000  0.6132900000000  0.5316610000000 1.0
C      1  0.4750020000000  0.5933830000000  0.4897480000000 1.0
C      1  0.4735970000000  0.3750260000000  0.4911880000000 1.0
C      1  0.6038130000000  0.5247190000000  0.4142200000000 1.0
C      1  0.5367840000000  0.4875790000000  0.4256850000000 1.0
C      1  0.5247210000000  0.4935340000000  0.4901440000000 1.0
C      1  0.5766270000000  0.5299430000000  0.5934330000000 1.0
C      1  0.4472560000000  0.4834790000000  0.4641640000000 1.0
C      1  0.5796470000000  0.4404110000000  0.4122880000000 1.0
C      1  0.5033070000000  0.5772520000000  0.4148800000000 1.0
C      1  0.4672080000000  0.5546840000000  0.6214390000000 1.0
C      1  0.4123290000000  0.5305210000000  0.4438470000000 1.0
C      1  0.4752330000000  0.3666150000000  0.6243360000000 1.0
C      1  0.4884860000000  0.4699200000000  0.5755930000000 1.0
C      1  0.4119420000000  0.5025220000000  0.5223930000000 1.0
C      1  0.4779910000000  0.4507100000000  0.4999510000000 1.0
C      1  0.3859050000000  0.4593970000000  0.5219950000000 1.0
C      1  0.4386040000000  0.4180340000000  0.4573700000000 1.0
C      1  0.5351550000000  0.3930860000000  0.5918360000000 1.0
C      1  0.4567130000000  0.5739740000000  0.4798420000000 1.0
C      1  0.5725380000000  0.5044860000000  0.4505720000000 1.0
C      1  0.3840880000000  0.4931870000000  0.6014530000000 1.0
C      1  0.5107110000000  0.4985960000000  0.5136920000000 1.0
C      1  0.5730740000000  0.5099550000000  0.3773410000000 1.0
C      1  0.5137170000000  0.6446390000000  0.4368270000000 1.0
C      1  0.4508350000000  0.4950620000000  0.4913970000000 1.0
C      1  0.4602340000000  0.4778300000000  0.5774080000000 1.0
C      1  0.4766680000000  0.5233800000000  0.5845740000000 1.0
C      1  0.5028550000000  0.5251040000000  0.4295210000000 1.0
C      1  0.5334350000000  0.4141270000000  0.5497090000000 1.0
C      1  0.3947140000000  0.5717600000000  0.4653690000000 1.0
C      1  0.4044840000000  0.4430630000000  0.5073120000000 1.0
C      1  0.4677410000000  0.4153570000000  0.4116780000000 1.0
C      1  0.5725270000000  0.5776480000000  0.4430100000000 1.0
C      1  0.3952620000000  0.4595660000000  0.5498390000000 1.0
C      1  0.3896780000000  0.5574760000000  0.4902550000000 1.0
C      1  0.5199340000000  0.4213150000000  0.5039200000000 1.0
C      1  0.5437680000000  0.4604730000000  0.6175840000000 1.0
C      1  0.5005180000000  0.5194760000000  0.5684930000000 1.0
C      1  0.4518650000000  0.5278430000000  0.3883260000000 1.0
C      1  0.5237220000000  0.5885900000000  0.4355130000000 1.0
C      1  0.5661750000000  0.5309610000000  0.4589520000000 1.0
C      1  0.5113960000000  0.4012930000000  0.6045150000000 1.0
C      1  0.4146430000000  0.4871290000000  0.4166090000000 1.0
C      1  0.5168800000000  0.4463980000000  0.4452350000000 1.0
C      1  0.5493090000000  0.4024260000000  0.5695790000000 1.0
C      1  0.4767190000000  0.5427310000000  0.5146800000000 1.0
C      1  0.4597140000000  0.4339680000000  0.5853790000000 1.0
C      1  0.5324260000000  0.5324830000000  0.6146280000000 1.0
C      1  0.4493230000000  0.3883740000000  0.4964300000000 1.0
C      1  0.4878280000000  0.3811270000000  0.4665290000000 1.0
END
