TITL C-627109-622-1619 -1.56407975525665e-07 125000 -376.804454016857 0 0 63 (C1) n - 1
REM
REM in /home/nfs/bkarasulu/CARBON/AIRSS/Generating-Clusters/LCBOP/Only-C1/SD-CG/FIRE-CG
REM
REM
REM
REM
REM
REM ./C.cell (11c1c37f851c82e70ff6c80c92926a4b)
REM AIRSS Version 0.9.1 bugfix July 2018 build 013d7b7c2542+ Fri, 06 Jul 2018 19:26:36 +0100
REM compiler GCC version 9.2.1 20190827 (Red Hat 9.2.1-1)
REM options -cpp -mtune=generic -march=x86-64 -g -O0 -fpre-include=/usr/include/finclude/math-vector-fortran.h
REM seed 1156938626 1386833907 -1359538477 523139142 1625607266 -336005074 986692622 1416805902 -303848368 1163529920 1978015104 1322238855 1717765551 -966005336 -548037746 -1041903293 -733598820 374810150 -2070923979 -944155277 -808079861 -295724768 -1470969826 126784843 -1098497095 2108593738 1973593875 710281866 1006660924 -1437686458 1304708019 520122280 1280349351
REM
CELL 1.54180   50.00000   50.00000   50.00000   90.00000   90.00000   90.00000
LATT -1
SFAC C  
C      1  0.5038310000000  0.4219790000000  0.5472560000000 1.0
C      1  0.5358650000000  0.4883480000000  0.3856530000000 1.0
C      1  0.5691310000000  0.4712470000000  0.5323810000000 1.0
C      1  0.5248710000000  0.5540650000000  0.5181210000000 1.0
C      1  0.5321370000000  0.4806850000000  0.4987450000000 1.0
C      1  0.5465060000000  0.5410120000000  0.5281240000000 1.0
C      1  0.5864760000000  0.5262240000000  0.4716780000000 1.0
C      1  0.5388600000000  0.5311000000000  0.4619420000000 1.0
C      1  0.5686630000000  0.4972150000000  0.5191550000000 1.0
C      1  0.6010790000000  0.5373740000000  0.4916010000000 1.0
C      1  0.5940510000000  0.5378220000000  0.5178360000000 1.0
C      1  0.4706080000000  0.5213230000000  0.4358810000000 1.0
C      1  0.5238540000000  0.5087390000000  0.3965660000000 1.0
C      1  0.4678300000000  0.4548200000000  0.5515260000000 1.0
C      1  0.4404690000000  0.4563940000000  0.4816890000000 1.0
C      1  0.4754200000000  0.5499430000000  0.5440900000000 1.0
C      1  0.4944760000000  0.4802960000000  0.4701680000000 1.0
C      1  0.5555290000000  0.4954920000000  0.4929940000000 1.0
C      1  0.4446120000000  0.4982510000000  0.4329390000000 1.0
C      1  0.4572870000000  0.4552300000000  0.4589410000000 1.0
C      1  0.4794470000000  0.5545260000000  0.4923670000000 1.0
C      1  0.5124710000000  0.4883790000000  0.5466410000000 1.0
C      1  0.5616320000000  0.4479130000000  0.5168380000000 1.0
C      1  0.4469790000000  0.5157610000000  0.5022950000000 1.0
C      1  0.5151280000000  0.4658340000000  0.5630610000000 1.0
C      1  0.4575800000000  0.5366060000000  0.4851960000000 1.0
C      1  0.5155270000000  0.4253320000000  0.4990050000000 1.0
C      1  0.4582180000000  0.4459610000000  0.5254750000000 1.0
C      1  0.5132390000000  0.4882350000000  0.5181940000000 1.0
C      1  0.5424020000000  0.4324030000000  0.5056140000000 1.0
C      1  0.4890700000000  0.5545210000000  0.5693240000000 1.0
C      1  0.5032940000000  0.5320640000000  0.5765660000000 1.0
C      1  0.5111510000000  0.5550130000000  0.3992760000000 1.0
C      1  0.5214030000000  0.5741810000000  0.4753870000000 1.0
C      1  0.4524280000000  0.4763080000000  0.5616810000000 1.0
C      1  0.4976180000000  0.4172410000000  0.5199610000000 1.0
C      1  0.4010420000000  0.5137170000000  0.4562740000000 1.0
C      1  0.4482400000000  0.5566250000000  0.5428430000000 1.0
C      1  0.4495270000000  0.4710990000000  0.4366540000000 1.0
C      1  0.5068730000000  0.5631680000000  0.4973240000000 1.0
C      1  0.4271730000000  0.5144560000000  0.4500490000000 1.0
C      1  0.5124140000000  0.5213610000000  0.4587120000000 1.0
C      1  0.4947520000000  0.4463290000000  0.5592480000000 1.0
C      1  0.4373910000000  0.4944750000000  0.5458490000000 1.0
C      1  0.5412980000000  0.4621710000000  0.5729600000000 1.0
C      1  0.5643770000000  0.4683130000000  0.5601500000000 1.0
C      1  0.4415890000000  0.4919740000000  0.5172870000000 1.0
C      1  0.4264960000000  0.5430760000000  0.5510170000000 1.0
C      1  0.4879460000000  0.5256840000000  0.5318650000000 1.0
C      1  0.5704580000000  0.5249970000000  0.5273680000000 1.0
C      1  0.4989510000000  0.5065980000000  0.4789480000000 1.0
C      1  0.5021880000000  0.5129630000000  0.5555180000000 1.0
C      1  0.4852290000000  0.4544330000000  0.4655120000000 1.0
C      1  0.4965220000000  0.5102600000000  0.5078560000000 1.0
C      1  0.4230430000000  0.5167170000000  0.5549900000000 1.0
C      1  0.4979100000000  0.5245530000000  0.4343490000000 1.0
C      1  0.5601910000000  0.5153390000000  0.4727620000000 1.0
C      1  0.4448490000000  0.4647560000000  0.5082220000000 1.0
C      1  0.4699300000000  0.4222310000000  0.5153330000000 1.0
C      1  0.5397570000000  0.5595180000000  0.4617200000000 1.0
C      1  0.4494390000000  0.5337180000000  0.4580940000000 1.0
C      1  0.5110480000000  0.5297690000000  0.4098150000000 1.0
C      1  0.5022230000000  0.4338610000000  0.4751160000000 1.0
END
