TITL C-627112-676-604 1.08225207632453e-06 125000 -736.397284978868 0 0 122 (C1) n - 1
REM
REM in /home/nfs/bkarasulu/CARBON/AIRSS/Generating-Clusters/LCBOP/Only-C1/SD-CG/FIRE-CG
REM
REM
REM
REM
REM
REM ./C.cell (11c1c37f851c82e70ff6c80c92926a4b)
REM AIRSS Version 0.9.1 bugfix July 2018 build 013d7b7c2542+ Fri, 06 Jul 2018 19:26:36 +0100
REM compiler GCC version 9.2.1 20190827 (Red Hat 9.2.1-1)
REM options -cpp -mtune=generic -march=x86-64 -g -O0 -fpre-include=/usr/include/finclude/math-vector-fortran.h
REM seed -368041382 2143115222 1452206521 682693572 -193487461 -686446132 1868767964 1460186485 841766206 -501508536 172947567 2006253331 -1510319424 1116998015 -1055347959 -91675736 995074620 1579122265 1007037302 1819497637 -953509037 1584465818 412312209 1640368726 330720120 818680914 -533126603 568464313 799731293 -1247671124 14136368 1804357496 -345862824
REM
CELL 1.54180   50.00000   50.00000   50.00000   90.00000   90.00000   90.00000
LATT -1
SFAC C  
C      1  0.5930890000000  0.5090020000000  0.5667920000000 1.0
C      1  0.5023330000000  0.4943810000000  0.3829570000000 1.0
C      1  0.5220600000000  0.5459850000000  0.5124950000000 1.0
C      1  0.4567500000000  0.6106520000000  0.4010300000000 1.0
C      1  0.4321430000000  0.4304570000000  0.5505660000000 1.0
C      1  0.4161360000000  0.5356570000000  0.5212450000000 1.0
C      1  0.5094800000000  0.4788470000000  0.5542750000000 1.0
C      1  0.5120520000000  0.4398260000000  0.4238220000000 1.0
C      1  0.4844650000000  0.4805510000000  0.4457810000000 1.0
C      1  0.5839320000000  0.5680680000000  0.5172300000000 1.0
C      1  0.6175260000000  0.5023290000000  0.5137960000000 1.0
C      1  0.4930160000000  0.4288530000000  0.5483330000000 1.0
C      1  0.4659240000000  0.5556030000000  0.6317220000000 1.0
C      1  0.4808910000000  0.5810230000000  0.3667470000000 1.0
C      1  0.5812540000000  0.4646530000000  0.5668890000000 1.0
C      1  0.5349060000000  0.5442370000000  0.5651670000000 1.0
C      1  0.4340240000000  0.3939300000000  0.5098190000000 1.0
C      1  0.5524360000000  0.4771430000000  0.5291560000000 1.0
C      1  0.5608020000000  0.4932180000000  0.4475520000000 1.0
C      1  0.5313730000000  0.5648820000000  0.3622140000000 1.0
C      1  0.4439620000000  0.5484260000000  0.3829830000000 1.0
C      1  0.5629790000000  0.4782360000000  0.5870830000000 1.0
C      1  0.5075050000000  0.5486480000000  0.5721970000000 1.0
C      1  0.5206450000000  0.4670450000000  0.4182040000000 1.0
C      1  0.5012380000000  0.4134390000000  0.4959860000000 1.0
C      1  0.5385550000000  0.4452100000000  0.5622810000000 1.0
C      1  0.4726030000000  0.5560970000000  0.5227360000000 1.0
C      1  0.5379740000000  0.4625350000000  0.5878070000000 1.0
C      1  0.4615950000000  0.5107890000000  0.5303500000000 1.0
C      1  0.4843710000000  0.5363710000000  0.6324700000000 1.0
C      1  0.5256420000000  0.4832910000000  0.3953250000000 1.0
C      1  0.5000810000000  0.5180260000000  0.6212730000000 1.0
C      1  0.4236220000000  0.4117770000000  0.4904480000000 1.0
C      1  0.5176620000000  0.5169200000000  0.5198180000000 1.0
C      1  0.5470790000000  0.5481220000000  0.3760450000000 1.0
C      1  0.5452370000000  0.4193540000000  0.5142300000000 1.0
C      1  0.4643910000000  0.4551950000000  0.4608950000000 1.0
C      1  0.6019140000000  0.4822230000000  0.5581580000000 1.0
C      1  0.5471990000000  0.5021870000000  0.3951010000000 1.0
C      1  0.4929030000000  0.5731020000000  0.5720920000000 1.0
C      1  0.4284950000000  0.4833620000000  0.4419310000000 1.0
C      1  0.5234330000000  0.4290780000000  0.4498890000000 1.0
C      1  0.4846820000000  0.4584890000000  0.5912080000000 1.0
C      1  0.4151530000000  0.4931590000000  0.4647040000000 1.0
C      1  0.4377460000000  0.5483780000000  0.4106670000000 1.0
C      1  0.4841190000000  0.5402900000000  0.4633070000000 1.0
C      1  0.4172830000000  0.4081570000000  0.5515740000000 1.0
C      1  0.5073630000000  0.5761240000000  0.3590110000000 1.0
C      1  0.5366890000000  0.5925590000000  0.5686600000000 1.0
C      1  0.4545380000000  0.4712890000000  0.5564460000000 1.0
C      1  0.5101210000000  0.5955490000000  0.5734100000000 1.0
C      1  0.4452150000000  0.4952550000000  0.5467450000000 1.0
C      1  0.4540780000000  0.5629380000000  0.5437190000000 1.0
C      1  0.5443010000000  0.5173400000000  0.5622770000000 1.0
C      1  0.5076120000000  0.5571070000000  0.4668080000000 1.0
C      1  0.5136170000000  0.4493070000000  0.5477180000000 1.0
C      1  0.6165100000000  0.4819560000000  0.5339050000000 1.0
C      1  0.4849120000000  0.4097140000000  0.5201650000000 1.0
C      1  0.5343120000000  0.4683400000000  0.4813110000000 1.0
C      1  0.5669020000000  0.5718990000000  0.5373410000000 1.0
C      1  0.4459330000000  0.4949210000000  0.6008340000000 1.0
C      1  0.6064110000000  0.4873860000000  0.4634340000000 1.0
C      1  0.5221510000000  0.4305830000000  0.5053100000000 1.0
C      1  0.5448910000000  0.4445400000000  0.4619420000000 1.0
C      1  0.4776170000000  0.4302850000000  0.4537060000000 1.0
C      1  0.4172100000000  0.3892720000000  0.5321920000000 1.0
C      1  0.5338450000000  0.4917320000000  0.4606660000000 1.0
C      1  0.4820080000000  0.4336400000000  0.5753730000000 1.0
C      1  0.4648600000000  0.5742580000000  0.5677960000000 1.0
C      1  0.5829970000000  0.4759300000000  0.4521500000000 1.0
C      1  0.4416370000000  0.4566150000000  0.4416020000000 1.0
C      1  0.4623950000000  0.4733640000000  0.6021330000000 1.0
C      1  0.6173960000000  0.4963700000000  0.4862760000000 1.0
C      1  0.4178360000000  0.4947190000000  0.5393980000000 1.0
C      1  0.5571490000000  0.4710540000000  0.5023500000000 1.0
C      1  0.4503480000000  0.5288060000000  0.4269560000000 1.0
C      1  0.4314760000000  0.4623550000000  0.4974700000000 1.0
C      1  0.5283160000000  0.5447260000000  0.4826690000000 1.0
C      1  0.4805130000000  0.5228410000000  0.4871860000000 1.0
C      1  0.4302930000000  0.5734260000000  0.4213740000000 1.0
C      1  0.5660360000000  0.5063290000000  0.5777660000000 1.0
C      1  0.6030290000000  0.5507670000000  0.5097890000000 1.0
C      1  0.4497780000000  0.4494160000000  0.5397840000000 1.0
C      1  0.4597980000000  0.4556640000000  0.4167530000000 1.0
C      1  0.5305610000000  0.4988940000000  0.5409770000000 1.0
C      1  0.5087910000000  0.5005090000000  0.6032460000000 1.0
C      1  0.5115610000000  0.4572540000000  0.4982920000000 1.0
C      1  0.4735480000000  0.6042070000000  0.3811000000000 1.0
C      1  0.6119230000000  0.5285040000000  0.5242370000000 1.0
C      1  0.4128320000000  0.5071400000000  0.5140640000000 1.0
C      1  0.5488890000000  0.5688520000000  0.5584310000000 1.0
C      1  0.4686840000000  0.4838140000000  0.4200520000000 1.0
C      1  0.4967260000000  0.5328220000000  0.4153830000000 1.0
C      1  0.5002740000000  0.5632560000000  0.5203250000000 1.0
C      1  0.4615690000000  0.3948060000000  0.5161670000000 1.0
C      1  0.4823170000000  0.4357620000000  0.4237760000000 1.0
C      1  0.4333420000000  0.5163090000000  0.5899650000000 1.0
C      1  0.4557990000000  0.4570460000000  0.5124250000000 1.0
C      1  0.4496580000000  0.5798700000000  0.5908050000000 1.0
C      1  0.4614360000000  0.5604890000000  0.3665050000000 1.0
C      1  0.4904240000000  0.5170240000000  0.3922130000000 1.0
C      1  0.4390530000000  0.5985090000000  0.4171630000000 1.0
C      1  0.4294340000000  0.5470000000000  0.5452430000000 1.0
C      1  0.4670180000000  0.5304610000000  0.5110160000000 1.0
C      1  0.4454330000000  0.5010550000000  0.4258140000000 1.0
C      1  0.4256490000000  0.5339920000000  0.5708550000000 1.0
C      1  0.4834220000000  0.4618560000000  0.5041220000000 1.0
C      1  0.5744690000000  0.4501740000000  0.4633480000000 1.0
C      1  0.5784170000000  0.4542400000000  0.4921560000000 1.0
C      1  0.4515950000000  0.5721980000000  0.6164380000000 1.0
C      1  0.4768170000000  0.5355470000000  0.4361100000000 1.0
C      1  0.4189750000000  0.4886150000000  0.4923170000000 1.0
C      1  0.5243540000000  0.5388120000000  0.4169070000000 1.0
C      1  0.5003950000000  0.4183710000000  0.4669280000000 1.0
C      1  0.6056970000000  0.5293370000000  0.5522200000000 1.0
C      1  0.5264480000000  0.5154910000000  0.4759570000000 1.0
C      1  0.5612740000000  0.4563490000000  0.5479530000000 1.0
C      1  0.4193480000000  0.4383030000000  0.4882030000000 1.0
C      1  0.5099410000000  0.4762930000000  0.5862940000000 1.0
C      1  0.5439900000000  0.5304920000000  0.3977780000000 1.0
C      1  0.5048650000000  0.5083560000000  0.4946610000000 1.0
C      1  0.5123140000000  0.4824050000000  0.4417770000000 1.0
END
