TITL C-627106-156-924 -6.07169950292287e-07 125000 -796.819710468059 0 0 128 (C1) n - 1
REM
REM in /home/nfs/bkarasulu/CARBON/AIRSS/Generating-Clusters/LCBOP/Only-C1/SD-CG/FIRE-CG
REM
REM
REM
REM
REM
REM ./C.cell (11c1c37f851c82e70ff6c80c92926a4b)
REM AIRSS Version 0.9.1 bugfix July 2018 build 013d7b7c2542+ Fri, 06 Jul 2018 19:26:36 +0100
REM compiler GCC version 9.2.1 20190827 (Red Hat 9.2.1-1)
REM options -cpp -mtune=generic -march=x86-64 -g -O0 -fpre-include=/usr/include/finclude/math-vector-fortran.h
REM seed 114655762 573678947 671365130 715617729 1180510772 885735754 -1167878841 -99503227 1975013896 1764591197 741953429 -711680732 -2141682403 1725193229 -805587162 -2089176645 -2070710561 1592722709 333804820 618222093 1272022314 -2059431071 -1165304793 -193095949 93938800 -619959010 89764038 -1015535270 1705798556 2075205580 -357635986 812014168 1978220782
REM
CELL 1.54180   50.00000   50.00000   50.00000   90.00000   90.00000   90.00000
LATT -1
SFAC C  
C      1  0.4401700000000  0.5924780000000  0.4824450000000 1.0
C      1  0.5159270000000  0.5855380000000  0.5541400000000 1.0
C      1  0.5354960000000  0.5758640000000  0.4258730000000 1.0
C      1  0.4516000000000  0.4413180000000  0.4850370000000 1.0
C      1  0.4342130000000  0.4568520000000  0.5263370000000 1.0
C      1  0.4755900000000  0.4394490000000  0.6033810000000 1.0
C      1  0.4501050000000  0.6040530000000  0.5757290000000 1.0
C      1  0.5160430000000  0.5331350000000  0.5994600000000 1.0
C      1  0.5422590000000  0.4643390000000  0.5972650000000 1.0
C      1  0.4971580000000  0.5001090000000  0.5182390000000 1.0
C      1  0.4501260000000  0.5164390000000  0.5425100000000 1.0
C      1  0.4471690000000  0.5952620000000  0.6009540000000 1.0
C      1  0.4822840000000  0.5532520000000  0.5677220000000 1.0
C      1  0.5156580000000  0.5660630000000  0.5109780000000 1.0
C      1  0.4805760000000  0.5047150000000  0.4107520000000 1.0
C      1  0.4043820000000  0.4856010000000  0.4993910000000 1.0
C      1  0.5050810000000  0.5013900000000  0.5452010000000 1.0
C      1  0.4983670000000  0.4868780000000  0.3972910000000 1.0
C      1  0.5977060000000  0.4617650000000  0.5080460000000 1.0
C      1  0.5499940000000  0.4824280000000  0.4792980000000 1.0
C      1  0.5886140000000  0.4843280000000  0.4094970000000 1.0
C      1  0.4347500000000  0.6156210000000  0.4688180000000 1.0
C      1  0.4917190000000  0.4603470000000  0.4672410000000 1.0
C      1  0.4887210000000  0.5800140000000  0.5597130000000 1.0
C      1  0.4260470000000  0.5480120000000  0.4652430000000 1.0
C      1  0.5474310000000  0.5294030000000  0.5105120000000 1.0
C      1  0.4917350000000  0.4836190000000  0.5624900000000 1.0
C      1  0.5256320000000  0.4968950000000  0.3963300000000 1.0
C      1  0.5628900000000  0.5475020000000  0.4688410000000 1.0
C      1  0.5694690000000  0.5242980000000  0.5576020000000 1.0
C      1  0.4749930000000  0.5559060000000  0.6148530000000 1.0
C      1  0.4233430000000  0.5348000000000  0.4392780000000 1.0
C      1  0.4450390000000  0.5363530000000  0.4210940000000 1.0
C      1  0.4474570000000  0.5685960000000  0.4682180000000 1.0
C      1  0.4826660000000  0.6050420000000  0.5096940000000 1.0
C      1  0.5363760000000  0.4364680000000  0.4145480000000 1.0
C      1  0.5402280000000  0.5215020000000  0.5967190000000 1.0
C      1  0.4572990000000  0.5760630000000  0.6167680000000 1.0
C      1  0.4378180000000  0.5915950000000  0.5113210000000 1.0
C      1  0.5517700000000  0.4792130000000  0.5750430000000 1.0
C      1  0.5596860000000  0.5869530000000  0.4954970000000 1.0
C      1  0.3851860000000  0.4457500000000  0.4744290000000 1.0
C      1  0.4750590000000  0.4295230000000  0.5450560000000 1.0
C      1  0.5912980000000  0.4444110000000  0.4863530000000 1.0
C      1  0.5156090000000  0.3890920000000  0.4990070000000 1.0
C      1  0.4649450000000  0.4747430000000  0.5602390000000 1.0
C      1  0.4540900000000  0.5076330000000  0.4836570000000 1.0
C      1  0.4708600000000  0.5257070000000  0.4273180000000 1.0
C      1  0.5233030000000  0.4456400000000  0.6003190000000 1.0
C      1  0.4660920000000  0.5970410000000  0.5536940000000 1.0
C      1  0.5584560000000  0.5075150000000  0.5793160000000 1.0
C      1  0.5644640000000  0.4365180000000  0.4828970000000 1.0
C      1  0.4181410000000  0.5743520000000  0.5213460000000 1.0
C      1  0.4739240000000  0.4850330000000  0.5165340000000 1.0
C      1  0.4751770000000  0.5636390000000  0.4583410000000 1.0
C      1  0.4255480000000  0.4846370000000  0.5191330000000 1.0
C      1  0.4799170000000  0.4133840000000  0.5216130000000 1.0
C      1  0.5585050000000  0.5818140000000  0.5239190000000 1.0
C      1  0.4330880000000  0.4944370000000  0.5885770000000 1.0
C      1  0.5879640000000  0.5094630000000  0.4841750000000 1.0
C      1  0.3975560000000  0.5099750000000  0.4853250000000 1.0
C      1  0.5489640000000  0.5233880000000  0.5378150000000 1.0
C      1  0.5137900000000  0.4625280000000  0.4494140000000 1.0
C      1  0.4797780000000  0.5354090000000  0.4532610000000 1.0
C      1  0.5464800000000  0.4918460000000  0.3776350000000 1.0
C      1  0.5841530000000  0.5484430000000  0.5554060000000 1.0
C      1  0.5985690000000  0.4893360000000  0.5009780000000 1.0
C      1  0.4760040000000  0.4035920000000  0.4724510000000 1.0
C      1  0.5216240000000  0.4126130000000  0.5455190000000 1.0
C      1  0.5560010000000  0.4104080000000  0.4892180000000 1.0
C      1  0.5189730000000  0.4130490000000  0.4543670000000 1.0
C      1  0.5901850000000  0.4505190000000  0.5333000000000 1.0
C      1  0.5505870000000  0.4173250000000  0.5397850000000 1.0
C      1  0.4983090000000  0.5852660000000  0.5008420000000 1.0
C      1  0.4777370000000  0.4406290000000  0.4087870000000 1.0
C      1  0.4646500000000  0.5389650000000  0.5508750000000 1.0
C      1  0.5872550000000  0.5095890000000  0.4545320000000 1.0
C      1  0.4462610000000  0.4964200000000  0.5638020000000 1.0
C      1  0.4075630000000  0.5518880000000  0.5112850000000 1.0
C      1  0.5209830000000  0.5392630000000  0.5028280000000 1.0
C      1  0.5057780000000  0.3999660000000  0.5233490000000 1.0
C      1  0.4788460000000  0.4195500000000  0.4259170000000 1.0
C      1  0.5424390000000  0.5529380000000  0.4135190000000 1.0
C      1  0.5272670000000  0.4636070000000  0.5310210000000 1.0
C      1  0.5241130000000  0.5200750000000  0.5501220000000 1.0
C      1  0.4796410000000  0.5208690000000  0.4777400000000 1.0
C      1  0.5480930000000  0.4645100000000  0.5504320000000 1.0
C      1  0.4103500000000  0.5363660000000  0.4880130000000 1.0
C      1  0.5952300000000  0.4918410000000  0.4344040000000 1.0
C      1  0.5004750000000  0.5201010000000  0.4978270000000 1.0
C      1  0.5271410000000  0.4375480000000  0.4413190000000 1.0
C      1  0.4911050000000  0.5454300000000  0.5940870000000 1.0
C      1  0.5452700000000  0.4570450000000  0.4877050000000 1.0
C      1  0.5687530000000  0.5305970000000  0.4463600000000 1.0
C      1  0.5605730000000  0.4032760000000  0.5166970000000 1.0
C      1  0.3891910000000  0.5064320000000  0.4582330000000 1.0
C      1  0.4562710000000  0.4515390000000  0.5452830000000 1.0
C      1  0.4750530000000  0.4242060000000  0.4944030000000 1.0
C      1  0.4548470000000  0.4545980000000  0.6111500000000 1.0
C      1  0.5246930000000  0.4876150000000  0.4423060000000 1.0
C      1  0.4995650000000  0.5788750000000  0.4571820000000 1.0
C      1  0.4043020000000  0.4574960000000  0.4898040000000 1.0
C      1  0.4299750000000  0.4883420000000  0.4431900000000 1.0
C      1  0.4985400000000  0.4455090000000  0.4918970000000 1.0
C      1  0.5496810000000  0.5285050000000  0.4256180000000 1.0
C      1  0.5717390000000  0.4852950000000  0.3887080000000 1.0
C      1  0.4996900000000  0.4260260000000  0.5619870000000 1.0
C      1  0.5315720000000  0.5773540000000  0.5322720000000 1.0
C      1  0.4965190000000  0.4579250000000  0.3960640000000 1.0
C      1  0.5226100000000  0.4536010000000  0.5048540000000 1.0
C      1  0.5788580000000  0.5706250000000  0.5404050000000 1.0
C      1  0.4997360000000  0.4349350000000  0.5892360000000 1.0
C      1  0.5685200000000  0.5302600000000  0.4919380000000 1.0
C      1  0.5282470000000  0.5792600000000  0.4532300000000 1.0
C      1  0.5655290000000  0.4422560000000  0.5453660000000 1.0
C      1  0.4383620000000  0.4755240000000  0.6072850000000 1.0
C      1  0.4600770000000  0.6013370000000  0.5261420000000 1.0
C      1  0.4282360000000  0.4440120000000  0.5006960000000 1.0
C      1  0.5503630000000  0.5731240000000  0.4719540000000 1.0
C      1  0.4107250000000  0.5088980000000  0.4400540000000 1.0
C      1  0.4493600000000  0.5019880000000  0.5140240000000 1.0
C      1  0.5341250000000  0.5051310000000  0.4223710000000 1.0
C      1  0.4628140000000  0.4622060000000  0.4679280000000 1.0
C      1  0.5219240000000  0.4448280000000  0.3931410000000 1.0
C      1  0.5425560000000  0.4936190000000  0.3506980000000 1.0
C      1  0.4483970000000  0.4861250000000  0.4644260000000 1.0
C      1  0.5312270000000  0.4011760000000  0.4781440000000 1.0
C      1  0.4909840000000  0.4074180000000  0.4487830000000 1.0
END
