TITL C-627111-6168-917 480.150533885748 125000 -1003.50570635176 0 0 167 (C1) n - 1
REM
REM in /home/nfs/bkarasulu/CARBON/AIRSS/Generating-Clusters/LCBOP/Only-C1/SD-CG/FIRE-CG
REM
REM
REM
REM
REM
REM ./C.cell (11c1c37f851c82e70ff6c80c92926a4b)
REM AIRSS Version 0.9.1 bugfix July 2018 build 013d7b7c2542+ Fri, 06 Jul 2018 19:26:36 +0100
REM compiler GCC version 9.2.1 20190827 (Red Hat 9.2.1-1)
REM options -cpp -mtune=generic -march=x86-64 -g -O0 -fpre-include=/usr/include/finclude/math-vector-fortran.h
REM seed -1288473812 1253744119 -1046088181 -1309452519 -1722886974 -72360319 -1530561054 -2002726230 -383725202 -754712863 -595832738 -410598358 -607502439 657364186 -291050233 -515933487 2074491453 805464807 -709386277 530686581 1297208563 1277532190 842813857 847561588 527197408 1151382598 778243337 1396515672 891027268 821834181 -1890309886 1492264092 -40575736
REM
CELL 1.54180   50.00000   50.00000   50.00000   90.00000   90.00000   90.00000
LATT -1
SFAC C  
C      1  0.4046060000000  0.4538120000000  0.5573850000000 1.0
C      1  0.4865000000000  0.4321440000000  0.5523700000000 1.0
C      1  0.4522440000000  0.5505850000000  0.4851490000000 1.0
C      1  0.4235930000000  0.4932920000000  0.4101730000000 1.0
C      1  0.4784660000000  0.5088730000000  0.4820840000000 1.0
C      1  0.3881200000000  0.4979120000000  0.4823480000000 1.0
C      1  0.4845400000000  0.4478220000000  0.4072350000000 1.0
C      1  0.5149000000000  0.4918090000000  0.5070280000000 1.0
C      1  0.4669210000000  0.5157470000000  0.4337560000000 1.0
C      1  0.5080600000000  0.5740040000000  0.4759490000000 1.0
C      1  0.5201340000000  0.6168050000000  0.5779180000000 1.0
C      1  0.5462400000000  0.4341940000000  0.4089510000000 1.0
C      1  0.6020590000000  0.4395940000000  0.5306060000000 1.0
C      1  0.4659060000000  0.5119570000000  0.6045260000000 1.0
C      1  0.5197410000000  0.5617750000000  0.4130520000000 1.0
C      1  0.4804970000000  0.3947050000000  0.4699240000000 1.0
C      1  0.4227060000000  0.4413510000000  0.4805680000000 1.0
C      1  0.4554160000000  0.4941560000000  0.5437250000000 1.0
C      1  0.4548790000000  0.5968020000000  0.5312580000000 1.0
C      1  0.6252410000000  0.5057350000000  0.4877230000000 1.0
C      1  0.4380690000000  0.5691970000000  0.4702520000000 1.0
C      1  0.5345330000000  0.5345810000000  0.4730690000000 1.0
C      1  0.5511780000000  0.5162740000000  0.4586030000000 1.0
C      1  0.4812900000000  0.4396790000000  0.4856800000000 1.0
C      1  0.5280760000000  0.5261660000000  0.6145910000000 1.0
C      1  0.4084980000000  0.4776050000000  0.4315710000000 1.0
C      1  0.5259320000000  0.4535060000000  0.5433610000000 1.0
C      1  0.4539980000000  0.4564910000000  0.5773480000000 1.0
C      1  0.5643810000000  0.4956750000000  0.5236080000000 1.0
C      1  0.5382880000000  0.5430330000000  0.4019260000000 1.0
C      1  0.5494440000000  0.6000480000000  0.5019040000000 1.0
C      1  0.4171790000000  0.4262960000000  0.4358350000000 1.0
C      1  0.4688640000000  0.5078370000000  0.3857880000000 1.0
C      1  0.6078080000000  0.4586130000000  0.5082400000000 1.0
C      1  0.4929290000000  0.4448210000000  0.4350180000000 1.0
C      1  0.6022980000000  0.5418030000000  0.4606730000000 1.0
C      1  0.6151760000000  0.4887280000000  0.5098090000000 1.0
C      1  0.5692950000000  0.5432640000000  0.4193000000000 1.0
C      1  0.4411060000000  0.5625060000000  0.5985450000000 1.0
C      1  0.4559360000000  0.4960830000000  0.4913540000000 1.0
C      1  0.4731420000000  0.5426840000000  0.5269530000000 1.0
C      1  0.4571610000000  0.4689230000000  0.4536240000000 1.0
C      1  0.5469950000000  0.4498890000000  0.4765740000000 1.0
C      1  0.4765650000000  0.5337230000000  0.6180630000000 1.0
C      1  0.5976510000000  0.5374360000000  0.5137470000000 1.0
C      1  0.4166510000000  0.5785100000000  0.4575710000000 1.0
C      1  0.6106300000000  0.5315410000000  0.4863260000000 1.0
C      1  0.5169730000000  0.5394050000000  0.5637930000000 1.0
C      1  0.4258990000000  0.4536470000000  0.5739960000000 1.0
C      1  0.4767820000000  0.5190740000000  0.5415470000000 1.0
C      1  0.5060140000000  0.4468810000000  0.3879110000000 1.0
C      1  0.3949360000000  0.5219800000000  0.4370270000000 1.0
C      1  0.3951840000000  0.4963780000000  0.4525820000000 1.0
C      1  0.4611140000000  0.4620580000000  0.3999040000000 1.0
C      1  0.5885730000000  0.4859190000000  0.5721490000000 1.0
C      1  0.4759000000000  0.4489740000000  0.5316550000000 1.0
C      1  0.5262850000000  0.5376310000000  0.5013380000000 1.0
C      1  0.5440260000000  0.5088700000000  0.5399240000000 1.0
C      1  0.4838240000000  0.5918950000000  0.5297210000000 1.0
C      1  0.4268180000000  0.5610370000000  0.5505920000000 1.0
C      1  0.5056080000000  0.5489330000000  0.4341340000000 1.0
C      1  0.4940020000000  0.4508180000000  0.5086110000000 1.0
C      1  0.5180820000000  0.5897920000000  0.4149970000000 1.0
C      1  0.4977070000000  0.3916210000000  0.4950050000000 1.0
C      1  0.5168790000000  0.4715310000000  0.3788650000000 1.0
C      1  0.6466380000000  0.4992970000000  0.4720410000000 1.0
C      1  0.4768160000000  0.3866940000000  0.5156210000000 1.0
C      1  0.4309540000000  0.4212720000000  0.4600710000000 1.0
C      1  0.5722520000000  0.5032220000000  0.4713060000000 1.0
C      1  0.5661650000000  0.5773440000000  0.4948140000000 1.0
C      1  0.4519860000000  0.4637700000000  0.5254800000000 1.0
C      1  0.5615500000000  0.4774360000000  0.5704140000000 1.0
C      1  0.5576310000000  0.5525970000000  0.5886630000000 1.0
C      1  0.4111400000000  0.5192550000000  0.4132130000000 1.0
C      1  0.4717210000000  0.4338260000000  0.5765270000000 1.0
C      1  0.4250910000000  0.5378430000000  0.5295680000000 1.0
C      1  0.6062480000000  0.5106960000000  0.5296610000000 1.0
C      1  0.4314800000000  0.4965970000000  0.5004400000000 1.0
C      1  0.4936740000000  0.5236690000000  0.4319130000000 1.0
C      1  0.4800720000000  0.5774050000000  0.6307600000000 1.0
C      1  0.4284970000000  0.5503810000000  0.5763570000000 1.0
C      1  0.4816420000000  0.5014220000000  0.5833930000000 1.0
C      1  0.4590470000000  0.4262230000000  0.4990750000000 1.0
C      1  0.4926880000000  0.4211670000000  0.6182330000000 1.0
C      1  0.5819960000000  0.4187810000000  0.5251510000000 1.0
C      1  0.4939170000000  0.5194770000000  0.3831020000000 1.0
C      1  0.4270290000000  0.5098730000000  0.5444830000000 1.0
C      1  0.5906720000000  0.4554160000000  0.4574290000000 1.0
C      1  0.5096860000000  0.4830650000000  0.4566870000000 1.0
C      1  0.5531680000000  0.4552680000000  0.5017630000000 1.0
C      1  0.5100400000000  0.6205330000000  0.4833610000000 1.0
C      1  0.4045620000000  0.4214440000000  0.5229080000000 1.0
C      1  0.4945220000000  0.5205200000000  0.5645640000000 1.0
C      1  0.5099900000000  0.6038030000000  0.4367390000000 1.0
C      1  0.4490060000000  0.5440570000000  0.5124840000000 1.0
C      1  0.4066060000000  0.5769810000000  0.5129400000000 1.0
C      1  0.5328930000000  0.4919940000000  0.3903860000000 1.0
C      1  0.5530060000000  0.3888120000000  0.4635910000000 1.0
C      1  0.5233290000000  0.5196060000000  0.3886620000000 1.0
C      1  0.4133520000000  0.4931380000000  0.5227950000000 1.0
C      1  0.4902040000000  0.5647320000000  0.5223410000000 1.0
C      1  0.4758060000000  0.4480940000000  0.4581990000000 1.0
C      1  0.5583880000000  0.5650190000000  0.5423280000000 1.0
C      1  0.5122570000000  0.5035480000000  0.4371340000000 1.0
C      1  0.5166840000000  0.4590760000000  0.4416220000000 1.0
C      1  0.5595690000000  0.4079740000000  0.5393390000000 1.0
C      1  0.4531260000000  0.4028780000000  0.5142670000000 1.0
C      1  0.3906060000000  0.5737040000000  0.4483380000000 1.0
C      1  0.4379160000000  0.5092560000000  0.5986430000000 1.0
C      1  0.5952370000000  0.4424350000000  0.4849620000000 1.0
C      1  0.4551720000000  0.4937980000000  0.4438940000000 1.0
C      1  0.4256080000000  0.4035380000000  0.5228940000000 1.0
C      1  0.5240230000000  0.6132210000000  0.5067110000000 1.0
C      1  0.5446490000000  0.5501110000000  0.5633700000000 1.0
C      1  0.5045920000000  0.5374620000000  0.6260400000000 1.0
C      1  0.5088010000000  0.6078420000000  0.5309360000000 1.0
C      1  0.5785050000000  0.4950230000000  0.4077950000000 1.0
C      1  0.3726260000000  0.5938080000000  0.4444130000000 1.0
C      1  0.4283020000000  0.5845670000000  0.5328790000000 1.0
C      1  0.5511370000000  0.4853220000000  0.4144470000000 1.0
C      1  0.5848860000000  0.5215190000000  0.4089410000000 1.0
C      1  0.5097280000000  0.5614670000000  0.5024700000000 1.0
C      1  0.5451600000000  0.4571380000000  0.4281560000000 1.0
C      1  0.5629170000000  0.4676980000000  0.5247040000000 1.0
C      1  0.5177240000000  0.5534620000000  0.4588950000000 1.0
C      1  0.5905560000000  0.4853250000000  0.4594680000000 1.0
C      1  0.5687470000000  0.5718450000000  0.4665220000000 1.0
C      1  0.5404130000000  0.5054250000000  0.4349920000000 1.0
C      1  0.4656580000000  0.4816130000000  0.5698380000000 1.0
C      1  0.5520670000000  0.4026580000000  0.4874250000000 1.0
C      1  0.5147440000000  0.4269300000000  0.5472090000000 1.0
C      1  0.5261410000000  0.4000480000000  0.5040800000000 1.0
C      1  0.4018810000000  0.5471770000000  0.5107750000000 1.0
C      1  0.5304220000000  0.5061430000000  0.5941410000000 1.0
C      1  0.3842570000000  0.5467990000000  0.4435110000000 1.0
C      1  0.4394470000000  0.4479100000000  0.5028920000000 1.0
C      1  0.6090310000000  0.4447390000000  0.4365980000000 1.0
C      1  0.4549830000000  0.4033470000000  0.4611650000000 1.0
C      1  0.5310760000000  0.4075970000000  0.5326730000000 1.0
C      1  0.5749810000000  0.5592080000000  0.5176850000000 1.0
C      1  0.5713150000000  0.5053840000000  0.4987920000000 1.0
C      1  0.4593770000000  0.3927290000000  0.5984360000000 1.0
C      1  0.3931600000000  0.4773040000000  0.5117100000000 1.0
C      1  0.4495300000000  0.4881280000000  0.3965070000000 1.0
C      1  0.5528560000000  0.4594470000000  0.5500820000000 1.0
C      1  0.5104020000000  0.4280920000000  0.6360500000000 1.0
C      1  0.6031160000000  0.5026840000000  0.5566210000000 1.0
C      1  0.5040470000000  0.5647470000000  0.6366950000000 1.0
C      1  0.5796260000000  0.5541610000000  0.4461910000000 1.0
C      1  0.5020600000000  0.4935040000000  0.4818150000000 1.0
C      1  0.3965810000000  0.4483290000000  0.5303330000000 1.0
C      1  0.5059930000000  0.6001660000000  0.4644940000000 1.0
C      1  0.5614230000000  0.4507360000000  0.4523990000000 1.0
C      1  0.4744020000000  0.4155740000000  0.5978310000000 1.0
C      1  0.4063150000000  0.4497930000000  0.4285360000000 1.0
C      1  0.3893760000000  0.5263540000000  0.4944330000000 1.0
C      1  0.5144780000000  0.4667150000000  0.5195750000000 1.0
C      1  0.5262990000000  0.6062320000000  0.5535800000000 1.0
C      1  0.5503350000000  0.5437840000000  0.6130710000000 1.0
C      1  0.4262980000000  0.5211200000000  0.5755160000000 1.0
C      1  0.5250490000000  0.5154710000000  0.5191030000000 1.0
C      1  0.5429550000000  0.4999230000000  0.5690630000000 1.0
C      1  0.5261340000000  0.4273960000000  0.3920590000000 1.0
C      1  0.5506860000000  0.5923830000000  0.5483640000000 1.0
C      1  0.4730940000000  0.5352870000000  0.4742740000000 1.0
C      1  0.5773800000000  0.4181890000000  0.4955410000000 1.0
C      1  0.4621730000000  0.5595920000000  0.6168290000000 1.0
END
