TITL C-627109-622-1439 1.37458150289524 125000 -197.346208863583 0 0 34 (C1) n - 1
REM
REM in /home/nfs/bkarasulu/CARBON/AIRSS/Generating-Clusters/LCBOP/Only-C1/SD-CG/FIRE-CG
REM
REM
REM
REM
REM
REM ./C.cell (11c1c37f851c82e70ff6c80c92926a4b)
REM AIRSS Version 0.9.1 bugfix July 2018 build 013d7b7c2542+ Fri, 06 Jul 2018 19:26:36 +0100
REM compiler GCC version 9.2.1 20190827 (Red Hat 9.2.1-1)
REM options -cpp -mtune=generic -march=x86-64 -g -O0 -fpre-include=/usr/include/finclude/math-vector-fortran.h
REM seed 46642906 407314859 186257896 2023475476 -1122192396 -1780228097 1560707682 1174902132 -508136168 -142213516 -1266998196 -838167377 -1867254078 -463233210 -838515449 1552511509 -1560056249 -331591964 457719636 -1425549872 409380216 1193308263 1327092290 1450892847 612195144 409625920 1735059339 1161513066 1056638368 -1981405586 1947753715 642747462 118412401
REM
CELL 1.54180   50.00000   50.00000   50.00000   90.00000   90.00000   90.00000
LATT -1
SFAC C  
C      1  0.4913450000000  0.5185500000000  0.4732560000000 1.0
C      1  0.5067710000000  0.4497560000000  0.5205710000000 1.0
C      1  0.4762200000000  0.4666740000000  0.4576210000000 1.0
C      1  0.4999990000000  0.4529540000000  0.5990870000000 1.0
C      1  0.4598550000000  0.4813690000000  0.4420660000000 1.0
C      1  0.5067420000000  0.4554790000000  0.4947100000000 1.0
C      1  0.4745860000000  0.4989390000000  0.6555040000000 1.0
C      1  0.5053550000000  0.4483550000000  0.5470010000000 1.0
C      1  0.4740670000000  0.4827180000000  0.6764610000000 1.0
C      1  0.4810540000000  0.5243570000000  0.4466980000000 1.0
C      1  0.5010130000000  0.5424790000000  0.4868470000000 1.0
C      1  0.5214570000000  0.5536250000000  0.4696890000000 1.0
C      1  0.5341980000000  0.4551840000000  0.4241310000000 1.0
C      1  0.4871300000000  0.5529740000000  0.5376050000000 1.0
C      1  0.5224310000000  0.4548260000000  0.4480420000000 1.0
C      1  0.5028940000000  0.4500000000000  0.5733450000000 1.0
C      1  0.4932950000000  0.5511330000000  0.5119020000000 1.0
C      1  0.5039360000000  0.5341710000000  0.4294480000000 1.0
C      1  0.5046400000000  0.4682650000000  0.4681180000000 1.0
C      1  0.4994210000000  0.5237500000000  0.4027650000000 1.0
C      1  0.5607510000000  0.5004010000000  0.4560100000000 1.0
C      1  0.5270880000000  0.5364190000000  0.4469310000000 1.0
C      1  0.5198260000000  0.5127520000000  0.3872500000000 1.0
C      1  0.4789050000000  0.5408090000000  0.5882990000000 1.0
C      1  0.5122780000000  0.4978170000000  0.4700600000000 1.0
C      1  0.4766760000000  0.5288850000000  0.6118620000000 1.0
C      1  0.5394040000000  0.4683670000000  0.4015320000000 1.0
C      1  0.4731180000000  0.5113710000000  0.4036780000000 1.0
C      1  0.4735880000000  0.4666920000000  0.6970170000000 1.0
C      1  0.4753440000000  0.5146060000000  0.6341460000000 1.0
C      1  0.4642890000000  0.5066560000000  0.4308000000000 1.0
C      1  0.4823300000000  0.5492160000000  0.5634000000000 1.0
C      1  0.5346880000000  0.4904990000000  0.3873460000000 1.0
C      1  0.5353070000000  0.5099540000000  0.4568010000000 1.0
END
