TITL C-627106-156-1498 5.69361428210111e-06 125000 -807.874495081786 0 0 132 (C1) n - 1
REM
REM in /home/nfs/bkarasulu/CARBON/AIRSS/Generating-Clusters/LCBOP/Only-C1/SD-CG/FIRE-CG
REM
REM
REM
REM
REM
REM ./C.cell (11c1c37f851c82e70ff6c80c92926a4b)
REM AIRSS Version 0.9.1 bugfix July 2018 build 013d7b7c2542+ Fri, 06 Jul 2018 19:26:36 +0100
REM compiler GCC version 9.2.1 20190827 (Red Hat 9.2.1-1)
REM options -cpp -mtune=generic -march=x86-64 -g -O0 -fpre-include=/usr/include/finclude/math-vector-fortran.h
REM seed 1154856155 -687724430 1473046278 -1068696512 -938526805 214758026 -2136349501 -38415229 -306569984 -1243453614 1072721854 757301492 176627423 -76981676 116267430 726381904 -1439209192 4558082 -1425675990 1852859441 -1451291442 1979199120 1536123458 -1486406783 792048494 1345806005 -1831171728 -142784744 183319397 1171386754 -1993639323 -1528710980 1058329594
REM
CELL 1.54180   50.00000   50.00000   50.00000   90.00000   90.00000   90.00000
LATT -1
SFAC C  
C      1  0.4652310000000  0.4710380000000  0.5885930000000 1.0
C      1  0.5181830000000  0.5608330000000  0.5581750000000 1.0
C      1  0.6252800000000  0.4787780000000  0.4317370000000 1.0
C      1  0.4697570000000  0.4758400000000  0.4746350000000 1.0
C      1  0.4703020000000  0.5565660000000  0.4721010000000 1.0
C      1  0.5635360000000  0.5203220000000  0.5086990000000 1.0
C      1  0.5520950000000  0.5405470000000  0.5243250000000 1.0
C      1  0.4828240000000  0.4811790000000  0.5326390000000 1.0
C      1  0.5386310000000  0.4258870000000  0.4497890000000 1.0
C      1  0.5733230000000  0.4726250000000  0.4460500000000 1.0
C      1  0.5259300000000  0.5441240000000  0.6019560000000 1.0
C      1  0.3987590000000  0.5459770000000  0.4085310000000 1.0
C      1  0.5583260000000  0.4327030000000  0.4689520000000 1.0
C      1  0.6502660000000  0.4824170000000  0.4252540000000 1.0
C      1  0.4749290000000  0.5507890000000  0.5257030000000 1.0
C      1  0.4230720000000  0.4796390000000  0.4479990000000 1.0
C      1  0.4528030000000  0.4005620000000  0.5086410000000 1.0
C      1  0.5779390000000  0.5287590000000  0.4859570000000 1.0
C      1  0.3742390000000  0.5378300000000  0.4203200000000 1.0
C      1  0.4702930000000  0.4044280000000  0.4602400000000 1.0
C      1  0.5126250000000  0.5040550000000  0.5753720000000 1.0
C      1  0.5148470000000  0.5175420000000  0.4820380000000 1.0
C      1  0.4883600000000  0.4935790000000  0.3975400000000 1.0
C      1  0.4100750000000  0.4035590000000  0.4863240000000 1.0
C      1  0.3755730000000  0.4895530000000  0.5231970000000 1.0
C      1  0.6105390000000  0.5276140000000  0.5564690000000 1.0
C      1  0.4969720000000  0.5602580000000  0.4062150000000 1.0
C      1  0.5107060000000  0.4969670000000  0.3800210000000 1.0
C      1  0.5560910000000  0.5944790000000  0.5042860000000 1.0
C      1  0.4587650000000  0.4543110000000  0.4925990000000 1.0
C      1  0.5522750000000  0.4425710000000  0.5349490000000 1.0
C      1  0.5215410000000  0.5676850000000  0.4162990000000 1.0
C      1  0.5337270000000  0.4830690000000  0.3851710000000 1.0
C      1  0.5065940000000  0.6150600000000  0.5519290000000 1.0
C      1  0.5362970000000  0.5023130000000  0.4430860000000 1.0
C      1  0.5313220000000  0.6134590000000  0.5419040000000 1.0
C      1  0.4669320000000  0.4145660000000  0.5290420000000 1.0
C      1  0.4805380000000  0.5125720000000  0.4410630000000 1.0
C      1  0.5785280000000  0.4473860000000  0.5463680000000 1.0
C      1  0.5532260000000  0.4941650000000  0.5128020000000 1.0
C      1  0.5139940000000  0.4315430000000  0.4367050000000 1.0
C      1  0.4193010000000  0.4006030000000  0.4611060000000 1.0
C      1  0.4310260000000  0.4769250000000  0.5533130000000 1.0
C      1  0.5413930000000  0.5580550000000  0.4350930000000 1.0
C      1  0.5316700000000  0.4604980000000  0.5738160000000 1.0
C      1  0.3704460000000  0.5225930000000  0.4424360000000 1.0
C      1  0.4299670000000  0.4546430000000  0.4878410000000 1.0
C      1  0.6229510000000  0.5071300000000  0.5404990000000 1.0
C      1  0.4186860000000  0.5244290000000  0.4477590000000 1.0
C      1  0.5049960000000  0.4835760000000  0.5125050000000 1.0
C      1  0.3984410000000  0.4835990000000  0.4644860000000 1.0
C      1  0.4956650000000  0.5090900000000  0.4998480000000 1.0
C      1  0.5596090000000  0.5733820000000  0.5779400000000 1.0
C      1  0.5451140000000  0.4217650000000  0.5162780000000 1.0
C      1  0.5130600000000  0.5368810000000  0.4626050000000 1.0
C      1  0.4907820000000  0.4173900000000  0.4453260000000 1.0
C      1  0.3970070000000  0.4743090000000  0.5160980000000 1.0
C      1  0.5221510000000  0.4720510000000  0.4880550000000 1.0
C      1  0.4782290000000  0.5594240000000  0.5841610000000 1.0
C      1  0.4779350000000  0.5154580000000  0.4127090000000 1.0
C      1  0.4710340000000  0.4582430000000  0.5410710000000 1.0
C      1  0.5067290000000  0.5559260000000  0.5838610000000 1.0
C      1  0.3997200000000  0.5581550000000  0.3835440000000 1.0
C      1  0.4537750000000  0.5003630000000  0.4784720000000 1.0
C      1  0.5727220000000  0.5281000000000  0.5900190000000 1.0
C      1  0.5613080000000  0.4187590000000  0.4931540000000 1.0
C      1  0.4439830000000  0.4014760000000  0.4503430000000 1.0
C      1  0.5537310000000  0.5986740000000  0.5328630000000 1.0
C      1  0.5771340000000  0.5472360000000  0.4663570000000 1.0
C      1  0.6125380000000  0.4812010000000  0.5462030000000 1.0
C      1  0.4964510000000  0.4249560000000  0.5996210000000 1.0
C      1  0.4739010000000  0.3971240000000  0.4879460000000 1.0
C      1  0.5140550000000  0.5122280000000  0.5486760000000 1.0
C      1  0.3923730000000  0.5116910000000  0.4564540000000 1.0
C      1  0.4891020000000  0.4871340000000  0.4549230000000 1.0
C      1  0.5515450000000  0.4741340000000  0.4915840000000 1.0
C      1  0.4137180000000  0.4605800000000  0.5354290000000 1.0
C      1  0.5132710000000  0.4533820000000  0.4178310000000 1.0
C      1  0.4248220000000  0.4096660000000  0.5097120000000 1.0
C      1  0.5588580000000  0.5675480000000  0.4572860000000 1.0
C      1  0.5332430000000  0.5312350000000  0.4425040000000 1.0
C      1  0.4989920000000  0.4488880000000  0.6120100000000 1.0
C      1  0.4891170000000  0.4668530000000  0.4091450000000 1.0
C      1  0.4582250000000  0.5383310000000  0.5872920000000 1.0
C      1  0.4887920000000  0.4743710000000  0.6045250000000 1.0
C      1  0.4022360000000  0.5700590000000  0.3600100000000 1.0
C      1  0.4173010000000  0.4315750000000  0.5285560000000 1.0
C      1  0.4475280000000  0.5544630000000  0.4178330000000 1.0
C      1  0.5331690000000  0.5538910000000  0.5372750000000 1.0
C      1  0.6106240000000  0.5547510000000  0.5505500000000 1.0
C      1  0.4225530000000  0.5406050000000  0.4239050000000 1.0
C      1  0.4882710000000  0.5270870000000  0.5393000000000 1.0
C      1  0.4728230000000  0.5435660000000  0.4068300000000 1.0
C      1  0.5372920000000  0.4686000000000  0.4097100000000 1.0
C      1  0.5923820000000  0.5141260000000  0.5754400000000 1.0
C      1  0.5048880000000  0.4983480000000  0.6020330000000 1.0
C      1  0.5536730000000  0.5491260000000  0.5929920000000 1.0
C      1  0.4376190000000  0.5040840000000  0.4555790000000 1.0
C      1  0.4685390000000  0.5173470000000  0.4952800000000 1.0
C      1  0.4771040000000  0.4071910000000  0.5540400000000 1.0
C      1  0.4669850000000  0.5458020000000  0.4982910000000 1.0
C      1  0.4572240000000  0.5664760000000  0.5423030000000 1.0
C      1  0.5950630000000  0.4855240000000  0.5705400000000 1.0
C      1  0.5785050000000  0.4621260000000  0.5726990000000 1.0
C      1  0.4426600000000  0.5047970000000  0.5527130000000 1.0
C      1  0.4671380000000  0.4415480000000  0.5190720000000 1.0
C      1  0.5175710000000  0.4906820000000  0.4643670000000 1.0
C      1  0.5998860000000  0.4751930000000  0.4383770000000 1.0
C      1  0.4702120000000  0.5795000000000  0.5642890000000 1.0
C      1  0.6024350000000  0.4575940000000  0.5335030000000 1.0
C      1  0.5005670000000  0.3973860000000  0.4987750000000 1.0
C      1  0.5655220000000  0.4604630000000  0.4707160000000 1.0
C      1  0.4841070000000  0.6036120000000  0.5608440000000 1.0
C      1  0.4585570000000  0.5784530000000  0.4592030000000 1.0
C      1  0.4505500000000  0.5782240000000  0.4333770000000 1.0
C      1  0.5516980000000  0.4823460000000  0.4302810000000 1.0
C      1  0.5333260000000  0.4622970000000  0.5455380000000 1.0
C      1  0.5287280000000  0.4898160000000  0.5316170000000 1.0
C      1  0.5696660000000  0.5850650000000  0.5533320000000 1.0
C      1  0.4692980000000  0.5048220000000  0.5407680000000 1.0
C      1  0.4386090000000  0.5296120000000  0.5669870000000 1.0
C      1  0.4879240000000  0.4110970000000  0.5782600000000 1.0
C      1  0.5204220000000  0.4079790000000  0.5137150000000 1.0
C      1  0.5161310000000  0.5208710000000  0.6164290000000 1.0
C      1  0.4856970000000  0.5385990000000  0.4550840000000 1.0
C      1  0.5548850000000  0.4601890000000  0.5878580000000 1.0
C      1  0.4334110000000  0.5522460000000  0.5498280000000 1.0
C      1  0.4050030000000  0.5818180000000  0.3369090000000 1.0
C      1  0.4541580000000  0.4621160000000  0.5640370000000 1.0
C      1  0.4053440000000  0.4699990000000  0.4891950000000 1.0
C      1  0.5959450000000  0.5768220000000  0.5472520000000 1.0
C      1  0.5539620000000  0.5869030000000  0.4781370000000 1.0
END
