TITL C-627113-6568-1531 8.16967944653703e-06 125000 -216.843174758167 0 0 37 (C1) n - 1
REM
REM in /home/nfs/bkarasulu/CARBON/AIRSS/Generating-Clusters/LCBOP/Only-C1/SD-CG/FIRE-CG
REM
REM
REM
REM
REM
REM ./C.cell (11c1c37f851c82e70ff6c80c92926a4b)
REM AIRSS Version 0.9.1 bugfix July 2018 build 013d7b7c2542+ Fri, 06 Jul 2018 19:26:36 +0100
REM compiler GCC version 9.2.1 20190827 (Red Hat 9.2.1-1)
REM options -cpp -mtune=generic -march=x86-64 -g -O0 -fpre-include=/usr/include/finclude/math-vector-fortran.h
REM seed 1934646186 -1897121115 -1953630615 1540951915 1153281425 967260457 751850676 -757979132 -1668283482 1018276971 -791154260 -666589995 1403528320 -1250369588 1653198904 2034865436 1558548856 1264511502 -1068307813 -876803550 -1662801734 1521704985 -131803688 1553747488 -182412273 -1148708991 1081101804 777537154 -38705528 -1680787098 -1949525941 -1296545184 1949058157
REM
CELL 1.54180   50.00000   50.00000   50.00000   90.00000   90.00000   90.00000
LATT -1
SFAC C  
C      1  0.4973760000000  0.4995730000000  0.4606680000000 1.0
C      1  0.4073780000000  0.5067240000000  0.5727970000000 1.0
C      1  0.4451170000000  0.4573370000000  0.5118860000000 1.0
C      1  0.5310560000000  0.5366760000000  0.4569470000000 1.0
C      1  0.5427100000000  0.5435370000000  0.5116250000000 1.0
C      1  0.4635080000000  0.4527070000000  0.4484630000000 1.0
C      1  0.5308920000000  0.5642950000000  0.4967060000000 1.0
C      1  0.5340800000000  0.4680020000000  0.5051750000000 1.0
C      1  0.5432650000000  0.4947680000000  0.5070150000000 1.0
C      1  0.4617060000000  0.4775620000000  0.4381990000000 1.0
C      1  0.5211990000000  0.5120640000000  0.4528950000000 1.0
C      1  0.4725910000000  0.5526510000000  0.4509140000000 1.0
C      1  0.4274820000000  0.5156530000000  0.5565460000000 1.0
C      1  0.5306740000000  0.5904590000000  0.5063140000000 1.0
C      1  0.4526890000000  0.4836280000000  0.5186560000000 1.0
C      1  0.4932080000000  0.5646940000000  0.4633550000000 1.0
C      1  0.5149270000000  0.4166240000000  0.4756690000000 1.0
C      1  0.4747610000000  0.4938770000000  0.5044750000000 1.0
C      1  0.5641940000000  0.4491890000000  0.5420140000000 1.0
C      1  0.4737150000000  0.5021190000000  0.4447700000000 1.0
C      1  0.4454010000000  0.5665380000000  0.5593690000000 1.0
C      1  0.4364590000000  0.5420800000000  0.5583350000000 1.0
C      1  0.5470750000000  0.4490920000000  0.5213520000000 1.0
C      1  0.5102890000000  0.4635830000000  0.4905070000000 1.0
C      1  0.5297520000000  0.3954540000000  0.4723260000000 1.0
C      1  0.4393090000000  0.4984760000000  0.5379410000000 1.0
C      1  0.4716200000000  0.4400920000000  0.4724480000000 1.0
C      1  0.4946360000000  0.4870700000000  0.4858770000000 1.0
C      1  0.5517120000000  0.5183660000000  0.5199100000000 1.0
C      1  0.4995180000000  0.4394520000000  0.4796090000000 1.0
C      1  0.4529370000000  0.4392980000000  0.4935940000000 1.0
C      1  0.4644490000000  0.5285480000000  0.4420480000000 1.0
C      1  0.5788600000000  0.4944800000000  0.5564170000000 1.0
C      1  0.5300960000000  0.6149830000000  0.5151140000000 1.0
C      1  0.5194010000000  0.5579010000000  0.4715270000000 1.0
C      1  0.5687800000000  0.5147590000000  0.5420330000000 1.0
C      1  0.5771770000000  0.4676890000000  0.5565040000000 1.0
END
