TITL C-627109-622-1484 16.566934587549 125000 -124.805395187691 0 0 22 (C1) n - 1
REM
REM in /home/nfs/bkarasulu/CARBON/AIRSS/Generating-Clusters/LCBOP/Only-C1/SD-CG/FIRE-CG
REM
REM
REM
REM
REM
REM ./C.cell (11c1c37f851c82e70ff6c80c92926a4b)
REM AIRSS Version 0.9.1 bugfix July 2018 build 013d7b7c2542+ Fri, 06 Jul 2018 19:26:36 +0100
REM compiler GCC version 9.2.1 20190827 (Red Hat 9.2.1-1)
REM options -cpp -mtune=generic -march=x86-64 -g -O0 -fpre-include=/usr/include/finclude/math-vector-fortran.h
REM seed -1270848760 1958444534 -433581492 1171523932 -1106341828 92080851 -603578543 1900294314 2125207615 -170693141 -1191712686 911442069 483179164 -162887305 171142451 511149604 2022652244 1234853899 -2102300205 -2056808458 -220678784 -481458092 124614390 -1649126582 -2000459009 1900498508 601590877 605312385 -1783601197 1344247158 771263171 667285708 -2005198326
REM
CELL 1.54180   50.00000   50.00000   50.00000   90.00000   90.00000   90.00000
LATT -1
SFAC C  
C      1  0.5203150000000  0.4822710000000  0.4854140000000 1.0
C      1  0.4957700000000  0.4932060000000  0.4863500000000 1.0
C      1  0.5031880000000  0.5357830000000  0.5063490000000 1.0
C      1  0.5685750000000  0.4735830000000  0.4892760000000 1.0
C      1  0.4496830000000  0.5032860000000  0.5384310000000 1.0
C      1  0.5896710000000  0.4579770000000  0.4857480000000 1.0
C      1  0.4463600000000  0.5356670000000  0.4710540000000 1.0
C      1  0.5464500000000  0.4899520000000  0.4929770000000 1.0
C      1  0.4742660000000  0.4799720000000  0.5786090000000 1.0
C      1  0.6119730000000  0.4414780000000  0.4820170000000 1.0
C      1  0.3939900000000  0.5325350000000  0.4970940000000 1.0
C      1  0.4229560000000  0.5444500000000  0.4611010000000 1.0
C      1  0.6369420000000  0.4508630000000  0.4882000000000 1.0
C      1  0.4394970000000  0.5158190000000  0.5156640000000 1.0
C      1  0.4119140000000  0.5214970000000  0.5138530000000 1.0
C      1  0.4617080000000  0.4915050000000  0.5588890000000 1.0
C      1  0.5298410000000  0.5345760000000  0.5100450000000 1.0
C      1  0.4569560000000  0.5230210000000  0.4939490000000 1.0
C      1  0.4845590000000  0.5175120000000  0.4954340000000 1.0
C      1  0.3985650000000  0.5432420000000  0.4726970000000 1.0
C      1  0.5482430000000  0.5156690000000  0.5046250000000 1.0
C      1  0.6085780000000  0.4161340000000  0.4722240000000 1.0
END
