TITL C-627107-135-1450 -6.37814219651748e-07 125000 -583.937342355963 0 0 96 (C1) n - 1
REM
REM in /home/nfs/bkarasulu/CARBON/AIRSS/Generating-Clusters/LCBOP/Only-C1/SD-CG/FIRE-CG
REM
REM
REM
REM
REM
REM ./C.cell (11c1c37f851c82e70ff6c80c92926a4b)
REM AIRSS Version 0.9.1 bugfix July 2018 build 013d7b7c2542+ Fri, 06 Jul 2018 19:26:36 +0100
REM compiler GCC version 9.2.1 20190827 (Red Hat 9.2.1-1)
REM options -cpp -mtune=generic -march=x86-64 -g -O0 -fpre-include=/usr/include/finclude/math-vector-fortran.h
REM seed 2005033649 -176121116 1348859145 1462485084 1200589619 -1033610513 1580595784 230954386 -1074918151 443428386 723290738 -77693973 -1109098595 -391912776 901420154 -178752986 1831097056 1454387762 -1656966203 1963015363 -741940146 2067389282 1984819196 -830963772 -635194342 180950469 -2101476915 1328661715 -1843956596 1481955521 -1503242012 -1571341570 45295550
REM
CELL 1.54180   50.00000   50.00000   50.00000   90.00000   90.00000   90.00000
LATT -1
SFAC C  
C      1  0.4891700000000  0.4290370000000  0.5533620000000 1.0
C      1  0.3710290000000  0.5247510000000  0.4912560000000 1.0
C      1  0.5436470000000  0.5641320000000  0.5616200000000 1.0
C      1  0.4637710000000  0.4551060000000  0.4255200000000 1.0
C      1  0.5091060000000  0.4465750000000  0.4427720000000 1.0
C      1  0.5170940000000  0.4733750000000  0.5752470000000 1.0
C      1  0.4296120000000  0.4070300000000  0.4574820000000 1.0
C      1  0.4224050000000  0.3871740000000  0.4422070000000 1.0
C      1  0.4267060000000  0.4805650000000  0.5249610000000 1.0
C      1  0.5614820000000  0.5166650000000  0.5044240000000 1.0
C      1  0.4367450000000  0.5623750000000  0.5257150000000 1.0
C      1  0.5047440000000  0.4445490000000  0.4911640000000 1.0
C      1  0.5282300000000  0.5880830000000  0.5628490000000 1.0
C      1  0.6130360000000  0.5387700000000  0.5468130000000 1.0
C      1  0.4498940000000  0.4503510000000  0.4878530000000 1.0
C      1  0.4296190000000  0.4555430000000  0.5116420000000 1.0
C      1  0.4836960000000  0.5088900000000  0.5965450000000 1.0
C      1  0.5725430000000  0.5021600000000  0.4609810000000 1.0
C      1  0.4867140000000  0.5433050000000  0.4203600000000 1.0
C      1  0.5300350000000  0.4353930000000  0.5023620000000 1.0
C      1  0.4885550000000  0.4420080000000  0.4236290000000 1.0
C      1  0.5075710000000  0.5282950000000  0.5567790000000 1.0
C      1  0.5073990000000  0.4611770000000  0.4676750000000 1.0
C      1  0.5371350000000  0.5025180000000  0.5061050000000 1.0
C      1  0.4478460000000  0.5629640000000  0.5522030000000 1.0
C      1  0.4204380000000  0.5390940000000  0.5214810000000 1.0
C      1  0.5651530000000  0.5637280000000  0.5423960000000 1.0
C      1  0.5601830000000  0.4288380000000  0.6154820000000 1.0
C      1  0.5024630000000  0.4886670000000  0.4730370000000 1.0
C      1  0.5428910000000  0.5555030000000  0.4846190000000 1.0
C      1  0.4483670000000  0.4732680000000  0.4403360000000 1.0
C      1  0.4550430000000  0.4739480000000  0.4683810000000 1.0
C      1  0.5272760000000  0.4465410000000  0.5767920000000 1.0
C      1  0.4389000000000  0.4973030000000  0.4288040000000 1.0
C      1  0.5595880000000  0.5506210000000  0.4407770000000 1.0
C      1  0.4146280000000  0.4342220000000  0.5202390000000 1.0
C      1  0.5296260000000  0.4878880000000  0.5284910000000 1.0
C      1  0.4428310000000  0.5237510000000  0.4260350000000 1.0
C      1  0.4738060000000  0.4507600000000  0.5477650000000 1.0
C      1  0.4327880000000  0.5200670000000  0.5034570000000 1.0
C      1  0.5537440000000  0.5043960000000  0.4379920000000 1.0
C      1  0.5110550000000  0.5425730000000  0.4349540000000 1.0
C      1  0.4682220000000  0.5206450000000  0.4759170000000 1.0
C      1  0.4377280000000  0.4276150000000  0.4720270000000 1.0
C      1  0.5510550000000  0.4328590000000  0.4824150000000 1.0
C      1  0.4927560000000  0.4244090000000  0.4030360000000 1.0
C      1  0.4746370000000  0.4940570000000  0.4732050000000 1.0
C      1  0.4639670000000  0.5765720000000  0.4762840000000 1.0
C      1  0.4936750000000  0.5766260000000  0.4766730000000 1.0
C      1  0.5026130000000  0.6016970000000  0.5211680000000 1.0
C      1  0.5385950000000  0.5780890000000  0.5001250000000 1.0
C      1  0.4177940000000  0.5162350000000  0.4796440000000 1.0
C      1  0.5055620000000  0.5535530000000  0.4617470000000 1.0
C      1  0.6230650000000  0.5151770000000  0.5354570000000 1.0
C      1  0.5424820000000  0.4151470000000  0.4599440000000 1.0
C      1  0.5177260000000  0.4300020000000  0.5548510000000 1.0
C      1  0.4540880000000  0.5655760000000  0.4511340000000 1.0
C      1  0.5109590000000  0.6011940000000  0.5468240000000 1.0
C      1  0.5847870000000  0.5427290000000  0.5406960000000 1.0
C      1  0.5664520000000  0.4545810000000  0.4679880000000 1.0
C      1  0.5815000000000  0.4778160000000  0.4750120000000 1.0
C      1  0.5653390000000  0.5494740000000  0.4686230000000 1.0
C      1  0.4597820000000  0.5460030000000  0.4304960000000 1.0
C      1  0.5193060000000  0.5091740000000  0.4850270000000 1.0
C      1  0.4844740000000  0.5430010000000  0.5184950000000 1.0
C      1  0.5349640000000  0.4346420000000  0.4396480000000 1.0
C      1  0.6027930000000  0.5008440000000  0.5204070000000 1.0
C      1  0.5393550000000  0.5309770000000  0.4322860000000 1.0
C      1  0.5555870000000  0.4549260000000  0.4399080000000 1.0
C      1  0.4836600000000  0.4765400000000  0.5416930000000 1.0
C      1  0.3976960000000  0.5232210000000  0.5320770000000 1.0
C      1  0.4868150000000  0.5239840000000  0.5384850000000 1.0
C      1  0.5025440000000  0.4894680000000  0.5938390000000 1.0
C      1  0.5985990000000  0.4825010000000  0.4983910000000 1.0
C      1  0.3731930000000  0.5276040000000  0.5182180000000 1.0
C      1  0.5793360000000  0.5182940000000  0.5252870000000 1.0
C      1  0.4046100000000  0.4950230000000  0.5370270000000 1.0
C      1  0.4677060000000  0.5294930000000  0.5890120000000 1.0
C      1  0.4773960000000  0.4409830000000  0.4980500000000 1.0
C      1  0.4746290000000  0.5383490000000  0.4944010000000 1.0
C      1  0.5209490000000  0.5374770000000  0.4795180000000 1.0
C      1  0.5408960000000  0.3615690000000  0.4583880000000 1.0
C      1  0.5442630000000  0.4373600000000  0.5966930000000 1.0
C      1  0.4710790000000  0.5003030000000  0.5336710000000 1.0
C      1  0.3913980000000  0.5190020000000  0.4743010000000 1.0
C      1  0.5292530000000  0.5405500000000  0.5662750000000 1.0
C      1  0.5113200000000  0.5883510000000  0.4977770000000 1.0
C      1  0.4479790000000  0.5757460000000  0.5015390000000 1.0
C      1  0.4470380000000  0.4998480000000  0.5185950000000 1.0
C      1  0.5312720000000  0.4284360000000  0.5298080000000 1.0
C      1  0.5586120000000  0.5807410000000  0.5201720000000 1.0
C      1  0.5419430000000  0.3876000000000  0.4590250000000 1.0
C      1  0.5724130000000  0.5239210000000  0.4786980000000 1.0
C      1  0.5516800000000  0.4790710000000  0.4256580000000 1.0
C      1  0.4564720000000  0.5489540000000  0.5738160000000 1.0
C      1  0.5114270000000  0.4800360000000  0.5479850000000 1.0
END
