TITL C-627106-156-1711 5.70083340576574e-07 125000 -885.664360891782 0 0 144 (C1) n - 1
REM
REM in /home/nfs/bkarasulu/CARBON/AIRSS/Generating-Clusters/LCBOP/Only-C1/SD-CG/FIRE-CG
REM
REM
REM
REM
REM
REM ./C.cell (11c1c37f851c82e70ff6c80c92926a4b)
REM AIRSS Version 0.9.1 bugfix July 2018 build 013d7b7c2542+ Fri, 06 Jul 2018 19:26:36 +0100
REM compiler GCC version 9.2.1 20190827 (Red Hat 9.2.1-1)
REM options -cpp -mtune=generic -march=x86-64 -g -O0 -fpre-include=/usr/include/finclude/math-vector-fortran.h
REM seed -1302986966 -1799541458 1038505280 -27740313 -561981949 81196614 -801667451 -2014409122 1912168955 2117732706 1667983482 1799152087 206197796 1319989035 118064116 1052880153 -291812074 900344818 -1423482652 -1199773834 -1373295132 384533051 -1365543015 129114418 1876208534 -87517107 -673083591 97212530 196260410 389405198 -1166532482 -600327841 -1179962232
REM
CELL 1.54180   50.00000   50.00000   50.00000   90.00000   90.00000   90.00000
LATT -1
SFAC C  
C      1  0.5436870000000  0.5071010000000  0.5541350000000 1.0
C      1  0.5445340000000  0.4664000000000  0.4925000000000 1.0
C      1  0.4204680000000  0.5018800000000  0.5122720000000 1.0
C      1  0.5778680000000  0.5753800000000  0.5520670000000 1.0
C      1  0.4881170000000  0.5358880000000  0.5522160000000 1.0
C      1  0.5330680000000  0.4471620000000  0.4740470000000 1.0
C      1  0.6214300000000  0.4037940000000  0.5454190000000 1.0
C      1  0.4557320000000  0.5397810000000  0.4597670000000 1.0
C      1  0.5835560000000  0.5479230000000  0.5586270000000 1.0
C      1  0.5680590000000  0.5339620000000  0.5793050000000 1.0
C      1  0.4590460000000  0.4152630000000  0.5323970000000 1.0
C      1  0.4210670000000  0.5915060000000  0.5191000000000 1.0
C      1  0.5004070000000  0.4617580000000  0.4361530000000 1.0
C      1  0.4971680000000  0.5093830000000  0.4403130000000 1.0
C      1  0.4964010000000  0.5669470000000  0.4022210000000 1.0
C      1  0.5315680000000  0.5277590000000  0.3961920000000 1.0
C      1  0.5740280000000  0.6306500000000  0.5878490000000 1.0
C      1  0.6150220000000  0.5123050000000  0.5406250000000 1.0
C      1  0.4095310000000  0.5703380000000  0.4579060000000 1.0
C      1  0.5622960000000  0.4462120000000  0.4284840000000 1.0
C      1  0.4577430000000  0.4832060000000  0.4919820000000 1.0
C      1  0.5455280000000  0.4612530000000  0.4118640000000 1.0
C      1  0.4803920000000  0.4956230000000  0.4844560000000 1.0
C      1  0.4891340000000  0.5829380000000  0.4243090000000 1.0
C      1  0.5019620000000  0.4794710000000  0.5986740000000 1.0
C      1  0.5020930000000  0.4711170000000  0.5156480000000 1.0
C      1  0.5305040000000  0.4833240000000  0.5544180000000 1.0
C      1  0.4340690000000  0.4261460000000  0.5412470000000 1.0
C      1  0.5677200000000  0.3955580000000  0.5935540000000 1.0
C      1  0.5329220000000  0.3999520000000  0.4335840000000 1.0
C      1  0.4670010000000  0.5378450000000  0.6060800000000 1.0
C      1  0.3917040000000  0.4231770000000  0.4725360000000 1.0
C      1  0.4003090000000  0.5313170000000  0.4814100000000 1.0
C      1  0.5578960000000  0.6172330000000  0.5702450000000 1.0
C      1  0.3546520000000  0.4729290000000  0.4669970000000 1.0
C      1  0.5853080000000  0.4886590000000  0.5031800000000 1.0
C      1  0.5745930000000  0.4259720000000  0.4815150000000 1.0
C      1  0.4834430000000  0.4852530000000  0.4356760000000 1.0
C      1  0.5099140000000  0.4804130000000  0.3910440000000 1.0
C      1  0.6192800000000  0.4471520000000  0.4746090000000 1.0
C      1  0.4428180000000  0.6049870000000  0.5270690000000 1.0
C      1  0.5361270000000  0.5472140000000  0.4945400000000 1.0
C      1  0.5118110000000  0.5473080000000  0.3924380000000 1.0
C      1  0.5033690000000  0.4255340000000  0.5274540000000 1.0
C      1  0.4204310000000  0.4456480000000  0.5543810000000 1.0
C      1  0.4142340000000  0.4356550000000  0.4612410000000 1.0
C      1  0.4401230000000  0.4277080000000  0.4683290000000 1.0
C      1  0.4695900000000  0.6044370000000  0.5297230000000 1.0
C      1  0.5806790000000  0.4623600000000  0.4463660000000 1.0
C      1  0.5407630000000  0.6308000000000  0.5537430000000 1.0
C      1  0.4427020000000  0.6038920000000  0.4384600000000 1.0
C      1  0.4441190000000  0.5313200000000  0.5954910000000 1.0
C      1  0.5925410000000  0.4699940000000  0.5525240000000 1.0
C      1  0.5150570000000  0.3870080000000  0.4496890000000 1.0
C      1  0.5818280000000  0.4020000000000  0.5726110000000 1.0
C      1  0.3202620000000  0.4429690000000  0.4832750000000 1.0
C      1  0.4158540000000  0.4700220000000  0.5655280000000 1.0
C      1  0.5054660000000  0.5802460000000  0.4478760000000 1.0
C      1  0.5505370000000  0.4267060000000  0.4666670000000 1.0
C      1  0.5052200000000  0.4910790000000  0.4960880000000 1.0
C      1  0.5505990000000  0.5359690000000  0.5156680000000 1.0
C      1  0.4896170000000  0.5866920000000  0.5210260000000 1.0
C      1  0.4216000000000  0.5950560000000  0.4523870000000 1.0
C      1  0.5540180000000  0.4867640000000  0.4018130000000 1.0
C      1  0.5202610000000  0.5000720000000  0.6076580000000 1.0
C      1  0.5481630000000  0.5083420000000  0.4726740000000 1.0
C      1  0.6150980000000  0.4854620000000  0.5444750000000 1.0
C      1  0.4072410000000  0.5035690000000  0.4258290000000 1.0
C      1  0.4394620000000  0.5353570000000  0.4374950000000 1.0
C      1  0.5944610000000  0.5313420000000  0.5368560000000 1.0
C      1  0.5590060000000  0.5889490000000  0.5691150000000 1.0
C      1  0.4817600000000  0.4463670000000  0.5679700000000 1.0
C      1  0.5783320000000  0.5294300000000  0.5127810000000 1.0
C      1  0.3958420000000  0.5305510000000  0.4252090000000 1.0
C      1  0.4974950000000  0.4452060000000  0.5075480000000 1.0
C      1  0.5926390000000  0.4455560000000  0.4683620000000 1.0
C      1  0.4201480000000  0.4963020000000  0.5710320000000 1.0
C      1  0.5308500000000  0.5002140000000  0.3884360000000 1.0
C      1  0.5107810000000  0.4737360000000  0.5409590000000 1.0
C      1  0.5790870000000  0.4823690000000  0.5742560000000 1.0
C      1  0.3792070000000  0.5150910000000  0.4730390000000 1.0
C      1  0.4707670000000  0.4737950000000  0.5622980000000 1.0
C      1  0.5501470000000  0.5550170000000  0.4321590000000 1.0
C      1  0.4132080000000  0.5447490000000  0.5322290000000 1.0
C      1  0.5509420000000  0.4212310000000  0.4389330000000 1.0
C      1  0.5653810000000  0.5067360000000  0.5726990000000 1.0
C      1  0.3749810000000  0.4906250000000  0.4597130000000 1.0
C      1  0.5354510000000  0.5299560000000  0.5387170000000 1.0
C      1  0.5417860000000  0.5728690000000  0.5854350000000 1.0
C      1  0.4248230000000  0.5195100000000  0.4899410000000 1.0
C      1  0.5162810000000  0.4604840000000  0.4120910000000 1.0
C      1  0.4551610000000  0.4791340000000  0.5396800000000 1.0
C      1  0.5187410000000  0.5261020000000  0.5931830000000 1.0
C      1  0.5679060000000  0.4683220000000  0.5099740000000 1.0
C      1  0.5125780000000  0.5472000000000  0.5426270000000 1.0
C      1  0.5799730000000  0.4937670000000  0.4436580000000 1.0
C      1  0.4653410000000  0.5474740000000  0.5070120000000 1.0
C      1  0.5422780000000  0.5446770000000  0.5893350000000 1.0
C      1  0.4671660000000  0.4045780000000  0.5048570000000 1.0
C      1  0.5317800000000  0.4915820000000  0.4872170000000 1.0
C      1  0.4837100000000  0.4937150000000  0.5792770000000 1.0
C      1  0.5872310000000  0.5844110000000  0.5266880000000 1.0
C      1  0.5436330000000  0.4011600000000  0.5121580000000 1.0
C      1  0.4638050000000  0.5405010000000  0.5361190000000 1.0
C      1  0.4028000000000  0.5177920000000  0.5283240000000 1.0
C      1  0.5879670000000  0.5317300000000  0.4849150000000 1.0
C      1  0.4421730000000  0.4845210000000  0.5154770000000 1.0
C      1  0.5758640000000  0.5124260000000  0.4664610000000 1.0
C      1  0.4918170000000  0.5785350000000  0.4730930000000 1.0
C      1  0.5673810000000  0.5053360000000  0.4196250000000 1.0
C      1  0.5154550000000  0.4020170000000  0.5161480000000 1.0
C      1  0.4815980000000  0.5705530000000  0.4985830000000 1.0
C      1  0.5068560000000  0.5289490000000  0.4551690000000 1.0
C      1  0.5328130000000  0.5730030000000  0.4428350000000 1.0
C      1  0.5951870000000  0.5783300000000  0.5015160000000 1.0
C      1  0.4984350000000  0.4514550000000  0.5917340000000 1.0
C      1  0.5782630000000  0.4540460000000  0.5329440000000 1.0
C      1  0.4939090000000  0.3905960000000  0.4995190000000 1.0
C      1  0.3461740000000  0.4477960000000  0.4762900000000 1.0
C      1  0.3659970000000  0.4279400000000  0.4779540000000 1.0
C      1  0.4494570000000  0.5345580000000  0.4867710000000 1.0
C      1  0.4087770000000  0.4582510000000  0.4452880000000 1.0
C      1  0.4097380000000  0.5665270000000  0.5122740000000 1.0
C      1  0.5103860000000  0.5747390000000  0.5359530000000 1.0
C      1  0.5812690000000  0.4260210000000  0.5305440000000 1.0
C      1  0.4136160000000  0.5500390000000  0.4372550000000 1.0
C      1  0.5062930000000  0.4485210000000  0.4615310000000 1.0
C      1  0.4360830000000  0.5079430000000  0.4277260000000 1.0
C      1  0.4636600000000  0.4237270000000  0.4826680000000 1.0
C      1  0.5528910000000  0.5314980000000  0.4164430000000 1.0
C      1  0.4324110000000  0.5223120000000  0.5716840000000 1.0
C      1  0.3956220000000  0.4828130000000  0.4412690000000 1.0
C      1  0.4870270000000  0.4402050000000  0.4811800000000 1.0
C      1  0.4373090000000  0.5391520000000  0.5482920000000 1.0
C      1  0.4564970000000  0.4886820000000  0.4282680000000 1.0
C      1  0.5973930000000  0.5586670000000  0.4827020000000 1.0
C      1  0.4824560000000  0.4257950000000  0.5475730000000 1.0
C      1  0.4024680000000  0.5597640000000  0.4842520000000 1.0
C      1  0.4657060000000  0.5981790000000  0.4261660000000 1.0
C      1  0.5016690000000  0.3828820000000  0.4729190000000 1.0
C      1  0.4925310000000  0.5217900000000  0.5769700000000 1.0
C      1  0.5183380000000  0.5412240000000  0.4757420000000 1.0
C      1  0.5952190000000  0.4104280000000  0.5495560000000 1.0
C      1  0.5690120000000  0.4144530000000  0.5076800000000 1.0
END
