TITL C-627106-156-1652 355.223467076321 125000 -1169.11813168732 0 0 190 (C1) n - 1
REM
REM in /home/nfs/bkarasulu/CARBON/AIRSS/Generating-Clusters/LCBOP/Only-C1/SD-CG/FIRE-CG
REM
REM
REM
REM
REM
REM ./C.cell (11c1c37f851c82e70ff6c80c92926a4b)
REM AIRSS Version 0.9.1 bugfix July 2018 build 013d7b7c2542+ Fri, 06 Jul 2018 19:26:36 +0100
REM compiler GCC version 9.2.1 20190827 (Red Hat 9.2.1-1)
REM options -cpp -mtune=generic -march=x86-64 -g -O0 -fpre-include=/usr/include/finclude/math-vector-fortran.h
REM seed 1666477260 -1810957981 -856444722 2045848900 1355555370 938363681 -2135138636 -2022980210 -325880785 570179839 1661267345 1514408647 2053034056 -1699445872 -2077561850 1842992023 1920007747 1992221901 427995951 -1994439324 1382952572 2087444654 -843670436 -1856620562 -1875464284 -1056465934 -90827700 -491472341 -772574390 1792144037 -1991598450 1431476778 -1194553920
REM
CELL 1.54180   50.00000   50.00000   50.00000   90.00000   90.00000   90.00000
LATT -1
SFAC C  
C      1  0.4913040000000  0.5561790000000  0.4536730000000 1.0
C      1  0.5276080000000  0.4300030000000  0.5670310000000 1.0
C      1  0.5470110000000  0.5484930000000  0.5427620000000 1.0
C      1  0.5790150000000  0.4186650000000  0.4311330000000 1.0
C      1  0.5547830000000  0.5494910000000  0.4934570000000 1.0
C      1  0.4492120000000  0.4437780000000  0.4010450000000 1.0
C      1  0.4235200000000  0.4483340000000  0.4159580000000 1.0
C      1  0.5291940000000  0.5114090000000  0.4293960000000 1.0
C      1  0.4130510000000  0.6156060000000  0.5265640000000 1.0
C      1  0.5535640000000  0.5652740000000  0.4183870000000 1.0
C      1  0.4627650000000  0.4150710000000  0.4947060000000 1.0
C      1  0.5395100000000  0.5161900000000  0.4550280000000 1.0
C      1  0.5282950000000  0.5333600000000  0.5622280000000 1.0
C      1  0.4818220000000  0.5196010000000  0.5327590000000 1.0
C      1  0.5849680000000  0.4340480000000  0.5415100000000 1.0
C      1  0.4263070000000  0.5574070000000  0.4863540000000 1.0
C      1  0.5855920000000  0.4312060000000  0.5130560000000 1.0
C      1  0.5282720000000  0.3864640000000  0.5081490000000 1.0
C      1  0.6288480000000  0.5367390000000  0.4781750000000 1.0
C      1  0.4082800000000  0.5698890000000  0.5071410000000 1.0
C      1  0.5003680000000  0.5102880000000  0.4262990000000 1.0
C      1  0.4739370000000  0.4243490000000  0.5702840000000 1.0
C      1  0.4504400000000  0.4236580000000  0.5509250000000 1.0
C      1  0.4345100000000  0.5383880000000  0.3937380000000 1.0
C      1  0.4091750000000  0.3932350000000  0.5659770000000 1.0
C      1  0.5700240000000  0.5084830000000  0.5532190000000 1.0
C      1  0.6214330000000  0.4921700000000  0.5059800000000 1.0
C      1  0.6082610000000  0.5798080000000  0.5443790000000 1.0
C      1  0.4316660000000  0.4953190000000  0.6010410000000 1.0
C      1  0.6088550000000  0.4391260000000  0.4971110000000 1.0
C      1  0.4351750000000  0.5999610000000  0.5682320000000 1.0
C      1  0.5437230000000  0.5213300000000  0.4069860000000 1.0
C      1  0.5614740000000  0.4759400000000  0.4980140000000 1.0
C      1  0.5303980000000  0.4712030000000  0.3898800000000 1.0
C      1  0.4450160000000  0.6221860000000  0.4671980000000 1.0
C      1  0.4918670000000  0.4878220000000  0.4096870000000 1.0
C      1  0.4154020000000  0.4889380000000  0.4670370000000 1.0
C      1  0.5581240000000  0.4287430000000  0.4976740000000 1.0
C      1  0.4776500000000  0.5574320000000  0.3917560000000 1.0
C      1  0.4784770000000  0.5288730000000  0.3815010000000 1.0
C      1  0.4935050000000  0.4897260000000  0.4703690000000 1.0
C      1  0.4083730000000  0.5064120000000  0.5881690000000 1.0
C      1  0.4558660000000  0.3769190000000  0.4637200000000 1.0
C      1  0.3907730000000  0.5475320000000  0.5165990000000 1.0
C      1  0.5596370000000  0.5722450000000  0.5540910000000 1.0
C      1  0.4651810000000  0.5173430000000  0.5107880000000 1.0
C      1  0.5822050000000  0.5169590000000  0.5278670000000 1.0
C      1  0.6065040000000  0.4996960000000  0.5289880000000 1.0
C      1  0.5072370000000  0.4360200000000  0.5031750000000 1.0
C      1  0.4564680000000  0.4753250000000  0.4457880000000 1.0
C      1  0.5793310000000  0.4584530000000  0.4544540000000 1.0
C      1  0.4357620000000  0.6017790000000  0.4840170000000 1.0
C      1  0.5902880000000  0.5057920000000  0.4435480000000 1.0
C      1  0.5861520000000  0.4833870000000  0.5990520000000 1.0
C      1  0.5423690000000  0.4724050000000  0.5222310000000 1.0
C      1  0.4011880000000  0.3674420000000  0.5694040000000 1.0
C      1  0.4158040000000  0.4768070000000  0.4040930000000 1.0
C      1  0.4945150000000  0.5853250000000  0.4929250000000 1.0
C      1  0.5113330000000  0.4363520000000  0.4752890000000 1.0
C      1  0.4505970000000  0.5151410000000  0.3856240000000 1.0
C      1  0.4895170000000  0.5907370000000  0.5202440000000 1.0
C      1  0.5179570000000  0.5578420000000  0.4648810000000 1.0
C      1  0.4752630000000  0.5731840000000  0.4731570000000 1.0
C      1  0.4443460000000  0.5734730000000  0.5705480000000 1.0
C      1  0.5477130000000  0.4905270000000  0.5484610000000 1.0
C      1  0.4739410000000  0.4375770000000  0.4134220000000 1.0
C      1  0.4911430000000  0.4009790000000  0.5314070000000 1.0
C      1  0.3718750000000  0.4891850000000  0.5215130000000 1.0
C      1  0.3908040000000  0.4884660000000  0.4071810000000 1.0
C      1  0.5933050000000  0.6657990000000  0.4720150000000 1.0
C      1  0.5052400000000  0.4882010000000  0.5774830000000 1.0
C      1  0.4211840000000  0.5177190000000  0.5401740000000 1.0
C      1  0.5079430000000  0.5407730000000  0.6119560000000 1.0
C      1  0.5774560000000  0.4466480000000  0.5661930000000 1.0
C      1  0.5090410000000  0.4909240000000  0.3845170000000 1.0
C      1  0.4373680000000  0.3656000000000  0.4485020000000 1.0
C      1  0.5583160000000  0.4540230000000  0.4771330000000 1.0
C      1  0.4931170000000  0.5987210000000  0.4132830000000 1.0
C      1  0.5735350000000  0.4985410000000  0.4879430000000 1.0
C      1  0.4928510000000  0.4588370000000  0.4147350000000 1.0
C      1  0.4375920000000  0.4411640000000  0.5292870000000 1.0
C      1  0.5505740000000  0.4200610000000  0.4303320000000 1.0
C      1  0.6092970000000  0.5369880000000  0.5676130000000 1.0
C      1  0.4734350000000  0.3917610000000  0.4796190000000 1.0
C      1  0.5518580000000  0.5767950000000  0.5812680000000 1.0
C      1  0.5741960000000  0.5055300000000  0.6131770000000 1.0
C      1  0.4965090000000  0.4650660000000  0.5623520000000 1.0
C      1  0.5060250000000  0.5047220000000  0.5308610000000 1.0
C      1  0.5773410000000  0.4754920000000  0.4072610000000 1.0
C      1  0.5348930000000  0.4406170000000  0.5191770000000 1.0
C      1  0.5011470000000  0.3836000000000  0.4822220000000 1.0
C      1  0.5324110000000  0.4196430000000  0.5412190000000 1.0
C      1  0.4157190000000  0.5981360000000  0.5050080000000 1.0
C      1  0.4302400000000  0.4724070000000  0.4517170000000 1.0
C      1  0.4233360000000  0.4658270000000  0.5376010000000 1.0
C      1  0.4998760000000  0.4382500000000  0.5692320000000 1.0
C      1  0.3781720000000  0.5020990000000  0.4952550000000 1.0
C      1  0.4574990000000  0.4928310000000  0.5897160000000 1.0
C      1  0.5827520000000  0.4797250000000  0.4345740000000 1.0
C      1  0.3908320000000  0.4815340000000  0.4783610000000 1.0
C      1  0.5309080000000  0.4548950000000  0.4637710000000 1.0
C      1  0.4429990000000  0.5013790000000  0.5048290000000 1.0
C      1  0.4996800000000  0.5741060000000  0.4012130000000 1.0
C      1  0.5054280000000  0.5188940000000  0.3779060000000 1.0
C      1  0.5265960000000  0.5631000000000  0.4011080000000 1.0
C      1  0.5938200000000  0.4340160000000  0.4495010000000 1.0
C      1  0.4830750000000  0.5151240000000  0.4672780000000 1.0
C      1  0.4754180000000  0.5396610000000  0.5513010000000 1.0
C      1  0.3947320000000  0.5289310000000  0.5384350000000 1.0
C      1  0.5215580000000  0.5044110000000  0.5571740000000 1.0
C      1  0.6163040000000  0.5552620000000  0.4625810000000 1.0
C      1  0.4789530000000  0.6159280000000  0.4280680000000 1.0
C      1  0.3931490000000  0.4152740000000  0.5727020000000 1.0
C      1  0.3880330000000  0.5291780000000  0.4929370000000 1.0
C      1  0.5164860000000  0.4837610000000  0.4829100000000 1.0
C      1  0.4905340000000  0.4858250000000  0.6253170000000 1.0
C      1  0.5368810000000  0.3971750000000  0.4389910000000 1.0
C      1  0.4039510000000  0.4653890000000  0.5596600000000 1.0
C      1  0.6078490000000  0.4831480000000  0.5531890000000 1.0
C      1  0.3680700000000  0.5002620000000  0.4119830000000 1.0
C      1  0.4783980000000  0.4698290000000  0.4591930000000 1.0
C      1  0.4375670000000  0.4303440000000  0.5001140000000 1.0
C      1  0.5183450000000  0.4878870000000  0.5106760000000 1.0
C      1  0.5749460000000  0.6167910000000  0.4671390000000 1.0
C      1  0.5355240000000  0.4448290000000  0.4341200000000 1.0
C      1  0.4616760000000  0.6251320000000  0.4463230000000 1.0
C      1  0.3916990000000  0.4547130000000  0.4909400000000 1.0
C      1  0.5377110000000  0.5378270000000  0.4723480000000 1.0
C      1  0.4688920000000  0.5663170000000  0.5575130000000 1.0
C      1  0.5505410000000  0.5790390000000  0.4873520000000 1.0
C      1  0.4145210000000  0.5325740000000  0.4804520000000 1.0
C      1  0.5709930000000  0.5746110000000  0.4419710000000 1.0
C      1  0.5872960000000  0.5312500000000  0.4309280000000 1.0
C      1  0.4384530000000  0.4885930000000  0.3876880000000 1.0
C      1  0.5582730000000  0.4738870000000  0.3884010000000 1.0
C      1  0.4558030000000  0.4861870000000  0.5624220000000 1.0
C      1  0.5924840000000  0.4701070000000  0.5742340000000 1.0
C      1  0.4143950000000  0.4376020000000  0.4802720000000 1.0
C      1  0.4844000000000  0.4216500000000  0.5128410000000 1.0
C      1  0.4866490000000  0.5293410000000  0.4431710000000 1.0
C      1  0.4286930000000  0.5085860000000  0.4811800000000 1.0
C      1  0.4831680000000  0.5520600000000  0.6109590000000 1.0
C      1  0.5657630000000  0.5376230000000  0.4136050000000 1.0
C      1  0.3936300000000  0.4418020000000  0.5704270000000 1.0
C      1  0.5942810000000  0.5064240000000  0.4713110000000 1.0
C      1  0.4519630000000  0.4640900000000  0.3803450000000 1.0
C      1  0.4731430000000  0.4713550000000  0.5483430000000 1.0
C      1  0.5526590000000  0.5516090000000  0.5967300000000 1.0
C      1  0.4342310000000  0.4002170000000  0.5553860000000 1.0
C      1  0.5622120000000  0.5379710000000  0.5189440000000 1.0
C      1  0.5520290000000  0.4399010000000  0.5781060000000 1.0
C      1  0.6226450000000  0.4638270000000  0.5016280000000 1.0
C      1  0.5307270000000  0.3931850000000  0.4653280000000 1.0
C      1  0.4219890000000  0.6162910000000  0.5517460000000 1.0
C      1  0.3790220000000  0.5047470000000  0.5452490000000 1.0
C      1  0.5819290000000  0.5851760000000  0.5430890000000 1.0
C      1  0.5377260000000  0.5157280000000  0.6464470000000 1.0
C      1  0.4289070000000  0.4925850000000  0.5275300000000 1.0
C      1  0.5214570000000  0.5807550000000  0.4834560000000 1.0
C      1  0.4877730000000  0.5861470000000  0.5482910000000 1.0
C      1  0.4189570000000  0.3555750000000  0.4330080000000 1.0
C      1  0.4204910000000  0.4467260000000  0.4459320000000 1.0
C      1  0.3932280000000  0.4911070000000  0.5677460000000 1.0
C      1  0.4097300000000  0.5348260000000  0.5876780000000 1.0
C      1  0.5843950000000  0.5247800000000  0.5727990000000 1.0
C      1  0.5601980000000  0.5043260000000  0.6373400000000 1.0
C      1  0.6201090000000  0.5585670000000  0.5559140000000 1.0
C      1  0.5210750000000  0.4539860000000  0.4117640000000 1.0
C      1  0.5940660000000  0.5558800000000  0.4451050000000 1.0
C      1  0.6190430000000  0.5108970000000  0.4843050000000 1.0
C      1  0.5066440000000  0.5961810000000  0.5669970000000 1.0
C      1  0.5262020000000  0.5409380000000  0.5903340000000 1.0
C      1  0.4852340000000  0.4926960000000  0.5987700000000 1.0
C      1  0.5177620000000  0.5303760000000  0.6363030000000 1.0
C      1  0.5264470000000  0.5355060000000  0.3885270000000 1.0
C      1  0.4267180000000  0.5549920000000  0.5825880000000 1.0
C      1  0.4912770000000  0.4743870000000  0.6487390000000 1.0
C      1  0.5841770000000  0.6415060000000  0.4695330000000 1.0
C      1  0.3763800000000  0.4601880000000  0.5155130000000 1.0
C      1  0.5189890000000  0.3960970000000  0.5322470000000 1.0
C      1  0.5459850000000  0.4000440000000  0.4897870000000 1.0
C      1  0.4494430000000  0.5614100000000  0.3970070000000 1.0
C      1  0.4796620000000  0.4122160000000  0.4215990000000 1.0
C      1  0.5720200000000  0.5299980000000  0.5976790000000 1.0
C      1  0.4751420000000  0.5298390000000  0.4887760000000 1.0
C      1  0.5656080000000  0.5905730000000  0.4654520000000 1.0
C      1  0.6107150000000  0.4274520000000  0.4710530000000 1.0
C      1  0.4697930000000  0.4101820000000  0.5939220000000 1.0
C      1  0.5288020000000  0.5936490000000  0.5823710000000 1.0
C      1  0.4471650000000  0.5752720000000  0.4779430000000 1.0
END
