TITL C-627109-622-1631 -7.57443917320544e-07 125000 -362.377780943426 0 0 60 (C1) n - 1
REM
REM in /home/nfs/bkarasulu/CARBON/AIRSS/Generating-Clusters/LCBOP/Only-C1/SD-CG/FIRE-CG
REM
REM
REM
REM
REM
REM ./C.cell (11c1c37f851c82e70ff6c80c92926a4b)
REM AIRSS Version 0.9.1 bugfix July 2018 build 013d7b7c2542+ Fri, 06 Jul 2018 19:26:36 +0100
REM compiler GCC version 9.2.1 20190827 (Red Hat 9.2.1-1)
REM options -cpp -mtune=generic -march=x86-64 -g -O0 -fpre-include=/usr/include/finclude/math-vector-fortran.h
REM seed 1533335046 354330835 -2022859495 -803358082 1534380688 256790276 1873770154 453544572 1643228776 -2005285940 -1997769457 653611625 -648194223 549127044 -241007275 542570591 1892643079 2099390205 -1094342393 255140147 693906911 -606412254 -752082328 -468071608 97817519 -534453643 1083520722 -1745751949 1685982112 1796916805 -1250347643 157682335 1425916979
REM
CELL 1.54180   50.00000   50.00000   50.00000   90.00000   90.00000   90.00000
LATT -1
SFAC C  
C      1  0.5149610000000  0.5540640000000  0.4779240000000 1.0
C      1  0.5599710000000  0.5451650000000  0.4970180000000 1.0
C      1  0.5038910000000  0.5097940000000  0.5162590000000 1.0
C      1  0.4985270000000  0.5595400000000  0.5599720000000 1.0
C      1  0.4868500000000  0.5814560000000  0.5142540000000 1.0
C      1  0.5311560000000  0.4614450000000  0.4790810000000 1.0
C      1  0.4242070000000  0.4189700000000  0.5232020000000 1.0
C      1  0.5935280000000  0.5038420000000  0.4471460000000 1.0
C      1  0.5121850000000  0.4608070000000  0.4314780000000 1.0
C      1  0.4649560000000  0.4110660000000  0.5543280000000 1.0
C      1  0.5935660000000  0.5260570000000  0.4618210000000 1.0
C      1  0.4936450000000  0.4765090000000  0.4184000000000 1.0
C      1  0.5345230000000  0.4605220000000  0.4500530000000 1.0
C      1  0.5159860000000  0.4400870000000  0.4896280000000 1.0
C      1  0.5392520000000  0.4826210000000  0.4981900000000 1.0
C      1  0.5064970000000  0.5742750000000  0.4955130000000 1.0
C      1  0.4078040000000  0.4655980000000  0.5261640000000 1.0
C      1  0.4483420000000  0.4929950000000  0.4717640000000 1.0
C      1  0.4689300000000  0.5225090000000  0.5635760000000 1.0
C      1  0.4796070000000  0.5003910000000  0.5097510000000 1.0
C      1  0.4952540000000  0.5324050000000  0.5664030000000 1.0
C      1  0.5422450000000  0.5172200000000  0.5560380000000 1.0
C      1  0.4896990000000  0.5054170000000  0.4192090000000 1.0
C      1  0.5621880000000  0.5517170000000  0.5243360000000 1.0
C      1  0.5604760000000  0.4651070000000  0.4402430000000 1.0
C      1  0.4475080000000  0.5049700000000  0.4461000000000 1.0
C      1  0.4547750000000  0.5612820000000  0.4593780000000 1.0
C      1  0.5816920000000  0.5416590000000  0.4798460000000 1.0
C      1  0.5478200000000  0.4480200000000  0.5331880000000 1.0
C      1  0.5503210000000  0.4743440000000  0.5237100000000 1.0
C      1  0.5271830000000  0.5094320000000  0.4999460000000 1.0
C      1  0.5172310000000  0.5143530000000  0.5699530000000 1.0
C      1  0.5815410000000  0.4813780000000  0.4393690000000 1.0
C      1  0.4871720000000  0.4216250000000  0.5644250000000 1.0
C      1  0.4430470000000  0.4092440000000  0.5393390000000 1.0
C      1  0.5534360000000  0.5416920000000  0.5477010000000 1.0
C      1  0.4682260000000  0.5200760000000  0.4333470000000 1.0
C      1  0.4219120000000  0.4527230000000  0.4854150000000 1.0
C      1  0.4299920000000  0.5092230000000  0.5309420000000 1.0
C      1  0.5189990000000  0.5434780000000  0.4305490000000 1.0
C      1  0.5343600000000  0.5351740000000  0.4888550000000 1.0
C      1  0.4742140000000  0.4931600000000  0.4832930000000 1.0
C      1  0.5159900000000  0.5157710000000  0.4278290000000 1.0
C      1  0.5317800000000  0.4348180000000  0.5500610000000 1.0
C      1  0.5119310000000  0.4893680000000  0.5819700000000 1.0
C      1  0.5078240000000  0.4630580000000  0.5804500000000 1.0
C      1  0.4138170000000  0.4416130000000  0.5109810000000 1.0
C      1  0.5091680000000  0.4387590000000  0.5663380000000 1.0
C      1  0.4990570000000  0.4209690000000  0.4948550000000 1.0
C      1  0.4197460000000  0.4892910000000  0.5143800000000 1.0
C      1  0.5026140000000  0.5528100000000  0.4518020000000 1.0
C      1  0.4491260000000  0.5756960000000  0.4812020000000 1.0
C      1  0.4746290000000  0.5457570000000  0.4468890000000 1.0
C      1  0.4463300000000  0.5179300000000  0.5501610000000 1.0
C      1  0.4609390000000  0.5844020000000  0.5036800000000 1.0
C      1  0.4925440000000  0.5777240000000  0.5413590000000 1.0
C      1  0.5182300000000  0.5024720000000  0.4530980000000 1.0
C      1  0.5533530000000  0.4943100000000  0.5435460000000 1.0
C      1  0.4971550000000  0.4927010000000  0.4671450000000 1.0
C      1  0.4280940000000  0.4811380000000  0.4871480000000 1.0
END
