TITL C-627111-6168-1971 22.5001654415444 125000 -1068.47311530997 0 0 175 (C1) n - 1
REM
REM in /home/nfs/bkarasulu/CARBON/AIRSS/Generating-Clusters/LCBOP/Only-C1/SD-CG/FIRE-CG
REM
REM
REM
REM
REM
REM ./C.cell (11c1c37f851c82e70ff6c80c92926a4b)
REM AIRSS Version 0.9.1 bugfix July 2018 build 013d7b7c2542+ Fri, 06 Jul 2018 19:26:36 +0100
REM compiler GCC version 9.2.1 20190827 (Red Hat 9.2.1-1)
REM options -cpp -mtune=generic -march=x86-64 -g -O0 -fpre-include=/usr/include/finclude/math-vector-fortran.h
REM seed -1717619775 405904069 -856144007 1897777461 950361971 2003480325 1846437088 -1765937811 -472819129 -1871860472 -273488662 -681963747 1566893716 197604929 -2072104524 1171279709 1041654429 -1817805112 -1865727286 72762985 -1189313542 2122151112 1119602355 -2047982745 -1410315850 -779367282 -133680266 -1477510095 -870736714 523625247 -1478610991 -1340478671 -941118433
REM
CELL 1.54180   50.00000   50.00000   50.00000   90.00000   90.00000   90.00000
LATT -1
SFAC C  
C      1  0.4368080000000  0.4774100000000  0.4371870000000 1.0
C      1  0.3870490000000  0.5237540000000  0.5128010000000 1.0
C      1  0.4735780000000  0.5056660000000  0.4246600000000 1.0
C      1  0.4289280000000  0.4076710000000  0.4489570000000 1.0
C      1  0.5208330000000  0.4974130000000  0.6046280000000 1.0
C      1  0.5563270000000  0.3993490000000  0.5299850000000 1.0
C      1  0.4896590000000  0.5601320000000  0.5728860000000 1.0
C      1  0.4164300000000  0.4586070000000  0.3688060000000 1.0
C      1  0.5040760000000  0.4739990000000  0.3947990000000 1.0
C      1  0.5486410000000  0.6208530000000  0.4577870000000 1.0
C      1  0.5373020000000  0.4737200000000  0.5125950000000 1.0
C      1  0.5049360000000  0.5796650000000  0.4831990000000 1.0
C      1  0.5042130000000  0.6080660000000  0.4752810000000 1.0
C      1  0.5053420000000  0.3929870000000  0.5679590000000 1.0
C      1  0.5533960000000  0.5571820000000  0.4452940000000 1.0
C      1  0.5172710000000  0.4555240000000  0.5040150000000 1.0
C      1  0.4994530000000  0.5135100000000  0.5956970000000 1.0
C      1  0.4456030000000  0.5046650000000  0.4725000000000 1.0
C      1  0.4885960000000  0.3940290000000  0.4879340000000 1.0
C      1  0.4867570000000  0.5671330000000  0.5029820000000 1.0
C      1  0.5058100000000  0.4450180000000  0.4005090000000 1.0
C      1  0.4546730000000  0.4998060000000  0.4455700000000 1.0
C      1  0.3871280000000  0.4864490000000  0.5584660000000 1.0
C      1  0.5938670000000  0.5482590000000  0.5413330000000 1.0
C      1  0.4359320000000  0.5104340000000  0.5899310000000 1.0
C      1  0.5015040000000  0.5158580000000  0.5044760000000 1.0
C      1  0.6194730000000  0.6260760000000  0.4765220000000 1.0
C      1  0.4232750000000  0.5689000000000  0.4235870000000 1.0
C      1  0.5684520000000  0.5783030000000  0.4551160000000 1.0
C      1  0.5705330000000  0.4546290000000  0.4231560000000 1.0
C      1  0.6006190000000  0.4335580000000  0.5099270000000 1.0
C      1  0.4903360000000  0.4642990000000  0.5048510000000 1.0
C      1  0.5493650000000  0.5194640000000  0.4941830000000 1.0
C      1  0.5547160000000  0.4125180000000  0.5552450000000 1.0
C      1  0.5329910000000  0.4480810000000  0.6110250000000 1.0
C      1  0.3904320000000  0.4277380000000  0.5093000000000 1.0
C      1  0.4914330000000  0.4678630000000  0.5497180000000 1.0
C      1  0.4998570000000  0.4379290000000  0.5825540000000 1.0
C      1  0.5368570000000  0.4825200000000  0.5402830000000 1.0
C      1  0.5894060000000  0.4965350000000  0.5492720000000 1.0
C      1  0.4964440000000  0.4214830000000  0.5321950000000 1.0
C      1  0.5251290000000  0.4296340000000  0.4141310000000 1.0
C      1  0.5962160000000  0.6163040000000  0.4684270000000 1.0
C      1  0.5718570000000  0.6054830000000  0.4605990000000 1.0
C      1  0.4717460000000  0.5972060000000  0.5513200000000 1.0
C      1  0.5257590000000  0.4280250000000  0.5918010000000 1.0
C      1  0.4876500000000  0.5319140000000  0.4243260000000 1.0
C      1  0.4504730000000  0.6013090000000  0.5318130000000 1.0
C      1  0.3902970000000  0.5381400000000  0.5359110000000 1.0
C      1  0.5790230000000  0.5708040000000  0.5494890000000 1.0
C      1  0.4531520000000  0.4149690000000  0.5643340000000 1.0
C      1  0.5438690000000  0.4974950000000  0.4214730000000 1.0
C      1  0.5797510000000  0.4493060000000  0.5829170000000 1.0
C      1  0.4535190000000  0.4878330000000  0.4926840000000 1.0
C      1  0.5394350000000  0.5681680000000  0.6268270000000 1.0
C      1  0.4250810000000  0.5468690000000  0.4676950000000 1.0
C      1  0.4802290000000  0.5522150000000  0.4473490000000 1.0
C      1  0.4614500000000  0.4597300000000  0.3982080000000 1.0
C      1  0.4298630000000  0.4023700000000  0.5161710000000 1.0
C      1  0.5334670000000  0.5321530000000  0.5456470000000 1.0
C      1  0.5635090000000  0.5398350000000  0.4253940000000 1.0
C      1  0.4839140000000  0.3896250000000  0.4616850000000 1.0
C      1  0.5857790000000  0.4617780000000  0.4698870000000 1.0
C      1  0.4139400000000  0.4923600000000  0.4275640000000 1.0
C      1  0.5264260000000  0.4768200000000  0.4619820000000 1.0
C      1  0.5513130000000  0.5443960000000  0.5043690000000 1.0
C      1  0.5096660000000  0.5197880000000  0.3796570000000 1.0
C      1  0.5641200000000  0.4332930000000  0.4418210000000 1.0
C      1  0.5051270000000  0.5638880000000  0.4590780000000 1.0
C      1  0.4775000000000  0.5485380000000  0.5266760000000 1.0
C      1  0.4816360000000  0.5200790000000  0.6164120000000 1.0
C      1  0.5596910000000  0.4960080000000  0.5513650000000 1.0
C      1  0.5293690000000  0.4977520000000  0.4455320000000 1.0
C      1  0.4084170000000  0.5293140000000  0.5561660000000 1.0
C      1  0.5675810000000  0.4917800000000  0.6066590000000 1.0
C      1  0.5369220000000  0.4250350000000  0.4399210000000 1.0
C      1  0.5862240000000  0.4754890000000  0.5932080000000 1.0
C      1  0.4595470000000  0.6083030000000  0.4294900000000 1.0
C      1  0.4529970000000  0.4893010000000  0.5215390000000 1.0
C      1  0.4780750000000  0.4355010000000  0.4029450000000 1.0
C      1  0.4160430000000  0.5457500000000  0.4384620000000 1.0
C      1  0.4334560000000  0.4892370000000  0.5419680000000 1.0
C      1  0.4773800000000  0.3973420000000  0.5667720000000 1.0
C      1  0.5096370000000  0.6144360000000  0.4277380000000 1.0
C      1  0.5138180000000  0.4929440000000  0.3762840000000 1.0
C      1  0.6170610000000  0.4788690000000  0.5132870000000 1.0
C      1  0.4880270000000  0.5383270000000  0.5539440000000 1.0
C      1  0.5316840000000  0.4071870000000  0.5727830000000 1.0
C      1  0.5128630000000  0.5320640000000  0.4058230000000 1.0
C      1  0.5903480000000  0.4999620000000  0.4179080000000 1.0
C      1  0.4389700000000  0.5906870000000  0.4216090000000 1.0
C      1  0.4543830000000  0.5996660000000  0.5032550000000 1.0
C      1  0.3962030000000  0.4400060000000  0.4616970000000 1.0
C      1  0.5748940000000  0.4341770000000  0.5587520000000 1.0
C      1  0.4355350000000  0.4179660000000  0.5399420000000 1.0
C      1  0.5157380000000  0.5197450000000  0.5264310000000 1.0
C      1  0.5825390000000  0.4202420000000  0.4916130000000 1.0
C      1  0.4019660000000  0.5057150000000  0.4962060000000 1.0
C      1  0.3915910000000  0.4640740000000  0.4727790000000 1.0
C      1  0.4279800000000  0.5353250000000  0.5763690000000 1.0
C      1  0.4520050000000  0.4533480000000  0.4446730000000 1.0
C      1  0.5988790000000  0.4718170000000  0.5353550000000 1.0
C      1  0.5206480000000  0.5213890000000  0.4577040000000 1.0
C      1  0.5416610000000  0.5253190000000  0.4125160000000 1.0
C      1  0.4326630000000  0.4637770000000  0.5539140000000 1.0
C      1  0.5021590000000  0.4116820000000  0.5054150000000 1.0
C      1  0.4974660000000  0.5128490000000  0.5665890000000 1.0
C      1  0.5106240000000  0.4877870000000  0.5550540000000 1.0
C      1  0.4722400000000  0.4685000000000  0.4843910000000 1.0
C      1  0.4851470000000  0.6097160000000  0.4171670000000 1.0
C      1  0.4629510000000  0.5023030000000  0.6249480000000 1.0
C      1  0.4694330000000  0.4160000000000  0.4221270000000 1.0
C      1  0.4830420000000  0.3933290000000  0.4333420000000 1.0
C      1  0.4257790000000  0.5625510000000  0.5184520000000 1.0
C      1  0.4602200000000  0.4613660000000  0.5976300000000 1.0
C      1  0.5979490000000  0.5243880000000  0.4588680000000 1.0
C      1  0.4218970000000  0.5185500000000  0.4784050000000 1.0
C      1  0.4483170000000  0.5452980000000  0.5239300000000 1.0
C      1  0.5876720000000  0.5247000000000  0.4321580000000 1.0
C      1  0.5216240000000  0.6157870000000  0.4535030000000 1.0
C      1  0.4218370000000  0.4436930000000  0.5383200000000 1.0
C      1  0.4019760000000  0.4528620000000  0.5181710000000 1.0
C      1  0.5437350000000  0.5534910000000  0.5298560000000 1.0
C      1  0.5072370000000  0.6289050000000  0.5347630000000 1.0
C      1  0.4889990000000  0.4586520000000  0.6002540000000 1.0
C      1  0.4767580000000  0.4738970000000  0.5278190000000 1.0
C      1  0.5460430000000  0.5063630000000  0.5951960000000 1.0
C      1  0.4947970000000  0.3743950000000  0.4165400000000 1.0
C      1  0.5137120000000  0.6523090000000  0.5253060000000 1.0
C      1  0.4090970000000  0.5195410000000  0.4281780000000 1.0
C      1  0.5145120000000  0.5721720000000  0.5793370000000 1.0
C      1  0.6019220000000  0.4920660000000  0.5760700000000 1.0
C      1  0.4261080000000  0.3822850000000  0.4391270000000 1.0
C      1  0.5656140000000  0.4018340000000  0.5047410000000 1.0
C      1  0.4778990000000  0.4831710000000  0.4056680000000 1.0
C      1  0.4259600000000  0.5861720000000  0.5346770000000 1.0
C      1  0.5476380000000  0.5172040000000  0.5674050000000 1.0
C      1  0.4957670000000  0.4404670000000  0.5545430000000 1.0
C      1  0.4659160000000  0.5759060000000  0.5712460000000 1.0
C      1  0.5955990000000  0.5081050000000  0.4819280000000 1.0
C      1  0.4595790000000  0.6209160000000  0.4550300000000 1.0
C      1  0.3986350000000  0.4757970000000  0.4981940000000 1.0
C      1  0.5769550000000  0.4859890000000  0.4795730000000 1.0
C      1  0.4792930000000  0.6218930000000  0.4737140000000 1.0
C      1  0.5780740000000  0.4347410000000  0.4670280000000 1.0
C      1  0.5140540000000  0.4704990000000  0.6115950000000 1.0
C      1  0.4146590000000  0.5626850000000  0.4918450000000 1.0
C      1  0.5066160000000  0.4567450000000  0.4566510000000 1.0
C      1  0.5502150000000  0.5765250000000  0.5452450000000 1.0
C      1  0.4092480000000  0.5011010000000  0.5511320000000 1.0
C      1  0.5201730000000  0.4314330000000  0.4622190000000 1.0
C      1  0.5270740000000  0.5705670000000  0.6040130000000 1.0
C      1  0.4489000000000  0.4881750000000  0.6041370000000 1.0
C      1  0.5494040000000  0.4892930000000  0.4900900000000 1.0
C      1  0.5249260000000  0.5879320000000  0.5571880000000 1.0
C      1  0.4114250000000  0.4169590000000  0.4688700000000 1.0
C      1  0.4496160000000  0.4365310000000  0.5851800000000 1.0
C      1  0.4774960000000  0.4585780000000  0.4588650000000 1.0
C      1  0.4379580000000  0.4599480000000  0.3834290000000 1.0
C      1  0.4554320000000  0.5579620000000  0.4657550000000 1.0
C      1  0.5016890000000  0.5171980000000  0.4781200000000 1.0
C      1  0.5194400000000  0.4297990000000  0.4911870000000 1.0
C      1  0.5280910000000  0.5486060000000  0.4543520000000 1.0
C      1  0.6210170000000  0.4529190000000  0.5012700000000 1.0
C      1  0.4097170000000  0.4102210000000  0.4967720000000 1.0
C      1  0.5013650000000  0.6042710000000  0.5471580000000 1.0
C      1  0.4613680000000  0.5753070000000  0.4894380000000 1.0
C      1  0.5993300000000  0.5208960000000  0.5320740000000 1.0
C      1  0.5679380000000  0.4823450000000  0.4176410000000 1.0
C      1  0.4422400000000  0.5604210000000  0.5776470000000 1.0
C      1  0.4478490000000  0.4259510000000  0.4381410000000 1.0
C      1  0.6095760000000  0.5069450000000  0.5070770000000 1.0
C      1  0.5900940000000  0.4440260000000  0.5358500000000 1.0
C      1  0.6423530000000  0.6356110000000  0.4846010000000 1.0
C      1  0.5065650000000  0.3576870000000  0.4003710000000 1.0
END
