TITL C-627113-6568-2064 193743.393232634 125000 -1075.49091159586 0 0 176 (C1) n - 1
REM
REM in /home/nfs/bkarasulu/CARBON/AIRSS/Generating-Clusters/LCBOP/Only-C1/SD-CG/FIRE-CG
REM
REM
REM
REM
REM
REM ./C.cell (11c1c37f851c82e70ff6c80c92926a4b)
REM AIRSS Version 0.9.1 bugfix July 2018 build 013d7b7c2542+ Fri, 06 Jul 2018 19:26:36 +0100
REM compiler GCC version 9.2.1 20190827 (Red Hat 9.2.1-1)
REM options -cpp -mtune=generic -march=x86-64 -g -O0 -fpre-include=/usr/include/finclude/math-vector-fortran.h
REM seed 2094836090 -2020512130 -767386929 -1552765454 -857105528 35733328 -1391448685 1280767150 -913244961 -1327987905 -1405415845 -1247464000 326304054 -1286635440 -1177369836 1813620727 -1525839962 1565740603 551029035 1239229124 457021663 -1693413181 503119097 1060802483 1880142585 1030661268 1399624499 721426389 -104262797 296877607 1575767250 -1453389552 -1146742724
REM
CELL 1.54180   50.00000   50.00000   50.00000   90.00000   90.00000   90.00000
LATT -1
SFAC C  
C      1  0.4055020000000  0.5299740000000  0.5647340000000 1.0
C      1  0.4319880000000  0.5689840000000  0.4335220000000 1.0
C      1  0.4882300000000  0.6120930000000  0.4481320000000 1.0
C      1  0.5515390000000  0.6236400000000  0.5146910000000 1.0
C      1  0.4635000000000  0.4501340000000  0.5993070000000 1.0
C      1  0.3951300000000  0.5394320000000  0.5125770000000 1.0
C      1  0.4486580000000  0.5389220000000  0.5430710000000 1.0
C      1  0.5496790000000  0.4544240000000  0.5948020000000 1.0
C      1  0.5527880000000  0.5698820000000  0.5343050000000 1.0
C      1  0.5598950000000  0.3968160000000  0.4554540000000 1.0
C      1  0.4343550000000  0.4519070000000  0.5931310000000 1.0
C      1  0.5279330000000  0.4315200000000  0.4958590000000 1.0
C      1  0.5030320000000  0.3887720000000  0.5062240000000 1.0
C      1  0.5242420000000  0.4844680000000  0.4849260000000 1.0
C      1  0.5715400000000  0.5776980000000  0.5132610000000 1.0
C      1  0.5137130000000  0.5383460000000  0.4704160000000 1.0
C      1  0.5600690000000  0.4703750000000  0.5249130000000 1.0
C      1  0.4771790000000  0.4417270000000  0.3886430000000 1.0
C      1  0.4362830000000  0.4497380000000  0.4487380000000 1.0
C      1  0.4599820000000  0.4759800000000  0.5044360000000 1.0
C      1  0.5148470000000  0.4711590000000  0.4627080000000 1.0
C      1  0.4527620000000  0.3929590000000  0.5019190000000 1.0
C      1  0.5891120000000  0.5571110000000  0.5015930000000 1.0
C      1  0.5245250000000  0.6278300000000  0.5135380000000 1.0
C      1  0.4827350000000  0.3932610000000  0.4627020000000 1.0
C      1  0.5047770000000  0.5509540000000  0.5417520000000 1.0
C      1  0.5808490000000  0.4776230000000  0.5039620000000 1.0
C      1  0.4787350000000  0.3841730000000  0.4915020000000 1.0
C      1  0.5785370000000  0.5326880000000  0.4081270000000 1.0
C      1  0.5240580000000  0.4899050000000  0.5569430000000 1.0
C      1  0.4785150000000  0.4873270000000  0.5723480000000 1.0
C      1  0.5891120000000  0.5459640000000  0.4666510000000 1.0
C      1  0.5082100000000  0.4997330000000  0.6258790000000 1.0
C      1  0.5769890000000  0.4153910000000  0.5447720000000 1.0
C      1  0.6354220000000  0.3943600000000  0.5052220000000 1.0
C      1  0.5784640000000  0.3818840000000  0.4416310000000 1.0
C      1  0.4740770000000  0.4962560000000  0.4686680000000 1.0
C      1  0.5305380000000  0.4953730000000  0.4016010000000 1.0
C      1  0.4842530000000  0.5690680000000  0.5019300000000 1.0
C      1  0.4597650000000  0.5144310000000  0.6120500000000 1.0
C      1  0.4575790000000  0.4930290000000  0.3925350000000 1.0
C      1  0.4585530000000  0.4767480000000  0.5544380000000 1.0
C      1  0.4134010000000  0.5569440000000  0.5675640000000 1.0
C      1  0.5509030000000  0.5409370000000  0.4024740000000 1.0
C      1  0.5664460000000  0.5310950000000  0.5718860000000 1.0
C      1  0.5723100000000  0.4577420000000  0.4816600000000 1.0
C      1  0.5935300000000  0.4967750000000  0.5500570000000 1.0
C      1  0.5141260000000  0.5143950000000  0.4160860000000 1.0
C      1  0.4795980000000  0.5326000000000  0.4401690000000 1.0
C      1  0.4692430000000  0.5888060000000  0.5414060000000 1.0
C      1  0.4776520000000  0.4051190000000  0.5421650000000 1.0
C      1  0.4993780000000  0.4607730000000  0.3900520000000 1.0
C      1  0.4670980000000  0.5216840000000  0.5310130000000 1.0
C      1  0.4519810000000  0.4049180000000  0.5292090000000 1.0
C      1  0.4830580000000  0.4605840000000  0.5157790000000 1.0
C      1  0.4808950000000  0.4946480000000  0.6182230000000 1.0
C      1  0.4417260000000  0.5835550000000  0.5322720000000 1.0
C      1  0.5828260000000  0.4849170000000  0.5744850000000 1.0
C      1  0.4694280000000  0.5196830000000  0.3831340000000 1.0
C      1  0.5289490000000  0.5765560000000  0.4883690000000 1.0
C      1  0.5861570000000  0.5274220000000  0.5486610000000 1.0
C      1  0.4475690000000  0.5698710000000  0.4069850000000 1.0
C      1  0.5289700000000  0.4397250000000  0.5827270000000 1.0
C      1  0.5713600000000  0.5075870000000  0.5884850000000 1.0
C      1  0.6155910000000  0.5140400000000  0.5140430000000 1.0
C      1  0.4257740000000  0.5416920000000  0.4410200000000 1.0
C      1  0.4384830000000  0.5274320000000  0.4191790000000 1.0
C      1  0.5737450000000  0.4583040000000  0.5792320000000 1.0
C      1  0.4963250000000  0.5868710000000  0.4576060000000 1.0
C      1  0.5023840000000  0.3932950000000  0.5335190000000 1.0
C      1  0.4388480000000  0.4560090000000  0.4994340000000 1.0
C      1  0.3997230000000  0.4822500000000  0.5107500000000 1.0
C      1  0.5267540000000  0.4615520000000  0.4381290000000 1.0
C      1  0.5424100000000  0.5436060000000  0.4296050000000 1.0
C      1  0.4440340000000  0.5761570000000  0.4803720000000 1.0
C      1  0.5903100000000  0.4019420000000  0.4955870000000 1.0
C      1  0.5384110000000  0.6078220000000  0.4519880000000 1.0
C      1  0.5259420000000  0.5353480000000  0.3798330000000 1.0
C      1  0.5105960000000  0.4868220000000  0.3809500000000 1.0
C      1  0.5563600000000  0.4874580000000  0.4118460000000 1.0
C      1  0.4431220000000  0.5876580000000  0.4532170000000 1.0
C      1  0.4989830000000  0.5157380000000  0.3746870000000 1.0
C      1  0.5638250000000  0.6023640000000  0.4999540000000 1.0
C      1  0.5605680000000  0.5207400000000  0.5082650000000 1.0
C      1  0.5298390000000  0.3990060000000  0.4168750000000 1.0
C      1  0.6237400000000  0.4034040000000  0.5286720000000 1.0
C      1  0.4384690000000  0.3995620000000  0.4771550000000 1.0
C      1  0.4235840000000  0.4436670000000  0.5218930000000 1.0
C      1  0.5248010000000  0.4790480000000  0.6365580000000 1.0
C      1  0.4704940000000  0.4284210000000  0.5839530000000 1.0
C      1  0.5199040000000  0.5426270000000  0.5954990000000 1.0
C      1  0.4514980000000  0.4274990000000  0.4358260000000 1.0
C      1  0.5040820000000  0.6148040000000  0.5011400000000 1.0
C      1  0.5691910000000  0.5774720000000  0.4313680000000 1.0
C      1  0.5012440000000  0.5878820000000  0.4870630000000 1.0
C      1  0.4839180000000  0.4300710000000  0.5583760000000 1.0
C      1  0.5242710000000  0.4049820000000  0.5478320000000 1.0
C      1  0.5793950000000  0.5044470000000  0.4088840000000 1.0
C      1  0.6161050000000  0.3928800000000  0.4854000000000 1.0
C      1  0.5539160000000  0.4685820000000  0.4330890000000 1.0
C      1  0.4116700000000  0.4974570000000  0.5319100000000 1.0
C      1  0.4654070000000  0.5532230000000  0.4843730000000 1.0
C      1  0.4603720000000  0.5142160000000  0.4328120000000 1.0
C      1  0.4322120000000  0.4907730000000  0.5526690000000 1.0
C      1  0.4880690000000  0.5817240000000  0.5873010000000 1.0
C      1  0.4288260000000  0.5242100000000  0.4646080000000 1.0
C      1  0.4934680000000  0.5555460000000  0.5962470000000 1.0
C      1  0.4473720000000  0.5276700000000  0.4873140000000 1.0
C      1  0.6035610000000  0.4884600000000  0.5232970000000 1.0
C      1  0.5190560000000  0.5031460000000  0.5033960000000 1.0
C      1  0.4873870000000  0.4755600000000  0.4582770000000 1.0
C      1  0.4940960000000  0.5859280000000  0.4057510000000 1.0
C      1  0.4860040000000  0.5411940000000  0.4656410000000 1.0
C      1  0.5557690000000  0.4346740000000  0.4878680000000 1.0
C      1  0.5226490000000  0.4713840000000  0.6626930000000 1.0
C      1  0.4742210000000  0.4545570000000  0.5424830000000 1.0
C      1  0.4762460000000  0.5960190000000  0.5677600000000 1.0
C      1  0.4623690000000  0.6050700000000  0.4369190000000 1.0
C      1  0.5821300000000  0.4363250000000  0.5632540000000 1.0
C      1  0.4342620000000  0.5029190000000  0.6010770000000 1.0
C      1  0.4577150000000  0.5072750000000  0.5072340000000 1.0
C      1  0.5471640000000  0.5963690000000  0.4774270000000 1.0
C      1  0.4927640000000  0.5242700000000  0.5435120000000 1.0
C      1  0.5995600000000  0.5377450000000  0.5223510000000 1.0
C      1  0.5072790000000  0.4486860000000  0.5064290000000 1.0
C      1  0.4513670000000  0.5422330000000  0.3964990000000 1.0
C      1  0.4247830000000  0.4756530000000  0.6057890000000 1.0
C      1  0.4876890000000  0.5704880000000  0.5294870000000 1.0
C      1  0.3978040000000  0.4551890000000  0.5182720000000 1.0
C      1  0.5327330000000  0.5320140000000  0.4513030000000 1.0
C      1  0.4664920000000  0.5914440000000  0.4105780000000 1.0
C      1  0.4018560000000  0.5673380000000  0.5069600000000 1.0
C      1  0.3804180000000  0.5844440000000  0.5007140000000 1.0
C      1  0.5339000000000  0.5265570000000  0.5081360000000 1.0
C      1  0.4329790000000  0.4774370000000  0.4413640000000 1.0
C      1  0.5320550000000  0.5570790000000  0.5496710000000 1.0
C      1  0.4570480000000  0.4862280000000  0.4228030000000 1.0
C      1  0.4180560000000  0.4963550000000  0.4619860000000 1.0
C      1  0.5105920000000  0.5729500000000  0.4269460000000 1.0
C      1  0.4335220000000  0.4252090000000  0.5412700000000 1.0
C      1  0.4995070000000  0.5023310000000  0.5602700000000 1.0
C      1  0.5434150000000  0.4668580000000  0.6191790000000 1.0
C      1  0.4617800000000  0.4301270000000  0.4086760000000 1.0
C      1  0.5405970000000  0.5446940000000  0.5742490000000 1.0
C      1  0.5750310000000  0.5041570000000  0.4907780000000 1.0
C      1  0.5265840000000  0.5489350000000  0.4930340000000 1.0
C      1  0.4573910000000  0.4046350000000  0.4540230000000 1.0
C      1  0.5333230000000  0.3988170000000  0.4440370000000 1.0
C      1  0.5138890000000  0.4270540000000  0.5631810000000 1.0
C      1  0.5046840000000  0.4602630000000  0.4188380000000 1.0
C      1  0.5216370000000  0.5221010000000  0.6149540000000 1.0
C      1  0.4287830000000  0.5794290000000  0.5057560000000 1.0
C      1  0.5682440000000  0.4098430000000  0.4798450000000 1.0
C      1  0.4241030000000  0.5097150000000  0.5750530000000 1.0
C      1  0.5952450000000  0.4080800000000  0.5246450000000 1.0
C      1  0.5424390000000  0.5878000000000  0.4316510000000 1.0
C      1  0.5518680000000  0.4026170000000  0.5453890000000 1.0
C      1  0.4778780000000  0.4747470000000  0.5981640000000 1.0
C      1  0.4344510000000  0.5623740000000  0.5500320000000 1.0
C      1  0.5877980000000  0.5177570000000  0.4699220000000 1.0
C      1  0.4805960000000  0.4699490000000  0.4316410000000 1.0
C      1  0.5724930000000  0.4645270000000  0.4539620000000 1.0
C      1  0.5111310000000  0.4003500000000  0.4613570000000 1.0
C      1  0.4281940000000  0.4446850000000  0.4752790000000 1.0
C      1  0.4179070000000  0.4184990000000  0.4784330000000 1.0
C      1  0.3997540000000  0.5237550000000  0.5366450000000 1.0
C      1  0.5182620000000  0.4056240000000  0.4890140000000 1.0
C      1  0.5000390000000  0.5382300000000  0.4227160000000 1.0
C      1  0.3872640000000  0.5226200000000  0.4903950000000 1.0
C      1  0.5846950000000  0.5544550000000  0.4381870000000 1.0
C      1  0.3618040000000  0.5996210000000  0.4905950000000 1.0
C      1  0.4708770000000  0.5399670000000  0.6053780000000 1.0
C      1  0.5411230000000  0.4758920000000  0.5424500000000 1.0
C      1  0.4326260000000  0.4334420000000  0.5700720000000 1.0
C      1  0.5145010000000  0.6252060000000  0.4475000000000 1.0
C      1  0.3982750000000  0.4959790000000  0.4850410000000 1.0
END
