TITL C-627107-135-725 1303.49933272952 125000 -756.252199967833 0 0 123 (C1) n - 1
REM
REM in /home/nfs/bkarasulu/CARBON/AIRSS/Generating-Clusters/LCBOP/Only-C1/SD-CG/FIRE-CG
REM
REM
REM
REM
REM
REM ./C.cell (11c1c37f851c82e70ff6c80c92926a4b)
REM AIRSS Version 0.9.1 bugfix July 2018 build 013d7b7c2542+ Fri, 06 Jul 2018 19:26:36 +0100
REM compiler GCC version 9.2.1 20190827 (Red Hat 9.2.1-1)
REM options -cpp -mtune=generic -march=x86-64 -g -O0 -fpre-include=/usr/include/finclude/math-vector-fortran.h
REM seed 1863081073 684313183 -841529671 684874453 -1112208213 -715537813 -1608981149 -57444018 -509392124 567667943 1191035320 962354475 -494746513 -1348083517 697283612 -647938262 -1393926050 -1628833849 160172535 1817794432 692852658 138592295 1544825690 145530565 -851533448 384746807 702967905 -1720045822 -1700143294 -789332458 -1052731548 -396165301 2100915351
REM
CELL 1.54180   50.00000   50.00000   50.00000   90.00000   90.00000   90.00000
LATT -1
SFAC C  
C      1  0.4431910000000  0.5281450000000  0.4625540000000 1.0
C      1  0.4805590000000  0.5797140000000  0.4487750000000 1.0
C      1  0.4061620000000  0.3485960000000  0.3829750000000 1.0
C      1  0.5272960000000  0.4228740000000  0.5978560000000 1.0
C      1  0.6300610000000  0.4929220000000  0.4524770000000 1.0
C      1  0.5469430000000  0.5542510000000  0.4492560000000 1.0
C      1  0.5599340000000  0.5567710000000  0.5149500000000 1.0
C      1  0.4604060000000  0.4876200000000  0.4658140000000 1.0
C      1  0.5476660000000  0.4877810000000  0.5056450000000 1.0
C      1  0.5691940000000  0.4616050000000  0.4595520000000 1.0
C      1  0.4231760000000  0.5340540000000  0.5192740000000 1.0
C      1  0.5460040000000  0.5600350000000  0.5386310000000 1.0
C      1  0.5825530000000  0.4318600000000  0.5057850000000 1.0
C      1  0.5258050000000  0.5420300000000  0.5432190000000 1.0
C      1  0.4306250000000  0.4793260000000  0.5600270000000 1.0
C      1  0.4290280000000  0.3428920000000  0.3964250000000 1.0
C      1  0.5923960000000  0.5429520000000  0.4677510000000 1.0
C      1  0.5408910000000  0.6037790000000  0.4792690000000 1.0
C      1  0.5764450000000  0.5785410000000  0.5097190000000 1.0
C      1  0.5413110000000  0.4591620000000  0.5695610000000 1.0
C      1  0.4859460000000  0.5239340000000  0.5868330000000 1.0
C      1  0.4382980000000  0.3578560000000  0.4187350000000 1.0
C      1  0.4223920000000  0.3902660000000  0.4542910000000 1.0
C      1  0.5496930000000  0.5106060000000  0.4613890000000 1.0
C      1  0.4770450000000  0.5542180000000  0.4337760000000 1.0
C      1  0.4840890000000  0.4514000000000  0.5199470000000 1.0
C      1  0.4555920000000  0.5396310000000  0.4857470000000 1.0
C      1  0.3970790000000  0.3856800000000  0.4128340000000 1.0
C      1  0.4633440000000  0.5919530000000  0.4685780000000 1.0
C      1  0.4490940000000  0.4211060000000  0.4950200000000 1.0
C      1  0.6507940000000  0.4930690000000  0.4366910000000 1.0
C      1  0.5299250000000  0.5149990000000  0.5459390000000 1.0
C      1  0.5955740000000  0.5437990000000  0.5543200000000 1.0
C      1  0.6076200000000  0.4929290000000  0.4691810000000 1.0
C      1  0.5655150000000  0.4732370000000  0.5665020000000 1.0
C      1  0.4644480000000  0.3551960000000  0.4282410000000 1.0
C      1  0.4489580000000  0.4929300000000  0.5739850000000 1.0
C      1  0.5187530000000  0.5676220000000  0.4852170000000 1.0
C      1  0.4168000000000  0.6131060000000  0.4507800000000 1.0
C      1  0.5000060000000  0.5525590000000  0.5337870000000 1.0
C      1  0.4195760000000  0.3772370000000  0.4292230000000 1.0
C      1  0.5988040000000  0.4496180000000  0.4937570000000 1.0
C      1  0.5357590000000  0.5212230000000  0.5994610000000 1.0
C      1  0.3848590000000  0.4543640000000  0.4425660000000 1.0
C      1  0.5233400000000  0.5489470000000  0.4652110000000 1.0
C      1  0.4799370000000  0.5517770000000  0.5891410000000 1.0
C      1  0.5123430000000  0.4936890000000  0.5490030000000 1.0
C      1  0.4951940000000  0.5516320000000  0.4120590000000 1.0
C      1  0.4640190000000  0.5292640000000  0.4412680000000 1.0
C      1  0.5732770000000  0.4936060000000  0.5233590000000 1.0
C      1  0.5709420000000  0.5632960000000  0.4637190000000 1.0
C      1  0.5132520000000  0.4369730000000  0.6161230000000 1.0
C      1  0.4940950000000  0.3705950000000  0.4669300000000 1.0
C      1  0.5867670000000  0.5155970000000  0.5077770000000 1.0
C      1  0.5630950000000  0.5323770000000  0.5032370000000 1.0
C      1  0.3937480000000  0.4279300000000  0.4404530000000 1.0
C      1  0.4958290000000  0.5764600000000  0.5523840000000 1.0
C      1  0.4412530000000  0.5760600000000  0.5661180000000 1.0
C      1  0.5215940000000  0.5504350000000  0.4081770000000 1.0
C      1  0.5083700000000  0.4826460000000  0.5960440000000 1.0
C      1  0.4925040000000  0.6064710000000  0.5102840000000 1.0
C      1  0.5697630000000  0.5499980000000  0.4064110000000 1.0
C      1  0.4395410000000  0.6035360000000  0.4591640000000 1.0
C      1  0.5019580000000  0.4826760000000  0.4811630000000 1.0
C      1  0.4255710000000  0.4815870000000  0.5324860000000 1.0
C      1  0.5261310000000  0.5724170000000  0.5912300000000 1.0
C      1  0.4570230000000  0.4402940000000  0.5153650000000 1.0
C      1  0.5665960000000  0.5867950000000  0.4830240000000 1.0
C      1  0.5294910000000  0.4182370000000  0.5483920000000 1.0
C      1  0.5359700000000  0.4312380000000  0.5723670000000 1.0
C      1  0.5471430000000  0.5133960000000  0.4896430000000 1.0
C      1  0.5284300000000  0.6039090000000  0.4529740000000 1.0
C      1  0.5079100000000  0.5665290000000  0.5088630000000 1.0
C      1  0.4536650000000  0.5617540000000  0.5852760000000 1.0
C      1  0.5466320000000  0.5515710000000  0.4208740000000 1.0
C      1  0.5131310000000  0.4462840000000  0.5108910000000 1.0
C      1  0.5775570000000  0.5230340000000  0.5661460000000 1.0
C      1  0.5043030000000  0.5280340000000  0.4714750000000 1.0
C      1  0.4211190000000  0.4589050000000  0.4886720000000 1.0
C      1  0.5615790000000  0.5733190000000  0.5587050000000 1.0
C      1  0.4853200000000  0.3592410000000  0.4443270000000 1.0
C      1  0.5050890000000  0.5007810000000  0.4569870000000 1.0
C      1  0.5179000000000  0.4753650000000  0.5699600000000 1.0
C      1  0.5997500000000  0.5176550000000  0.4818070000000 1.0
C      1  0.4714290000000  0.5080630000000  0.5667530000000 1.0
C      1  0.5744120000000  0.4963800000000  0.5525450000000 1.0
C      1  0.4848030000000  0.5018500000000  0.5390500000000 1.0
C      1  0.4372560000000  0.3797260000000  0.4757250000000 1.0
C      1  0.5414720000000  0.4660150000000  0.4622690000000 1.0
C      1  0.5574360000000  0.5344020000000  0.5862280000000 1.0
C      1  0.4833580000000  0.3853700000000  0.4866690000000 1.0
C      1  0.5268370000000  0.4678370000000  0.4912980000000 1.0
C      1  0.3856530000000  0.4102620000000  0.4200530000000 1.0
C      1  0.5001720000000  0.5699500000000  0.5799790000000 1.0
C      1  0.4825220000000  0.5310690000000  0.4926750000000 1.0
C      1  0.5933050000000  0.4680980000000  0.4730810000000 1.0
C      1  0.5522690000000  0.5633650000000  0.5836700000000 1.0
C      1  0.4404100000000  0.5521850000000  0.5058430000000 1.0
C      1  0.4490170000000  0.5784940000000  0.5141980000000 1.0
C      1  0.5048030000000  0.4625750000000  0.6152410000000 1.0
C      1  0.5878190000000  0.5708820000000  0.5466940000000 1.0
C      1  0.4139940000000  0.4815010000000  0.4721740000000 1.0
C      1  0.3905430000000  0.3693690000000  0.3907680000000 1.0
C      1  0.4752380000000  0.4835900000000  0.4902750000000 1.0
C      1  0.5317430000000  0.4270370000000  0.5217440000000 1.0
C      1  0.5192300000000  0.6118990000000  0.4983500000000 1.0
C      1  0.5046250000000  0.5947780000000  0.4436050000000 1.0
C      1  0.4271530000000  0.4324450000000  0.4785640000000 1.0
C      1  0.4683490000000  0.5938320000000  0.4972800000000 1.0
C      1  0.5323590000000  0.4915200000000  0.4488430000000 1.0
C      1  0.4417380000000  0.5849860000000  0.5407740000000 1.0
C      1  0.4771180000000  0.5017980000000  0.4448480000000 1.0
C      1  0.5574120000000  0.4239770000000  0.5103650000000 1.0
C      1  0.4339640000000  0.4607890000000  0.5149290000000 1.0
C      1  0.4933670000000  0.6013750000000  0.5387830000000 1.0
C      1  0.4186830000000  0.5078820000000  0.5239080000000 1.0
C      1  0.5089960000000  0.5109750000000  0.5989150000000 1.0
C      1  0.4140250000000  0.4177270000000  0.4580390000000 1.0
C      1  0.4862590000000  0.5281410000000  0.5218880000000 1.0
C      1  0.3923500000000  0.4770010000000  0.4548690000000 1.0
C      1  0.4570460000000  0.3946390000000  0.4896580000000 1.0
C      1  0.4345470000000  0.5002240000000  0.4667920000000 1.0
C      1  0.4775420000000  0.4802420000000  0.5188440000000 1.0
END
