TITL C-627112-676-82 -8.92851038210987e-07 125000 -1243.86832635027 0 0 199 (C1) n - 1
REM
REM in /home/nfs/bkarasulu/CARBON/AIRSS/Generating-Clusters/LCBOP/Only-C1/SD-CG/FIRE-CG
REM
REM
REM
REM
REM
REM ./C.cell (11c1c37f851c82e70ff6c80c92926a4b)
REM AIRSS Version 0.9.1 bugfix July 2018 build 013d7b7c2542+ Fri, 06 Jul 2018 19:26:36 +0100
REM compiler GCC version 9.2.1 20190827 (Red Hat 9.2.1-1)
REM options -cpp -mtune=generic -march=x86-64 -g -O0 -fpre-include=/usr/include/finclude/math-vector-fortran.h
REM seed 1872326531 -1571209549 -1447070525 -85929122 -2088854973 1892995548 739316619 -503356643 860729785 29398848 896654715 -249361406 685372499 494233664 758102046 -740772764 977801931 -2137759776 -1465964126 -1666887834 1775468914 -664701551 -2126017680 -1829773021 1060186853 -1868797000 -619346298 850569388 -1321235242 646026833 1195469906 -621619848 -1061465555
REM
CELL 1.54180   50.00000   50.00000   50.00000   90.00000   90.00000   90.00000
LATT -1
SFAC C  
C      1  0.5747840000000  0.4814490000000  0.4063640000000 1.0
C      1  0.5432410000000  0.5059130000000  0.5658320000000 1.0
C      1  0.5300000000000  0.4835920000000  0.4990270000000 1.0
C      1  0.5650410000000  0.4489590000000  0.5394860000000 1.0
C      1  0.4303170000000  0.4496590000000  0.5768590000000 1.0
C      1  0.5005510000000  0.5802730000000  0.6123380000000 1.0
C      1  0.4408640000000  0.5353080000000  0.5256930000000 1.0
C      1  0.5430460000000  0.5091540000000  0.6105110000000 1.0
C      1  0.5779860000000  0.4453470000000  0.5148300000000 1.0
C      1  0.4942290000000  0.5067040000000  0.4022480000000 1.0
C      1  0.5316610000000  0.4303210000000  0.4237050000000 1.0
C      1  0.5687170000000  0.5871620000000  0.4164030000000 1.0
C      1  0.4354860000000  0.4152060000000  0.5327680000000 1.0
C      1  0.6240490000000  0.5109430000000  0.5280350000000 1.0
C      1  0.4477660000000  0.4581420000000  0.4847020000000 1.0
C      1  0.5100050000000  0.4861250000000  0.4111310000000 1.0
C      1  0.4602050000000  0.3815720000000  0.5558960000000 1.0
C      1  0.4775240000000  0.5325770000000  0.4893950000000 1.0
C      1  0.5996980000000  0.4010480000000  0.4828480000000 1.0
C      1  0.4568080000000  0.4919650000000  0.4466830000000 1.0
C      1  0.3845330000000  0.5586950000000  0.5032180000000 1.0
C      1  0.5867540000000  0.5734350000000  0.4807140000000 1.0
C      1  0.6314700000000  0.5255310000000  0.4541920000000 1.0
C      1  0.5125200000000  0.4781650000000  0.4378840000000 1.0
C      1  0.5072930000000  0.5363000000000  0.4852480000000 1.0
C      1  0.4686190000000  0.4155570000000  0.5875430000000 1.0
C      1  0.5181100000000  0.4646220000000  0.6022460000000 1.0
C      1  0.4692010000000  0.5485110000000  0.3982860000000 1.0
C      1  0.5383390000000  0.4228420000000  0.5814260000000 1.0
C      1  0.4479100000000  0.4329830000000  0.5891160000000 1.0
C      1  0.5161350000000  0.4176790000000  0.4823820000000 1.0
C      1  0.5163680000000  0.3340470000000  0.5835670000000 1.0
C      1  0.6141050000000  0.5362100000000  0.5676890000000 1.0
C      1  0.4894800000000  0.4393480000000  0.3961310000000 1.0
C      1  0.5212810000000  0.4519870000000  0.4441570000000 1.0
C      1  0.5128270000000  0.5942820000000  0.5629440000000 1.0
C      1  0.4045810000000  0.5312880000000  0.5599780000000 1.0
C      1  0.4443090000000  0.6152260000000  0.4627510000000 1.0
C      1  0.6040430000000  0.4714740000000  0.5573600000000 1.0
C      1  0.4159540000000  0.4364630000000  0.5323810000000 1.0
C      1  0.5554870000000  0.4026790000000  0.4632180000000 1.0
C      1  0.5122570000000  0.4059170000000  0.4236990000000 1.0
C      1  0.3787510000000  0.4778240000000  0.4447330000000 1.0
C      1  0.4459840000000  0.5780100000000  0.6069000000000 1.0
C      1  0.5749170000000  0.5318240000000  0.5408300000000 1.0
C      1  0.4460720000000  0.4333330000000  0.4716060000000 1.0
C      1  0.4690680000000  0.5029560000000  0.5734720000000 1.0
C      1  0.4358260000000  0.3887600000000  0.5430580000000 1.0
C      1  0.5284250000000  0.5710890000000  0.5667410000000 1.0
C      1  0.4397100000000  0.5426110000000  0.4048490000000 1.0
C      1  0.5147650000000  0.5467000000000  0.5691390000000 1.0
C      1  0.6151770000000  0.4128250000000  0.4622660000000 1.0
C      1  0.5907520000000  0.5732960000000  0.4529560000000 1.0
C      1  0.4641330000000  0.4083770000000  0.4284370000000 1.0
C      1  0.5475970000000  0.5253720000000  0.4422020000000 1.0
C      1  0.4408000000000  0.5582850000000  0.4740850000000 1.0
C      1  0.4800070000000  0.3947510000000  0.5717260000000 1.0
C      1  0.5282930000000  0.3970890000000  0.4677920000000 1.0
C      1  0.4755460000000  0.4146100000000  0.5048840000000 1.0
C      1  0.4473280000000  0.4714260000000  0.5365070000000 1.0
C      1  0.3993150000000  0.5273580000000  0.4280260000000 1.0
C      1  0.3937180000000  0.5592220000000  0.4753360000000 1.0
C      1  0.4720340000000  0.5784280000000  0.6213090000000 1.0
C      1  0.4853220000000  0.4918550000000  0.5518300000000 1.0
C      1  0.6279880000000  0.4375920000000  0.4656030000000 1.0
C      1  0.4697130000000  0.6092250000000  0.4749180000000 1.0
C      1  0.5187600000000  0.5284230000000  0.4566770000000 1.0
C      1  0.5103400000000  0.4991050000000  0.4559960000000 1.0
C      1  0.6068310000000  0.4074850000000  0.4356550000000 1.0
C      1  0.4680900000000  0.5619320000000  0.4849340000000 1.0
C      1  0.4223070000000  0.5809080000000  0.5226980000000 1.0
C      1  0.4055580000000  0.4450050000000  0.5073920000000 1.0
C      1  0.4147670000000  0.3716400000000  0.5407930000000 1.0
C      1  0.4403590000000  0.4463520000000  0.4070140000000 1.0
C      1  0.4073030000000  0.5489470000000  0.6200530000000 1.0
C      1  0.4553690000000  0.4905750000000  0.5153130000000 1.0
C      1  0.4071680000000  0.4885860000000  0.4842250000000 1.0
C      1  0.5133750000000  0.3872110000000  0.4458860000000 1.0
C      1  0.4876100000000  0.4627510000000  0.5591390000000 1.0
C      1  0.4925580000000  0.4647590000000  0.5878440000000 1.0
C      1  0.4211470000000  0.5195740000000  0.4075050000000 1.0
C      1  0.4869450000000  0.4143720000000  0.4124590000000 1.0
C      1  0.5582530000000  0.4167930000000  0.4369060000000 1.0
C      1  0.4972930000000  0.5001900000000  0.5276760000000 1.0
C      1  0.4575380000000  0.5186280000000  0.5088570000000 1.0
C      1  0.5476190000000  0.3945710000000  0.5390510000000 1.0
C      1  0.3793060000000  0.4354560000000  0.4649550000000 1.0
C      1  0.4890440000000  0.5722390000000  0.4400750000000 1.0
C      1  0.3992830000000  0.4626270000000  0.4297530000000 1.0
C      1  0.3972770000000  0.5679890000000  0.5280490000000 1.0
C      1  0.6205040000000  0.4875020000000  0.5435640000000 1.0
C      1  0.5235230000000  0.5598260000000  0.6160290000000 1.0
C      1  0.4418500000000  0.4250200000000  0.4254100000000 1.0
C      1  0.5824430000000  0.5983230000000  0.4396250000000 1.0
C      1  0.5035250000000  0.4174450000000  0.5068530000000 1.0
C      1  0.5617090000000  0.5668250000000  0.4911350000000 1.0
C      1  0.3895380000000  0.4946150000000  0.4648010000000 1.0
C      1  0.6080280000000  0.4781720000000  0.4412880000000 1.0
C      1  0.5841220000000  0.4894060000000  0.4316760000000 1.0
C      1  0.4739040000000  0.6195400000000  0.5022340000000 1.0
C      1  0.5676440000000  0.4520050000000  0.4909370000000 1.0
C      1  0.6168720000000  0.5368370000000  0.4348680000000 1.0
C      1  0.5178610000000  0.5481190000000  0.5123990000000 1.0
C      1  0.3617610000000  0.4568530000000  0.4560750000000 1.0
C      1  0.5557110000000  0.4945950000000  0.5882390000000 1.0
C      1  0.5010430000000  0.5451990000000  0.4378540000000 1.0
C      1  0.4706780000000  0.4738910000000  0.4956480000000 1.0
C      1  0.5040900000000  0.5997390000000  0.5901370000000 1.0
C      1  0.4308990000000  0.5257420000000  0.5505570000000 1.0
C      1  0.3902630000000  0.5416080000000  0.4509750000000 1.0
C      1  0.5615180000000  0.5574210000000  0.5377030000000 1.0
C      1  0.4234710000000  0.5973600000000  0.4552700000000 1.0
C      1  0.4250520000000  0.5852470000000  0.4293580000000 1.0
C      1  0.4712230000000  0.5319600000000  0.3722890000000 1.0
C      1  0.4173970000000  0.5711900000000  0.6054850000000 1.0
C      1  0.5076680000000  0.3859530000000  0.5704560000000 1.0
C      1  0.4517430000000  0.5247880000000  0.5695790000000 1.0
C      1  0.5532200000000  0.4750080000000  0.4841530000000 1.0
C      1  0.6042760000000  0.5920070000000  0.4940170000000 1.0
C      1  0.4774030000000  0.4892970000000  0.5975180000000 1.0
C      1  0.4644330000000  0.4560610000000  0.3929680000000 1.0
C      1  0.5286580000000  0.4730590000000  0.3939210000000 1.0
C      1  0.4618330000000  0.4256310000000  0.5271820000000 1.0
C      1  0.4199750000000  0.4674670000000  0.4108310000000 1.0
C      1  0.5316430000000  0.4011470000000  0.5634150000000 1.0
C      1  0.5944390000000  0.5529870000000  0.4332280000000 1.0
C      1  0.4765860000000  0.5757610000000  0.4125940000000 1.0
C      1  0.5251870000000  0.5245120000000  0.5565130000000 1.0
C      1  0.5831230000000  0.4135020000000  0.4242830000000 1.0
C      1  0.4932540000000  0.5005960000000  0.6185850000000 1.0
C      1  0.4248740000000  0.4580470000000  0.5499780000000 1.0
C      1  0.4019220000000  0.4382310000000  0.4466650000000 1.0
C      1  0.5702990000000  0.4969670000000  0.4764120000000 1.0
C      1  0.5685330000000  0.5130800000000  0.5205400000000 1.0
C      1  0.5371560000000  0.4448090000000  0.5380250000000 1.0
C      1  0.4029850000000  0.5750640000000  0.5797340000000 1.0
C      1  0.6136290000000  0.5110730000000  0.5013010000000 1.0
C      1  0.4702530000000  0.5702760000000  0.5134960000000 1.0
C      1  0.5486870000000  0.5183260000000  0.3934420000000 1.0
C      1  0.4542420000000  0.5759560000000  0.5790240000000 1.0
C      1  0.5047780000000  0.5960250000000  0.5352280000000 1.0
C      1  0.5455790000000  0.5396460000000  0.6072710000000 1.0
C      1  0.5555060000000  0.5671700000000  0.5641780000000 1.0
C      1  0.6035280000000  0.6171090000000  0.4799700000000 1.0
C      1  0.5203350000000  0.4451930000000  0.3965170000000 1.0
C      1  0.4639400000000  0.5497740000000  0.5748450000000 1.0
C      1  0.4179440000000  0.5752860000000  0.4733900000000 1.0
C      1  0.3965500000000  0.5589580000000  0.5559710000000 1.0
C      1  0.5916250000000  0.6202810000000  0.4551910000000 1.0
C      1  0.6211680000000  0.5812860000000  0.5137370000000 1.0
C      1  0.4561600000000  0.6003500000000  0.5655000000000 1.0
C      1  0.4448800000000  0.5635290000000  0.5242020000000 1.0
C      1  0.4268320000000  0.6074860000000  0.5146030000000 1.0
C      1  0.4680380000000  0.3953560000000  0.4546410000000 1.0
C      1  0.4480250000000  0.5160750000000  0.4507800000000 1.0
C      1  0.6298800000000  0.5166640000000  0.4792790000000 1.0
C      1  0.5661210000000  0.5486520000000  0.5851390000000 1.0
C      1  0.5153870000000  0.4420180000000  0.4691100000000 1.0
C      1  0.4299280000000  0.4925870000000  0.3993300000000 1.0
C      1  0.4630440000000  0.4116070000000  0.4784280000000 1.0
C      1  0.3950970000000  0.5185650000000  0.5834480000000 1.0
C      1  0.5121860000000  0.3590370000000  0.5774740000000 1.0
C      1  0.5859370000000  0.5335910000000  0.5686270000000 1.0
C      1  0.4561680000000  0.4843610000000  0.3858710000000 1.0
C      1  0.5526790000000  0.5364980000000  0.4152740000000 1.0
C      1  0.5784210000000  0.4605930000000  0.5617790000000 1.0
C      1  0.4564520000000  0.6206730000000  0.5479940000000 1.0
C      1  0.5412240000000  0.5051550000000  0.5161730000000 1.0
C      1  0.4984560000000  0.6172930000000  0.5171910000000 1.0
C      1  0.6301010000000  0.5605980000000  0.5283820000000 1.0
C      1  0.4973390000000  0.5703890000000  0.5229670000000 1.0
C      1  0.4412050000000  0.5429610000000  0.4507820000000 1.0
C      1  0.5463350000000  0.5601090000000  0.5134000000000 1.0
C      1  0.4901910000000  0.5312550000000  0.4150590000000 1.0
C      1  0.4207760000000  0.4658610000000  0.4937040000000 1.0
C      1  0.5621920000000  0.4669780000000  0.5844680000000 1.0
C      1  0.5854180000000  0.5079100000000  0.4981270000000 1.0
C      1  0.4689750000000  0.4503100000000  0.5407600000000 1.0
C      1  0.5600190000000  0.3940020000000  0.5141720000000 1.0
C      1  0.4904810000000  0.5463550000000  0.5810200000000 1.0
C      1  0.5165320000000  0.4315770000000  0.5273340000000 1.0
C      1  0.3972610000000  0.5261560000000  0.6093430000000 1.0
C      1  0.4282170000000  0.4294490000000  0.4497330000000 1.0
C      1  0.4998630000000  0.4817530000000  0.5035480000000 1.0
C      1  0.5678360000000  0.5053140000000  0.4497390000000 1.0
C      1  0.5404130000000  0.4494250000000  0.5920090000000 1.0
C      1  0.5188370000000  0.5213420000000  0.5283940000000 1.0
C      1  0.5520090000000  0.4895980000000  0.3920050000000 1.0
C      1  0.4804610000000  0.5829110000000  0.4659390000000 1.0
C      1  0.3854960000000  0.4322160000000  0.4922000000000 1.0
C      1  0.6270990000000  0.5360190000000  0.5421010000000 1.0
C      1  0.5207600000000  0.4912460000000  0.6175710000000 1.0
C      1  0.5716400000000  0.5577190000000  0.4149560000000 1.0
C      1  0.4885480000000  0.3761220000000  0.4534370000000 1.0
C      1  0.4757530000000  0.5040190000000  0.3801800000000 1.0
C      1  0.4342770000000  0.5585870000000  0.4276230000000 1.0
C      1  0.4509270000000  0.6212130000000  0.5201320000000 1.0
C      1  0.6238280000000  0.4619070000000  0.4552490000000 1.0
C      1  0.5717900000000  0.3982420000000  0.4872570000000 1.0
END
