TITL C-627108-131-707 -3.23921812504718e-07 125000 -437.626553595591 0 0 74 (C1) n - 1
REM
REM in /home/nfs/bkarasulu/CARBON/AIRSS/Generating-Clusters/LCBOP/Only-C1/SD-CG/FIRE-CG
REM
REM
REM
REM
REM
REM ./C.cell (11c1c37f851c82e70ff6c80c92926a4b)
REM AIRSS Version 0.9.1 bugfix July 2018 build 013d7b7c2542+ Fri, 06 Jul 2018 19:26:36 +0100
REM compiler GCC version 9.2.1 20190827 (Red Hat 9.2.1-1)
REM options -cpp -mtune=generic -march=x86-64 -g -O0 -fpre-include=/usr/include/finclude/math-vector-fortran.h
REM seed -150042545 -1484582854 -780719849 851716377 896157726 -2048311252 779910253 1564407259 -990162932 -1923143680 1499182391 238743673 -2057517338 117666101 -1949534036 138533218 1122389451 -86686593 -834526367 -351157321 -1275119353 1972709070 -2073319310 -42243575 1218170288 -1539137654 -1950153183 1926175062 -357520506 -1202334225 142131237 1286756566 561535790
REM
CELL 1.54180   50.00000   50.00000   50.00000   90.00000   90.00000   90.00000
LATT -1
SFAC C  
C      1  0.4794500000000  0.5154870000000  0.5178460000000 1.0
C      1  0.4427710000000  0.4300200000000  0.5708380000000 1.0
C      1  0.4268280000000  0.4882600000000  0.4650530000000 1.0
C      1  0.4881710000000  0.5986010000000  0.4805330000000 1.0
C      1  0.5430590000000  0.4044710000000  0.4917910000000 1.0
C      1  0.4992660000000  0.4474690000000  0.5285700000000 1.0
C      1  0.5137160000000  0.5139780000000  0.5791720000000 1.0
C      1  0.4408010000000  0.5230250000000  0.5715970000000 1.0
C      1  0.5389310000000  0.4875990000000  0.4519380000000 1.0
C      1  0.4220890000000  0.4955810000000  0.5274240000000 1.0
C      1  0.4976660000000  0.4273980000000  0.4365120000000 1.0
C      1  0.5987940000000  0.4990530000000  0.5145990000000 1.0
C      1  0.4718070000000  0.5523760000000  0.4344360000000 1.0
C      1  0.4377170000000  0.4286770000000  0.5443980000000 1.0
C      1  0.4376300000000  0.4686150000000  0.4504090000000 1.0
C      1  0.5030070000000  0.4955850000000  0.5989220000000 1.0
C      1  0.4841030000000  0.4512430000000  0.4306320000000 1.0
C      1  0.4450750000000  0.4466630000000  0.5237150000000 1.0
C      1  0.4569740000000  0.4548540000000  0.4379870000000 1.0
C      1  0.4354280000000  0.5024120000000  0.5519230000000 1.0
C      1  0.4431080000000  0.5837630000000  0.5045300000000 1.0
C      1  0.4867760000000  0.4990840000000  0.4357170000000 1.0
C      1  0.5340690000000  0.5428150000000  0.5169430000000 1.0
C      1  0.5233870000000  0.5603920000000  0.4349400000000 1.0
C      1  0.4990260000000  0.4751930000000  0.4251200000000 1.0
C      1  0.5372270000000  0.5170630000000  0.4527370000000 1.0
C      1  0.5299840000000  0.5845230000000  0.4503930000000 1.0
C      1  0.4597240000000  0.4860840000000  0.5540920000000 1.0
C      1  0.5525010000000  0.4045570000000  0.5167890000000 1.0
C      1  0.5208530000000  0.4669830000000  0.5253520000000 1.0
C      1  0.5686070000000  0.5561780000000  0.4473320000000 1.0
C      1  0.5293150000000  0.5049920000000  0.5570340000000 1.0
C      1  0.4274030000000  0.4685440000000  0.5190360000000 1.0
C      1  0.5457730000000  0.5680300000000  0.5197170000000 1.0
C      1  0.5319520000000  0.4771750000000  0.5503050000000 1.0
C      1  0.5284840000000  0.4082660000000  0.4697690000000 1.0
C      1  0.4927470000000  0.5047970000000  0.4630600000000 1.0
C      1  0.4991250000000  0.4807030000000  0.4770110000000 1.0
C      1  0.4787600000000  0.4956080000000  0.5357210000000 1.0
C      1  0.5566120000000  0.5915440000000  0.5226690000000 1.0
C      1  0.4740900000000  0.4952400000000  0.5971840000000 1.0
C      1  0.4126430000000  0.5424070000000  0.5140770000000 1.0
C      1  0.4503730000000  0.5292090000000  0.4766600000000 1.0
C      1  0.5141230000000  0.5232090000000  0.4696540000000 1.0
C      1  0.5276850000000  0.4758210000000  0.4280510000000 1.0
C      1  0.4239940000000  0.5666650000000  0.5121970000000 1.0
C      1  0.5584960000000  0.5823660000000  0.4542970000000 1.0
C      1  0.4653220000000  0.5938030000000  0.4935410000000 1.0
C      1  0.5275120000000  0.4751640000000  0.4763800000000 1.0
C      1  0.4548230000000  0.5433500000000  0.4529610000000 1.0
C      1  0.5198200000000  0.5366320000000  0.4935340000000 1.0
C      1  0.6142050000000  0.5529510000000  0.4322890000000 1.0
C      1  0.5160100000000  0.3835930000000  0.4306660000000 1.0
C      1  0.5452930000000  0.5405930000000  0.4391440000000 1.0
C      1  0.5140410000000  0.4064550000000  0.4456690000000 1.0
C      1  0.6007140000000  0.5145990000000  0.4937590000000 1.0
C      1  0.5364240000000  0.4681370000000  0.5017690000000 1.0
C      1  0.5415470000000  0.4551090000000  0.5659080000000 1.0
C      1  0.4970550000000  0.5562550000000  0.4265710000000 1.0
C      1  0.5367130000000  0.5240210000000  0.5376340000000 1.0
C      1  0.4167640000000  0.5151940000000  0.5073250000000 1.0
C      1  0.4636170000000  0.4749170000000  0.5801680000000 1.0
C      1  0.5068820000000  0.4278690000000  0.5480040000000 1.0
C      1  0.4656300000000  0.5225290000000  0.5866390000000 1.0
C      1  0.5513760000000  0.4121910000000  0.5425260000000 1.0
C      1  0.4545570000000  0.4491150000000  0.5856680000000 1.0
C      1  0.6005570000000  0.5303730000000  0.4724680000000 1.0
C      1  0.4686470000000  0.5299390000000  0.4981760000000 1.0
C      1  0.4914990000000  0.5335840000000  0.5775430000000 1.0
C      1  0.5947630000000  0.5466270000000  0.4504390000000 1.0
C      1  0.4286280000000  0.5111350000000  0.4812580000000 1.0
C      1  0.5104440000000  0.5971950000000  0.4658030000000 1.0
C      1  0.5340100000000  0.4285830000000  0.5575260000000 1.0
C      1  0.4730290000000  0.4475070000000  0.5179530000000 1.0
END
