TITL C-627107-135-937 -3.48184809244994e-07 125000 -406.509404309093 0 0 67 (C1) n - 1
REM
REM in /home/nfs/bkarasulu/CARBON/AIRSS/Generating-Clusters/LCBOP/Only-C1/SD-CG/FIRE-CG
REM
REM
REM
REM
REM
REM ./C.cell (11c1c37f851c82e70ff6c80c92926a4b)
REM AIRSS Version 0.9.1 bugfix July 2018 build 013d7b7c2542+ Fri, 06 Jul 2018 19:26:36 +0100
REM compiler GCC version 9.2.1 20190827 (Red Hat 9.2.1-1)
REM options -cpp -mtune=generic -march=x86-64 -g -O0 -fpre-include=/usr/include/finclude/math-vector-fortran.h
REM seed 1143638600 1353765428 -478076123 1548917701 -1520112925 465090035 -345533796 -463361157 385969092 114720928 -1157488017 1657346075 1663860189 1956257458 -1350619511 881321923 -393480334 -872156859 -2093859289 835107528 1690527194 1483471610 2066041301 866447079 -227020465 132427485 -1917079035 -902670875 1629277514 266843326 218983178 -66178728 -323885505
REM
CELL 1.54180   50.00000   50.00000   50.00000   90.00000   90.00000   90.00000
LATT -1
SFAC C  
C      1  0.4798290000000  0.4707220000000  0.4528670000000 1.0
C      1  0.5595520000000  0.4509330000000  0.5896380000000 1.0
C      1  0.4690200000000  0.5425680000000  0.5137200000000 1.0
C      1  0.5583650000000  0.5162460000000  0.4738590000000 1.0
C      1  0.5251230000000  0.4403780000000  0.5008530000000 1.0
C      1  0.5266830000000  0.4859860000000  0.5945800000000 1.0
C      1  0.5588340000000  0.4460440000000  0.5631630000000 1.0
C      1  0.4203720000000  0.4839920000000  0.4990380000000 1.0
C      1  0.5310150000000  0.4592940000000  0.5222290000000 1.0
C      1  0.4407130000000  0.4736720000000  0.4257470000000 1.0
C      1  0.5421930000000  0.5638840000000  0.4674100000000 1.0
C      1  0.5184460000000  0.5683320000000  0.5371220000000 1.0
C      1  0.4690940000000  0.4801590000000  0.4265230000000 1.0
C      1  0.5033120000000  0.4232910000000  0.5062350000000 1.0
C      1  0.5000850000000  0.4863040000000  0.3348440000000 1.0
C      1  0.4876500000000  0.4971500000000  0.3847490000000 1.0
C      1  0.4808890000000  0.5024610000000  0.4115160000000 1.0
C      1  0.4760570000000  0.4408370000000  0.5650820000000 1.0
C      1  0.4905730000000  0.4588670000000  0.5782870000000 1.0
C      1  0.4671910000000  0.5492810000000  0.5423760000000 1.0
C      1  0.5085580000000  0.4649270000000  0.4585960000000 1.0
C      1  0.5758080000000  0.4684680000000  0.4918280000000 1.0
C      1  0.5228600000000  0.5176440000000  0.5408020000000 1.0
C      1  0.4606470000000  0.5125060000000  0.4691850000000 1.0
C      1  0.5598930000000  0.5132280000000  0.5020780000000 1.0
C      1  0.4801820000000  0.4243680000000  0.5198420000000 1.0
C      1  0.4866850000000  0.5221970000000  0.4649140000000 1.0
C      1  0.4461680000000  0.4578360000000  0.5324150000000 1.0
C      1  0.5178010000000  0.5708950000000  0.4796820000000 1.0
C      1  0.5302340000000  0.4502760000000  0.4741660000000 1.0
C      1  0.5617070000000  0.5373040000000  0.5442190000000 1.0
C      1  0.5447770000000  0.5247900000000  0.5236370000000 1.0
C      1  0.5558330000000  0.4660810000000  0.4716870000000 1.0
C      1  0.5449640000000  0.5612060000000  0.5495400000000 1.0
C      1  0.5714350000000  0.4863250000000  0.5386850000000 1.0
C      1  0.4554010000000  0.5536870000000  0.4916610000000 1.0
C      1  0.4026380000000  0.5066160000000  0.5037700000000 1.0
C      1  0.4427980000000  0.5331270000000  0.4764040000000 1.0
C      1  0.5056070000000  0.4947630000000  0.5486590000000 1.0
C      1  0.4240450000000  0.4695350000000  0.4475020000000 1.0
C      1  0.4560130000000  0.5225240000000  0.5520930000000 1.0
C      1  0.4913140000000  0.5431520000000  0.4462160000000 1.0
C      1  0.4809010000000  0.5154780000000  0.5150470000000 1.0
C      1  0.4938190000000  0.5671390000000  0.4633630000000 1.0
C      1  0.4692390000000  0.5735500000000  0.4766800000000 1.0
C      1  0.5073340000000  0.4812030000000  0.5747890000000 1.0
C      1  0.5536380000000  0.4627850000000  0.5411090000000 1.0
C      1  0.5472330000000  0.4707840000000  0.6030980000000 1.0
C      1  0.4324040000000  0.4749950000000  0.4746650000000 1.0
C      1  0.4867060000000  0.5294810000000  0.4211460000000 1.0
C      1  0.5489860000000  0.4925340000000  0.4607100000000 1.0
C      1  0.4781250000000  0.5057200000000  0.5434040000000 1.0
C      1  0.5005150000000  0.4985950000000  0.5025850000000 1.0
C      1  0.5066480000000  0.5073010000000  0.4765930000000 1.0
C      1  0.4598190000000  0.4838960000000  0.4712160000000 1.0
C      1  0.5572000000000  0.5421030000000  0.4633860000000 1.0
C      1  0.4322370000000  0.5089620000000  0.5406200000000 1.0
C      1  0.4346700000000  0.4822750000000  0.5253690000000 1.0
C      1  0.4655980000000  0.4388080000000  0.5391010000000 1.0
C      1  0.4921070000000  0.5630150000000  0.5494190000000 1.0
C      1  0.5105450000000  0.4791350000000  0.5225560000000 1.0
C      1  0.5178200000000  0.5740650000000  0.5084660000000 1.0
C      1  0.4939290000000  0.4916970000000  0.3595950000000 1.0
C      1  0.5208220000000  0.4915730000000  0.4584590000000 1.0
C      1  0.5749820000000  0.5122380000000  0.5539270000000 1.0
C      1  0.4092880000000  0.5206760000000  0.5268820000000 1.0
C      1  0.5750720000000  0.4901390000000  0.5103930000000 1.0
END
