TITL C-627110-360-1525 2.63318858261201e-05 125000 -632.906222953907 0 0 103 (C1) n - 1
REM
REM in /home/nfs/bkarasulu/CARBON/AIRSS/Generating-Clusters/LCBOP/Only-C1/SD-CG/FIRE-CG
REM
REM
REM
REM
REM
REM ./C.cell (11c1c37f851c82e70ff6c80c92926a4b)
REM AIRSS Version 0.9.1 bugfix July 2018 build 013d7b7c2542+ Fri, 06 Jul 2018 19:26:36 +0100
REM compiler GCC version 9.2.1 20190827 (Red Hat 9.2.1-1)
REM options -cpp -mtune=generic -march=x86-64 -g -O0 -fpre-include=/usr/include/finclude/math-vector-fortran.h
REM seed -1905215407 237169477 550851032 -1895846060 898583758 1726334407 1960617456 1356972669 1041481946 -1317519399 -464253898 1352006753 645803437 424386465 515993372 -140156144 1779165530 1077739073 1914420761 2032183830 -1823054790 1380223941 -1732430392 -1178001919 272053230 1192538446 1893151008 -191553881 2011408698 -647377103 128754898 -467797656 -662806882
REM
CELL 1.54180   50.00000   50.00000   50.00000   90.00000   90.00000   90.00000
LATT -1
SFAC C  
C      1  0.5144510000000  0.4677840000000  0.4224900000000 1.0
C      1  0.5510690000000  0.5470270000000  0.5614850000000 1.0
C      1  0.5530240000000  0.5053130000000  0.5315130000000 1.0
C      1  0.4228110000000  0.5459200000000  0.5407000000000 1.0
C      1  0.4630140000000  0.5590550000000  0.5144240000000 1.0
C      1  0.4587140000000  0.4077150000000  0.5459720000000 1.0
C      1  0.5632890000000  0.4988140000000  0.4828150000000 1.0
C      1  0.4442590000000  0.5160060000000  0.5878550000000 1.0
C      1  0.5134920000000  0.5858140000000  0.4957490000000 1.0
C      1  0.5158880000000  0.4852810000000  0.4698650000000 1.0
C      1  0.5063180000000  0.5466390000000  0.5889690000000 1.0
C      1  0.4058070000000  0.5158830000000  0.4608270000000 1.0
C      1  0.4849520000000  0.3897610000000  0.4777650000000 1.0
C      1  0.4169390000000  0.5274980000000  0.5216330000000 1.0
C      1  0.4008820000000  0.4982500000000  0.5761040000000 1.0
C      1  0.4810750000000  0.4432890000000  0.5708560000000 1.0
C      1  0.4596290000000  0.4874330000000  0.5358480000000 1.0
C      1  0.5505280000000  0.5691150000000  0.5427570000000 1.0
C      1  0.5400240000000  0.4784020000000  0.4144670000000 1.0
C      1  0.5607180000000  0.5306960000000  0.4256530000000 1.0
C      1  0.4913210000000  0.4535060000000  0.4318870000000 1.0
C      1  0.5273950000000  0.6315610000000  0.4729730000000 1.0
C      1  0.5807090000000  0.5559930000000  0.4987710000000 1.0
C      1  0.4629270000000  0.4373690000000  0.5001760000000 1.0
C      1  0.4348810000000  0.4504210000000  0.5569160000000 1.0
C      1  0.6032480000000  0.4594810000000  0.4522740000000 1.0
C      1  0.5322040000000  0.5312310000000  0.4653560000000 1.0
C      1  0.5535130000000  0.3985500000000  0.4085970000000 1.0
C      1  0.5516530000000  0.4316750000000  0.4730800000000 1.0
C      1  0.5408850000000  0.5450080000000  0.4426860000000 1.0
C      1  0.4257730000000  0.5061690000000  0.5048260000000 1.0
C      1  0.6160130000000  0.4604720000000  0.4757670000000 1.0
C      1  0.4841660000000  0.4502220000000  0.6226160000000 1.0
C      1  0.4839950000000  0.5415120000000  0.5724500000000 1.0
C      1  0.4497030000000  0.5096630000000  0.4442410000000 1.0
C      1  0.5385890000000  0.5022030000000  0.4682680000000 1.0
C      1  0.4865660000000  0.4403190000000  0.5980200000000 1.0
C      1  0.4379010000000  0.4350010000000  0.4912800000000 1.0
C      1  0.4711600000000  0.5036520000000  0.4877790000000 1.0
C      1  0.4893830000000  0.4391640000000  0.5009650000000 1.0
C      1  0.4396210000000  0.4787000000000  0.5544990000000 1.0
C      1  0.4451120000000  0.4386060000000  0.4257740000000 1.0
C      1  0.5886940000000  0.5388870000000  0.4792020000000 1.0
C      1  0.4573320000000  0.4326560000000  0.5590420000000 1.0
C      1  0.5500480000000  0.5148070000000  0.3809150000000 1.0
C      1  0.5300400000000  0.5650470000000  0.4250580000000 1.0
C      1  0.4692700000000  0.5963720000000  0.4425140000000 1.0
C      1  0.4277320000000  0.4736380000000  0.4658930000000 1.0
C      1  0.5028130000000  0.5081950000000  0.5449880000000 1.0
C      1  0.4247660000000  0.4454830000000  0.4689390000000 1.0
C      1  0.4407890000000  0.5575590000000  0.5596960000000 1.0
C      1  0.4966930000000  0.4601220000000  0.5541170000000 1.0
C      1  0.4534990000000  0.5831580000000  0.5575010000000 1.0
C      1  0.5772330000000  0.4586240000000  0.4416260000000 1.0
C      1  0.5548640000000  0.5369070000000  0.3974390000000 1.0
C      1  0.5342490000000  0.6534360000000  0.4605600000000 1.0
C      1  0.4557750000000  0.5392620000000  0.5762550000000 1.0
C      1  0.4758310000000  0.3844090000000  0.5023840000000 1.0
C      1  0.5818940000000  0.5142690000000  0.4663520000000 1.0
C      1  0.6111070000000  0.4665460000000  0.5013750000000 1.0
C      1  0.5145330000000  0.5133100000000  0.5034260000000 1.0
C      1  0.5327990000000  0.5473530000000  0.5832420000000 1.0
C      1  0.4977040000000  0.4951810000000  0.4890530000000 1.0
C      1  0.5201030000000  0.5378920000000  0.4902590000000 1.0
C      1  0.4862380000000  0.4855100000000  0.5463250000000 1.0
C      1  0.5622030000000  0.5227070000000  0.5518650000000 1.0
C      1  0.4961740000000  0.4276160000000  0.4429440000000 1.0
C      1  0.4742790000000  0.4708440000000  0.6363310000000 1.0
C      1  0.5297840000000  0.5882870000000  0.5469370000000 1.0
C      1  0.4654970000000  0.5209400000000  0.4651290000000 1.0
C      1  0.5168330000000  0.4486680000000  0.5380770000000 1.0
C      1  0.4720470000000  0.5726380000000  0.4529360000000 1.0
C      1  0.5671390000000  0.5669100000000  0.5195200000000 1.0
C      1  0.4262830000000  0.4313020000000  0.4442100000000 1.0
C      1  0.4923020000000  0.4053560000000  0.4572760000000 1.0
C      1  0.4629260000000  0.4605800000000  0.4315470000000 1.0
C      1  0.4918390000000  0.5346380000000  0.5458750000000 1.0
C      1  0.4281300000000  0.4976600000000  0.5726790000000 1.0
C      1  0.5583310000000  0.4157320000000  0.4275890000000 1.0
C      1  0.5045530000000  0.5962960000000  0.5524510000000 1.0
C      1  0.5918030000000  0.4784120000000  0.5156700000000 1.0
C      1  0.4531000000000  0.4980810000000  0.5096810000000 1.0
C      1  0.4093610000000  0.4404870000000  0.5567040000000 1.0
C      1  0.5687150000000  0.4936260000000  0.5105340000000 1.0
C      1  0.4882940000000  0.5519610000000  0.5226770000000 1.0
C      1  0.4500530000000  0.5097270000000  0.6145460000000 1.0
C      1  0.4148130000000  0.4962280000000  0.4798100000000 1.0
C      1  0.5153900000000  0.4399110000000  0.5114260000000 1.0
C      1  0.4610400000000  0.4936940000000  0.6327080000000 1.0
C      1  0.5251570000000  0.5061600000000  0.5280680000000 1.0
C      1  0.5620650000000  0.4351280000000  0.4472840000000 1.0
C      1  0.5373420000000  0.4339790000000  0.4953360000000 1.0
C      1  0.5385010000000  0.5607650000000  0.3990210000000 1.0
C      1  0.4777580000000  0.5951920000000  0.5558370000000 1.0
C      1  0.5419000000000  0.4903240000000  0.3887540000000 1.0
C      1  0.5202900000000  0.6091100000000  0.4851320000000 1.0
C      1  0.5644200000000  0.4817430000000  0.4307210000000 1.0
C      1  0.4239630000000  0.5221320000000  0.4411620000000 1.0
C      1  0.5087850000000  0.5595720000000  0.5037670000000 1.0
C      1  0.5741660000000  0.5088700000000  0.4381620000000 1.0
C      1  0.4663340000000  0.3908700000000  0.5265950000000 1.0
C      1  0.4484390000000  0.4812830000000  0.4457590000000 1.0
C      1  0.4723850000000  0.5477730000000  0.4621680000000 1.0
END
