TITL C-627111-6168-1539 169.954429716569 125000 -578.659721485521 0 0 95 (C1) n - 1
REM
REM in /home/nfs/bkarasulu/CARBON/AIRSS/Generating-Clusters/LCBOP/Only-C1/SD-CG/FIRE-CG
REM
REM
REM
REM
REM
REM ./C.cell (11c1c37f851c82e70ff6c80c92926a4b)
REM AIRSS Version 0.9.1 bugfix July 2018 build 013d7b7c2542+ Fri, 06 Jul 2018 19:26:36 +0100
REM compiler GCC version 9.2.1 20190827 (Red Hat 9.2.1-1)
REM options -cpp -mtune=generic -march=x86-64 -g -O0 -fpre-include=/usr/include/finclude/math-vector-fortran.h
REM seed -2132609326 -737425970 -2045066097 -1985496987 1546147896 -427227630 -1158043936 -343933049 -963465493 262495463 -1943571687 307277725 1220880245 57700349 -239983800 -582316744 1495673742 -2021384474 1853349643 1659452025 313212248 -947995077 1756239856 1689376 -10464226 -1187143502 796662376 1838543515 850237057 -404297494 867836677 -160098543 192838454
REM
CELL 1.54180   50.00000   50.00000   50.00000   90.00000   90.00000   90.00000
LATT -1
SFAC C  
C      1  0.4285070000000  0.5710400000000  0.4594190000000 1.0
C      1  0.4733260000000  0.4658880000000  0.5809070000000 1.0
C      1  0.5100990000000  0.4064830000000  0.4692050000000 1.0
C      1  0.4264700000000  0.5399280000000  0.5174360000000 1.0
C      1  0.4837320000000  0.5055240000000  0.5646330000000 1.0
C      1  0.5134090000000  0.4126100000000  0.5357710000000 1.0
C      1  0.4877370000000  0.4903270000000  0.5883030000000 1.0
C      1  0.5108430000000  0.4354370000000  0.4181810000000 1.0
C      1  0.5758080000000  0.4179930000000  0.4950690000000 1.0
C      1  0.4703470000000  0.5296640000000  0.5604640000000 1.0
C      1  0.5312220000000  0.4162370000000  0.4179250000000 1.0
C      1  0.3778480000000  0.5213670000000  0.5362970000000 1.0
C      1  0.4702350000000  0.4310270000000  0.4816880000000 1.0
C      1  0.5771230000000  0.4443460000000  0.4542280000000 1.0
C      1  0.5165790000000  0.5736780000000  0.5572330000000 1.0
C      1  0.5653550000000  0.5407120000000  0.5301790000000 1.0
C      1  0.4370010000000  0.6178890000000  0.4706730000000 1.0
C      1  0.5599740000000  0.5138120000000  0.5390860000000 1.0
C      1  0.4358100000000  0.4948380000000  0.4980220000000 1.0
C      1  0.5329280000000  0.4702550000000  0.4614410000000 1.0
C      1  0.5074060000000  0.5417730000000  0.5300650000000 1.0
C      1  0.4717730000000  0.4172770000000  0.5063060000000 1.0
C      1  0.3655260000000  0.5286120000000  0.5595310000000 1.0
C      1  0.5475070000000  0.4476590000000  0.5382990000000 1.0
C      1  0.4890570000000  0.4757410000000  0.4127430000000 1.0
C      1  0.5346950000000  0.5993340000000  0.5005610000000 1.0
C      1  0.4956740000000  0.4751170000000  0.5252470000000 1.0
C      1  0.4779900000000  0.5562500000000  0.4749380000000 1.0
C      1  0.4545510000000  0.5392690000000  0.4757220000000 1.0
C      1  0.5840630000000  0.4883620000000  0.5010450000000 1.0
C      1  0.5115750000000  0.5039350000000  0.5983630000000 1.0
C      1  0.5607400000000  0.5472870000000  0.5026210000000 1.0
C      1  0.5423640000000  0.6020340000000  0.5263560000000 1.0
C      1  0.4521920000000  0.4715800000000  0.5038760000000 1.0
C      1  0.5872790000000  0.4392550000000  0.4805300000000 1.0
C      1  0.4358440000000  0.5432380000000  0.4546680000000 1.0
C      1  0.5346270000000  0.5513430000000  0.4925660000000 1.0
C      1  0.5313970000000  0.4023690000000  0.4847510000000 1.0
C      1  0.5628280000000  0.5632420000000  0.5472980000000 1.0
C      1  0.4545580000000  0.4702990000000  0.4526870000000 1.0
C      1  0.4779340000000  0.5854380000000  0.5127690000000 1.0
C      1  0.4884820000000  0.4227140000000  0.4613440000000 1.0
C      1  0.5390680000000  0.4221450000000  0.5286090000000 1.0
C      1  0.4754180000000  0.6048560000000  0.5575110000000 1.0
C      1  0.5000070000000  0.4953060000000  0.5440440000000 1.0
C      1  0.5163230000000  0.5334390000000  0.5040880000000 1.0
C      1  0.5419360000000  0.5826990000000  0.5469690000000 1.0
C      1  0.5379930000000  0.4711370000000  0.3960790000000 1.0
C      1  0.4350900000000  0.5544550000000  0.5923400000000 1.0
C      1  0.4182720000000  0.4906470000000  0.4756730000000 1.0
C      1  0.4975190000000  0.4984080000000  0.4756740000000 1.0
C      1  0.4489640000000  0.5850950000000  0.5051330000000 1.0
C      1  0.5132370000000  0.4615520000000  0.4049620000000 1.0
C      1  0.4884090000000  0.4106940000000  0.5262740000000 1.0
C      1  0.4040790000000  0.5294010000000  0.5303860000000 1.0
C      1  0.5898640000000  0.5162230000000  0.4564170000000 1.0
C      1  0.5543140000000  0.4561760000000  0.5643360000000 1.0
C      1  0.5811190000000  0.4508640000000  0.4069480000000 1.0
C      1  0.4944040000000  0.5179480000000  0.4948110000000 1.0
C      1  0.4456490000000  0.5235760000000  0.5007950000000 1.0
C      1  0.5944220000000  0.4624080000000  0.4955250000000 1.0
C      1  0.4683880000000  0.4659490000000  0.5274950000000 1.0
C      1  0.5626140000000  0.4913710000000  0.5200800000000 1.0
C      1  0.4795940000000  0.5374920000000  0.5353140000000 1.0
C      1  0.5498330000000  0.4117950000000  0.5039530000000 1.0
C      1  0.4627740000000  0.4595720000000  0.5556560000000 1.0
C      1  0.3649960000000  0.5054790000000  0.5170620000000 1.0
C      1  0.4326420000000  0.5673450000000  0.5198780000000 1.0
C      1  0.5847840000000  0.5131630000000  0.4304170000000 1.0
C      1  0.5492080000000  0.5078990000000  0.5658070000000 1.0
C      1  0.4525110000000  0.5424020000000  0.5771650000000 1.0
C      1  0.4326980000000  0.5184300000000  0.4401920000000 1.0
C      1  0.4381590000000  0.5914470000000  0.4783260000000 1.0
C      1  0.5897990000000  0.5080640000000  0.4818170000000 1.0
C      1  0.4338870000000  0.4915120000000  0.4514360000000 1.0
C      1  0.5575730000000  0.4644490000000  0.4547810000000 1.0
C      1  0.5282500000000  0.5221760000000  0.5811800000000 1.0
C      1  0.4721560000000  0.5217700000000  0.5128590000000 1.0
C      1  0.5775960000000  0.4321720000000  0.4282980000000 1.0
C      1  0.5574390000000  0.4128910000000  0.4231600000000 1.0
C      1  0.5760590000000  0.4987930000000  0.4096790000000 1.0
C      1  0.3702140000000  0.4926480000000  0.4942590000000 1.0
C      1  0.5433120000000  0.4697250000000  0.5203220000000 1.0
C      1  0.5145600000000  0.4769070000000  0.4805560000000 1.0
C      1  0.5550900000000  0.4812250000000  0.5745750000000 1.0
C      1  0.5176390000000  0.4705830000000  0.5079070000000 1.0
C      1  0.4886360000000  0.4365990000000  0.4367960000000 1.0
C      1  0.5657330000000  0.4741280000000  0.4009770000000 1.0
C      1  0.5192570000000  0.5496360000000  0.5745220000000 1.0
C      1  0.5218440000000  0.5770080000000  0.4889430000000 1.0
C      1  0.4576790000000  0.4566340000000  0.4792660000000 1.0
C      1  0.4735630000000  0.4619930000000  0.4331200000000 1.0
C      1  0.4890180000000  0.5877930000000  0.5408490000000 1.0
C      1  0.4931290000000  0.5753400000000  0.4900900000000 1.0
C      1  0.3908630000000  0.4873980000000  0.4782450000000 1.0
END
