TITL C-627107-135-978 -38.5276490302873 125000 -944.313717300258 0 0 154 (C1) n - 1
REM
REM in /home/nfs/bkarasulu/CARBON/AIRSS/Generating-Clusters/LCBOP/Only-C1/SD-CG/FIRE-CG
REM
REM
REM
REM
REM
REM ./C.cell (11c1c37f851c82e70ff6c80c92926a4b)
REM AIRSS Version 0.9.1 bugfix July 2018 build 013d7b7c2542+ Fri, 06 Jul 2018 19:26:36 +0100
REM compiler GCC version 9.2.1 20190827 (Red Hat 9.2.1-1)
REM options -cpp -mtune=generic -march=x86-64 -g -O0 -fpre-include=/usr/include/finclude/math-vector-fortran.h
REM seed 67099810 5532908 -1929904182 -1967561881 -979124495 -200111615 -597850999 749688025 -1855417838 1482131888 -1069512196 -1399078072 1548484793 -146721768 1054253792 -319516533 -593900842 1472464404 -875910322 405796239 -1560340879 -53707229 167914132 -841717445 -863792052 -1047767583 -754525747 -577992965 -2048682027 -2121046354 994803737 2143214695 1419684497
REM
CELL 1.54180   50.00000   50.00000   50.00000   90.00000   90.00000   90.00000
LATT -1
SFAC C  
C      1  0.5794620000000  0.4489600000000  0.4435820000000 1.0
C      1  0.3920690000000  0.4751480000000  0.5332740000000 1.0
C      1  0.4851560000000  0.4162180000000  0.4351140000000 1.0
C      1  0.5330620000000  0.4365430000000  0.4340700000000 1.0
C      1  0.4881290000000  0.5115170000000  0.6125920000000 1.0
C      1  0.4370730000000  0.4842100000000  0.5972920000000 1.0
C      1  0.5499160000000  0.5149190000000  0.4748580000000 1.0
C      1  0.5477080000000  0.4753330000000  0.5241360000000 1.0
C      1  0.4956720000000  0.6025780000000  0.5235630000000 1.0
C      1  0.4923850000000  0.6350870000000  0.4905660000000 1.0
C      1  0.4792170000000  0.4203580000000  0.5493190000000 1.0
C      1  0.5317940000000  0.5729370000000  0.5249840000000 1.0
C      1  0.4501690000000  0.6060120000000  0.5029310000000 1.0
C      1  0.5153520000000  0.5809070000000  0.5657990000000 1.0
C      1  0.4830980000000  0.5491360000000  0.3614730000000 1.0
C      1  0.4358760000000  0.5105520000000  0.5846170000000 1.0
C      1  0.4631400000000  0.5514260000000  0.5254160000000 1.0
C      1  0.5018160000000  0.5353480000000  0.5725730000000 1.0
C      1  0.5857560000000  0.5672000000000  0.5207720000000 1.0
C      1  0.4257450000000  0.5120860000000  0.5581830000000 1.0
C      1  0.5806740000000  0.5922470000000  0.5113040000000 1.0
C      1  0.4196890000000  0.5567220000000  0.4390140000000 1.0
C      1  0.4962050000000  0.3607990000000  0.4609960000000 1.0
C      1  0.5032000000000  0.4800480000000  0.5826330000000 1.0
C      1  0.4403210000000  0.5900710000000  0.4799660000000 1.0
C      1  0.4155790000000  0.5089810000000  0.4389590000000 1.0
C      1  0.5646130000000  0.6028590000000  0.4900890000000 1.0
C      1  0.4777780000000  0.5316430000000  0.4058610000000 1.0
C      1  0.4915800000000  0.5873570000000  0.5486040000000 1.0
C      1  0.5170640000000  0.4181180000000  0.5821370000000 1.0
C      1  0.4640840000000  0.5321800000000  0.3520090000000 1.0
C      1  0.4754620000000  0.5394500000000  0.5003350000000 1.0
C      1  0.5553610000000  0.4260160000000  0.4774920000000 1.0
C      1  0.4432420000000  0.4297440000000  0.5750260000000 1.0
C      1  0.5260790000000  0.4984120000000  0.4725310000000 1.0
C      1  0.5094220000000  0.5749350000000  0.4842290000000 1.0
C      1  0.4600100000000  0.4142260000000  0.5000370000000 1.0
C      1  0.4531050000000  0.4122950000000  0.5533590000000 1.0
C      1  0.4650710000000  0.5881140000000  0.4324540000000 1.0
C      1  0.4590200000000  0.4640460000000  0.5362150000000 1.0
C      1  0.4404770000000  0.5068590000000  0.5351170000000 1.0
C      1  0.5422330000000  0.4068630000000  0.5395190000000 1.0
C      1  0.4561250000000  0.4908630000000  0.4145140000000 1.0
C      1  0.4108310000000  0.5492920000000  0.4674200000000 1.0
C      1  0.5524540000000  0.4960650000000  0.5436220000000 1.0
C      1  0.4293580000000  0.5991690000000  0.5226140000000 1.0
C      1  0.4602080000000  0.4705320000000  0.4726820000000 1.0
C      1  0.5655640000000  0.3927230000000  0.5392430000000 1.0
C      1  0.4154990000000  0.4663650000000  0.5927490000000 1.0
C      1  0.5353780000000  0.4267100000000  0.5196170000000 1.0
C      1  0.5745310000000  0.4919550000000  0.4152930000000 1.0
C      1  0.5305840000000  0.4535980000000  0.5265790000000 1.0
C      1  0.5609050000000  0.5231700000000  0.5347990000000 1.0
C      1  0.4911510000000  0.5879980000000  0.4408550000000 1.0
C      1  0.5381070000000  0.6137380000000  0.4945000000000 1.0
C      1  0.5210220000000  0.4016820000000  0.5585480000000 1.0
C      1  0.4258830000000  0.4304070000000  0.4768620000000 1.0
C      1  0.5039990000000  0.5276700000000  0.5435340000000 1.0
C      1  0.5724510000000  0.5496930000000  0.5386550000000 1.0
C      1  0.4243080000000  0.4385150000000  0.5046310000000 1.0
C      1  0.5275330000000  0.4220540000000  0.4909950000000 1.0
C      1  0.4174960000000  0.4518170000000  0.4603150000000 1.0
C      1  0.4525720000000  0.5137190000000  0.3682920000000 1.0
C      1  0.4659170000000  0.4408210000000  0.5941700000000 1.0
C      1  0.4886790000000  0.5058410000000  0.5292560000000 1.0
C      1  0.3954610000000  0.4686440000000  0.4676750000000 1.0
C      1  0.4955060000000  0.4305080000000  0.6003140000000 1.0
C      1  0.5995670000000  0.4984320000000  0.4972850000000 1.0
C      1  0.4855810000000  0.4852810000000  0.6033880000000 1.0
C      1  0.4049660000000  0.5173590000000  0.4667360000000 1.0
C      1  0.4495050000000  0.4131120000000  0.4731450000000 1.0
C      1  0.6015400000000  0.5049730000000  0.5524060000000 1.0
C      1  0.5612240000000  0.4390390000000  0.5772680000000 1.0
C      1  0.4116790000000  0.4577960000000  0.5455860000000 1.0
C      1  0.4798200000000  0.5305880000000  0.4343400000000 1.0
C      1  0.5126130000000  0.4478470000000  0.6185390000000 1.0
C      1  0.4138400000000  0.5332530000000  0.4232480000000 1.0
C      1  0.5929270000000  0.4421990000000  0.5150020000000 1.0
C      1  0.5401710000000  0.5822440000000  0.5502600000000 1.0
C      1  0.4618580000000  0.4697750000000  0.6020890000000 1.0
C      1  0.4467080000000  0.5667700000000  0.4370120000000 1.0
C      1  0.5593230000000  0.4911210000000  0.5722860000000 1.0
C      1  0.5828710000000  0.5089180000000  0.5751430000000 1.0
C      1  0.5613560000000  0.4747230000000  0.4996530000000 1.0
C      1  0.5698650000000  0.5874970000000  0.4667320000000 1.0
C      1  0.4600120000000  0.5433570000000  0.4766260000000 1.0
C      1  0.4913080000000  0.3859250000000  0.4707240000000 1.0
C      1  0.5073280000000  0.4576890000000  0.5408120000000 1.0
C      1  0.5042790000000  0.3953240000000  0.4943350000000 1.0
C      1  0.6153610000000  0.5316400000000  0.3706870000000 1.0
C      1  0.5956340000000  0.5244220000000  0.3861120000000 1.0
C      1  0.4765030000000  0.6169310000000  0.5067950000000 1.0
C      1  0.5702830000000  0.5605040000000  0.4641440000000 1.0
C      1  0.5340170000000  0.4413800000000  0.5765320000000 1.0
C      1  0.4485120000000  0.4909800000000  0.4892280000000 1.0
C      1  0.5334230000000  0.4661080000000  0.6152190000000 1.0
C      1  0.5318550000000  0.5497880000000  0.4166520000000 1.0
C      1  0.5745080000000  0.5168660000000  0.4026950000000 1.0
C      1  0.4815760000000  0.5305290000000  0.5926070000000 1.0
C      1  0.5576390000000  0.4271900000000  0.4480340000000 1.0
C      1  0.6095570000000  0.4795420000000  0.4764530000000 1.0
C      1  0.5111240000000  0.4512840000000  0.4771790000000 1.0
C      1  0.5047910000000  0.4349020000000  0.4273080000000 1.0
C      1  0.5014150000000  0.5526720000000  0.4996000000000 1.0
C      1  0.4536080000000  0.5319890000000  0.5902290000000 1.0
C      1  0.5267920000000  0.4714460000000  0.4637920000000 1.0
C      1  0.4900990000000  0.3878280000000  0.5195310000000 1.0
C      1  0.4353690000000  0.5058430000000  0.5075160000000 1.0
C      1  0.4973440000000  0.3986780000000  0.5447600000000 1.0
C      1  0.4597910000000  0.5112670000000  0.3953760000000 1.0
C      1  0.5151720000000  0.5626050000000  0.3974580000000 1.0
C      1  0.5379160000000  0.4658540000000  0.4380140000000 1.0
C      1  0.5483770000000  0.4810490000000  0.5973270000000 1.0
C      1  0.4988830000000  0.5060700000000  0.4735650000000 1.0
C      1  0.5284840000000  0.5530460000000  0.4449240000000 1.0
C      1  0.5935330000000  0.4567910000000  0.4678460000000 1.0
C      1  0.4818600000000  0.4454580000000  0.5331890000000 1.0
C      1  0.5530050000000  0.5341440000000  0.4070550000000 1.0
C      1  0.5198570000000  0.6348090000000  0.4867300000000 1.0
C      1  0.3882110000000  0.4899040000000  0.5103230000000 1.0
C      1  0.4922010000000  0.5488830000000  0.3883770000000 1.0
C      1  0.5508130000000  0.5498500000000  0.5827980000000 1.0
C      1  0.4879580000000  0.5058860000000  0.4463080000000 1.0
C      1  0.6058780000000  0.4619170000000  0.5288890000000 1.0
C      1  0.5651630000000  0.4710270000000  0.4305050000000 1.0
C      1  0.5707460000000  0.5007060000000  0.4897950000000 1.0
C      1  0.4189080000000  0.4474300000000  0.5717870000000 1.0
C      1  0.4765150000000  0.4371390000000  0.5045500000000 1.0
C      1  0.6050890000000  0.4908910000000  0.5264370000000 1.0
C      1  0.4608870000000  0.3942690000000  0.5197410000000 1.0
C      1  0.4701010000000  0.5686420000000  0.5453360000000 1.0
C      1  0.4937190000000  0.4603260000000  0.4206590000000 1.0
C      1  0.4627290000000  0.5463440000000  0.4494650000000 1.0
C      1  0.4344300000000  0.4879810000000  0.4326690000000 1.0
C      1  0.5715450000000  0.5313170000000  0.5901630000000 1.0
C      1  0.4180410000000  0.5703420000000  0.4863340000000 1.0
C      1  0.4868510000000  0.5111040000000  0.5000120000000 1.0
C      1  0.4831800000000  0.4542000000000  0.4827210000000 1.0
C      1  0.5198430000000  0.5931050000000  0.5062140000000 1.0
C      1  0.5106700000000  0.5734250000000  0.4559700000000 1.0
C      1  0.5158450000000  0.4616250000000  0.5671630000000 1.0
C      1  0.4649920000000  0.4918850000000  0.5389060000000 1.0
C      1  0.3938730000000  0.4939760000000  0.4821340000000 1.0
C      1  0.4812560000000  0.4841840000000  0.4279500000000 1.0
C      1  0.5496040000000  0.5411750000000  0.4618360000000 1.0
C      1  0.4397670000000  0.4670430000000  0.4515730000000 1.0
C      1  0.4330340000000  0.4531710000000  0.5273460000000 1.0
C      1  0.5165190000000  0.5479330000000  0.5240270000000 1.0
C      1  0.5751030000000  0.4472760000000  0.4910420000000 1.0
C      1  0.5209080000000  0.5553400000000  0.5808350000000 1.0
C      1  0.5217390000000  0.5872920000000  0.3876550000000 1.0
C      1  0.4119780000000  0.5789820000000  0.5135660000000 1.0
C      1  0.5603320000000  0.5649760000000  0.5599970000000 1.0
C      1  0.4725600000000  0.4036040000000  0.4570150000000 1.0
END
