TITL C-627112-676-503 112247.937154379 125000 -1111.57823062762 0 0 183 (C1) n - 1
REM
REM in /home/nfs/bkarasulu/CARBON/AIRSS/Generating-Clusters/LCBOP/Only-C1/SD-CG/FIRE-CG
REM
REM
REM
REM
REM
REM ./C.cell (11c1c37f851c82e70ff6c80c92926a4b)
REM AIRSS Version 0.9.1 bugfix July 2018 build 013d7b7c2542+ Fri, 06 Jul 2018 19:26:36 +0100
REM compiler GCC version 9.2.1 20190827 (Red Hat 9.2.1-1)
REM options -cpp -mtune=generic -march=x86-64 -g -O0 -fpre-include=/usr/include/finclude/math-vector-fortran.h
REM seed -201716681 -216714816 -873750026 -1904743769 1618955757 -1800032910 -1837572867 2026588650 -2068112683 -1329760503 553211480 608928577 -1228824962 -1723578517 38292543 895688569 -400808612 1100893612 -1077827128 501063929 38040918 -1118692671 5878095 -1362702558 -1443322418 -1123959446 -968132262 948762217 1792741857 3923240 -1853621352 1858868051 -2055444437
REM
CELL 1.54180   50.00000   50.00000   50.00000   90.00000   90.00000   90.00000
LATT -1
SFAC C  
C      1  0.4085120000000  0.4314450000000  0.5680460000000 1.0
C      1  0.4478920000000  0.6019740000000  0.5742930000000 1.0
C      1  0.4937760000000  0.5865140000000  0.5631390000000 1.0
C      1  0.5360510000000  0.5590580000000  0.4886060000000 1.0
C      1  0.4424010000000  0.4731620000000  0.5301920000000 1.0
C      1  0.4887140000000  0.5378110000000  0.5196060000000 1.0
C      1  0.6205270000000  0.5312190000000  0.5025620000000 1.0
C      1  0.4904940000000  0.4048420000000  0.5767400000000 1.0
C      1  0.4642520000000  0.5178970000000  0.5528450000000 1.0
C      1  0.5688450000000  0.5205450000000  0.5251510000000 1.0
C      1  0.3920100000000  0.6001400000000  0.5231060000000 1.0
C      1  0.4436000000000  0.5668660000000  0.4655050000000 1.0
C      1  0.4611280000000  0.6380280000000  0.4671740000000 1.0
C      1  0.4111460000000  0.5192170000000  0.5721520000000 1.0
C      1  0.6125420000000  0.5401790000000  0.5272940000000 1.0
C      1  0.5881330000000  0.4706450000000  0.4334930000000 1.0
C      1  0.5833790000000  0.6008000000000  0.5399470000000 1.0
C      1  0.5311380000000  0.5968810000000  0.4288290000000 1.0
C      1  0.5564760000000  0.3853600000000  0.5280460000000 1.0
C      1  0.4376820000000  0.4957030000000  0.5983260000000 1.0
C      1  0.3963370000000  0.4614550000000  0.5335480000000 1.0
C      1  0.4888320000000  0.4466970000000  0.4266030000000 1.0
C      1  0.5877270000000  0.4199900000000  0.5443390000000 1.0
C      1  0.5870730000000  0.6047570000000  0.4813620000000 1.0
C      1  0.3930040000000  0.4745760000000  0.5808010000000 1.0
C      1  0.3750240000000  0.4139600000000  0.5376870000000 1.0
C      1  0.5014240000000  0.4771650000000  0.4794300000000 1.0
C      1  0.4936130000000  0.5973770000000  0.5358210000000 1.0
C      1  0.3947960000000  0.4552800000000  0.5609900000000 1.0
C      1  0.4195570000000  0.5349980000000  0.5262660000000 1.0
C      1  0.4824410000000  0.4757480000000  0.6136510000000 1.0
C      1  0.5702560000000  0.5363530000000  0.5852280000000 1.0
C      1  0.4034530000000  0.4918650000000  0.4553920000000 1.0
C      1  0.5980160000000  0.5396620000000  0.4148280000000 1.0
C      1  0.5506130000000  0.4764970000000  0.4565260000000 1.0
C      1  0.5264730000000  0.4012240000000  0.4545540000000 1.0
C      1  0.5463950000000  0.5055060000000  0.4554980000000 1.0
C      1  0.5101310000000  0.4641880000000  0.4337920000000 1.0
C      1  0.4957970000000  0.6205120000000  0.4933170000000 1.0
C      1  0.4187150000000  0.4686880000000  0.5175230000000 1.0
C      1  0.5179390000000  0.4959080000000  0.4922870000000 1.0
C      1  0.5980620000000  0.5663870000000  0.4182990000000 1.0
C      1  0.5062240000000  0.4855960000000  0.6023400000000 1.0
C      1  0.4732780000000  0.4353250000000  0.4729740000000 1.0
C      1  0.5715390000000  0.4696120000000  0.5379460000000 1.0
C      1  0.5993070000000  0.4218530000000  0.5176740000000 1.0
C      1  0.4271970000000  0.6060400000000  0.5574300000000 1.0
C      1  0.5546230000000  0.4890490000000  0.5922000000000 1.0
C      1  0.5616420000000  0.4969880000000  0.5396530000000 1.0
C      1  0.5099690000000  0.3731840000000  0.5221290000000 1.0
C      1  0.5681040000000  0.5542970000000  0.5635550000000 1.0
C      1  0.4152430000000  0.4450100000000  0.4700800000000 1.0
C      1  0.4527170000000  0.4973680000000  0.5383940000000 1.0
C      1  0.4749500000000  0.3855690000000  0.4245770000000 1.0
C      1  0.5157040000000  0.4963500000000  0.5190890000000 1.0
C      1  0.5288080000000  0.4745950000000  0.5868340000000 1.0
C      1  0.4790430000000  0.5029320000000  0.4421790000000 1.0
C      1  0.4676660000000  0.5814900000000  0.5773050000000 1.0
C      1  0.5141770000000  0.5416950000000  0.5317300000000 1.0
C      1  0.4610560000000  0.5873890000000  0.4283560000000 1.0
C      1  0.4777230000000  0.4263300000000  0.5920560000000 1.0
C      1  0.6184240000000  0.4656430000000  0.5260160000000 1.0
C      1  0.4718610000000  0.5370510000000  0.4051900000000 1.0
C      1  0.5496850000000  0.5759180000000  0.4294480000000 1.0
C      1  0.5624420000000  0.4667190000000  0.4150570000000 1.0
C      1  0.4962040000000  0.4019110000000  0.4140280000000 1.0
C      1  0.4559010000000  0.5449060000000  0.5526140000000 1.0
C      1  0.4551270000000  0.5546740000000  0.5796890000000 1.0
C      1  0.4118540000000  0.4938780000000  0.5858490000000 1.0
C      1  0.6047130000000  0.4802690000000  0.5744810000000 1.0
C      1  0.3751060000000  0.4582110000000  0.5136080000000 1.0
C      1  0.5513660000000  0.4576900000000  0.5205400000000 1.0
C      1  0.4942890000000  0.4680140000000  0.5453800000000 1.0
C      1  0.5503050000000  0.5178140000000  0.5919210000000 1.0
C      1  0.5244980000000  0.5250040000000  0.5815800000000 1.0
C      1  0.5788490000000  0.5362250000000  0.4810930000000 1.0
C      1  0.4629490000000  0.4851990000000  0.3627890000000 1.0
C      1  0.5681160000000  0.3973780000000  0.5514850000000 1.0
C      1  0.6180490000000  0.4756670000000  0.5512770000000 1.0
C      1  0.4804320000000  0.4386410000000  0.3806180000000 1.0
C      1  0.5239270000000  0.5249910000000  0.5529780000000 1.0
C      1  0.6056240000000  0.5262890000000  0.4784420000000 1.0
C      1  0.4208660000000  0.4614300000000  0.4904030000000 1.0
C      1  0.4798560000000  0.5124760000000  0.5750420000000 1.0
C      1  0.5108810000000  0.5688430000000  0.4755050000000 1.0
C      1  0.4607050000000  0.3680790000000  0.4093170000000 1.0
C      1  0.6111070000000  0.4882170000000  0.4357300000000 1.0
C      1  0.5088350000000  0.5952350000000  0.4894360000000 1.0
C      1  0.4708720000000  0.5427360000000  0.4968240000000 1.0
C      1  0.4545530000000  0.4445790000000  0.5913450000000 1.0
C      1  0.4719350000000  0.3910930000000  0.5583180000000 1.0
C      1  0.5929300000000  0.6274500000000  0.4699600000000 1.0
C      1  0.4496790000000  0.4292540000000  0.5469380000000 1.0
C      1  0.5227880000000  0.4209790000000  0.5233160000000 1.0
C      1  0.5299100000000  0.5479110000000  0.3969370000000 1.0
C      1  0.4481390000000  0.6137270000000  0.4750090000000 1.0
C      1  0.5528840000000  0.4797160000000  0.3916090000000 1.0
C      1  0.5624890000000  0.6012500000000  0.5588600000000 1.0
C      1  0.5742870000000  0.3817350000000  0.5064000000000 1.0
C      1  0.4208120000000  0.3956700000000  0.5353480000000 1.0
C      1  0.4371240000000  0.5552600000000  0.5351980000000 1.0
C      1  0.5833550000000  0.5480280000000  0.5359430000000 1.0
C      1  0.4835440000000  0.4552330000000  0.5221880000000 1.0
C      1  0.5923850000000  0.4572920000000  0.4832680000000 1.0
C      1  0.4704790000000  0.3893660000000  0.4523980000000 1.0
C      1  0.5330910000000  0.4444920000000  0.5415280000000 1.0
C      1  0.4488970000000  0.4007190000000  0.5432780000000 1.0
C      1  0.5147860000000  0.5872750000000  0.5181020000000 1.0
C      1  0.3745310000000  0.4279740000000  0.5117740000000 1.0
C      1  0.4393100000000  0.5332510000000  0.5921810000000 1.0
C      1  0.4925060000000  0.4511050000000  0.4932910000000 1.0
C      1  0.4281300000000  0.5023750000000  0.4483420000000 1.0
C      1  0.5946140000000  0.3990810000000  0.5015090000000 1.0
C      1  0.5101850000000  0.4083370000000  0.4764390000000 1.0
C      1  0.3916490000000  0.4101530000000  0.4454700000000 1.0
C      1  0.4869210000000  0.6403980000000  0.4755680000000 1.0
C      1  0.4490880000000  0.5646360000000  0.4935130000000 1.0
C      1  0.5018700000000  0.5119500000000  0.5918310000000 1.0
C      1  0.4548590000000  0.5162080000000  0.4565650000000 1.0
C      1  0.5470610000000  0.4076170000000  0.5699950000000 1.0
C      1  0.5818290000000  0.4811270000000  0.5890820000000 1.0
C      1  0.5769330000000  0.4451960000000  0.5553000000000 1.0
C      1  0.5772440000000  0.5813050000000  0.4265810000000 1.0
C      1  0.5290570000000  0.3926020000000  0.5248940000000 1.0
C      1  0.5290390000000  0.4925050000000  0.3889130000000 1.0
C      1  0.5494010000000  0.5772470000000  0.5666490000000 1.0
C      1  0.5283710000000  0.5618450000000  0.5177010000000 1.0
C      1  0.4779890000000  0.6141040000000  0.5167010000000 1.0
C      1  0.3999980000000  0.5238690000000  0.4855350000000 1.0
C      1  0.4813750000000  0.4070660000000  0.4713280000000 1.0
C      1  0.5314950000000  0.4970110000000  0.5436620000000 1.0
C      1  0.3994300000000  0.4219400000000  0.4686920000000 1.0
C      1  0.4892370000000  0.4282890000000  0.4052200000000 1.0
C      1  0.5216250000000  0.4701450000000  0.5562230000000 1.0
C      1  0.5407670000000  0.5490210000000  0.4230570000000 1.0
C      1  0.5388570000000  0.4637610000000  0.4336780000000 1.0
C      1  0.5504810000000  0.4354240000000  0.5646290000000 1.0
C      1  0.4387300000000  0.5810930000000  0.5164740000000 1.0
C      1  0.4916020000000  0.5505650000000  0.3643760000000 1.0
C      1  0.4521880000000  0.6073460000000  0.5048910000000 1.0
C      1  0.4576520000000  0.4496930000000  0.5302310000000 1.0
C      1  0.4172970000000  0.5965520000000  0.5324320000000 1.0
C      1  0.3877200000000  0.4987270000000  0.4790580000000 1.0
C      1  0.4613080000000  0.5119050000000  0.3649730000000 1.0
C      1  0.4649010000000  0.5579930000000  0.4234110000000 1.0
C      1  0.5207760000000  0.5791420000000  0.5719290000000 1.0
C      1  0.4114900000000  0.3950600000000  0.5081250000000 1.0
C      1  0.4241520000000  0.5248480000000  0.4999430000000 1.0
C      1  0.4561900000000  0.4720140000000  0.6023670000000 1.0
C      1  0.5643630000000  0.5611420000000  0.4821780000000 1.0
C      1  0.5195390000000  0.4006120000000  0.5769370000000 1.0
C      1  0.6029900000000  0.6196810000000  0.5390730000000 1.0
C      1  0.6319860000000  0.4860740000000  0.4181050000000 1.0
C      1  0.5530930000000  0.5247880000000  0.4344460000000 1.0
C      1  0.3806610000000  0.5059060000000  0.5285340000000 1.0
C      1  0.5621280000000  0.5195160000000  0.4974890000000 1.0
C      1  0.4514100000000  0.5192500000000  0.4885010000000 1.0
C      1  0.5077530000000  0.6075170000000  0.4218960000000 1.0
C      1  0.6054250000000  0.4481710000000  0.5072740000000 1.0
C      1  0.4684660000000  0.4454280000000  0.4468110000000 1.0
C      1  0.5826960000000  0.5780030000000  0.5226960000000 1.0
C      1  0.3749020000000  0.4871090000000  0.5036280000000 1.0
C      1  0.4858470000000  0.5138320000000  0.4161290000000 1.0
C      1  0.4624880000000  0.5471050000000  0.4510900000000 1.0
C      1  0.4705460000000  0.4599440000000  0.3675990000000 1.0
C      1  0.4467470000000  0.5930390000000  0.4542010000000 1.0
C      1  0.4967820000000  0.4829320000000  0.4521470000000 1.0
C      1  0.5398440000000  0.5104240000000  0.4825620000000 1.0
C      1  0.4707230000000  0.5359650000000  0.3765690000000 1.0
C      1  0.4000330000000  0.4089580000000  0.5519700000000 1.0
C      1  0.4874420000000  0.5507370000000  0.4712330000000 1.0
C      1  0.3926100000000  0.4123360000000  0.4944000000000 1.0
C      1  0.5162090000000  0.5539010000000  0.3747860000000 1.0
C      1  0.5785480000000  0.5820250000000  0.4948790000000 1.0
C      1  0.4015860000000  0.5209450000000  0.5439820000000 1.0
C      1  0.5064650000000  0.5020910000000  0.4001420000000 1.0
C      1  0.4813450000000  0.6046270000000  0.4193950000000 1.0
C      1  0.5209400000000  0.3988790000000  0.4280670000000 1.0
C      1  0.4363010000000  0.4361910000000  0.5713970000000 1.0
C      1  0.5787940000000  0.5221760000000  0.4220930000000 1.0
C      1  0.5138040000000  0.4286040000000  0.4969000000000 1.0
C      1  0.6122600000000  0.5074250000000  0.4576990000000 1.0
C      1  0.5771630000000  0.4662970000000  0.4610800000000 1.0
END
