TITL C-627107-135-594 137733.973812435 125000 -1062.61900474671 0 0 176 (C1) n - 1
REM
REM in /home/nfs/bkarasulu/CARBON/AIRSS/Generating-Clusters/LCBOP/Only-C1/SD-CG/FIRE-CG
REM
REM
REM
REM
REM
REM ./C.cell (11c1c37f851c82e70ff6c80c92926a4b)
REM AIRSS Version 0.9.1 bugfix July 2018 build 013d7b7c2542+ Fri, 06 Jul 2018 19:26:36 +0100
REM compiler GCC version 9.2.1 20190827 (Red Hat 9.2.1-1)
REM options -cpp -mtune=generic -march=x86-64 -g -O0 -fpre-include=/usr/include/finclude/math-vector-fortran.h
REM seed -1826554158 265282832 1791959901 -1728773964 74881993 1476537187 -719799029 -1381987202 1762820357 -57157001 -1631008705 604638579 -511079801 75516371 1940693601 1161123718 -465280055 -85302872 -1879763131 -809286603 1076505634 1239983511 1716600556 759560940 -50530143 -1561121071 735430445 1022355513 136594162 -671096473 1478383676 -1712875116 -366400261
REM
CELL 1.54180   50.00000   50.00000   50.00000   90.00000   90.00000   90.00000
LATT -1
SFAC C  
C      1  0.5442680000000  0.5031580000000  0.5116060000000 1.0
C      1  0.4196440000000  0.4260880000000  0.4876360000000 1.0
C      1  0.4116900000000  0.5991150000000  0.5215210000000 1.0
C      1  0.4726790000000  0.5440380000000  0.5493690000000 1.0
C      1  0.4741720000000  0.5418320000000  0.4545220000000 1.0
C      1  0.4432520000000  0.5070380000000  0.4234640000000 1.0
C      1  0.4350140000000  0.5908590000000  0.4552080000000 1.0
C      1  0.4582560000000  0.5491950000000  0.5246200000000 1.0
C      1  0.4910170000000  0.4457180000000  0.4301280000000 1.0
C      1  0.4849230000000  0.5201090000000  0.5603350000000 1.0
C      1  0.5513380000000  0.4665510000000  0.5890670000000 1.0
C      1  0.4123020000000  0.4535190000000  0.4805450000000 1.0
C      1  0.5782440000000  0.4885880000000  0.5398810000000 1.0
C      1  0.5351630000000  0.6032230000000  0.5255070000000 1.0
C      1  0.4669700000000  0.4613920000000  0.4277080000000 1.0
C      1  0.4245190000000  0.4383540000000  0.5428790000000 1.0
C      1  0.6149550000000  0.5113130000000  0.4493220000000 1.0
C      1  0.4201640000000  0.3854050000000  0.4579490000000 1.0
C      1  0.5247710000000  0.4520990000000  0.5189370000000 1.0
C      1  0.5502670000000  0.4450710000000  0.5188670000000 1.0
C      1  0.4963230000000  0.5199570000000  0.3865020000000 1.0
C      1  0.4751040000000  0.4990830000000  0.5419410000000 1.0
C      1  0.5166650000000  0.4354370000000  0.5707670000000 1.0
C      1  0.4145530000000  0.5459160000000  0.4384410000000 1.0
C      1  0.4254810000000  0.5333120000000  0.4930640000000 1.0
C      1  0.5077260000000  0.5713040000000  0.5121840000000 1.0
C      1  0.4868620000000  0.5996690000000  0.4433590000000 1.0
C      1  0.5771070000000  0.5651750000000  0.4790820000000 1.0
C      1  0.4356890000000  0.5168730000000  0.4714580000000 1.0
C      1  0.4981570000000  0.5298900000000  0.4404520000000 1.0
C      1  0.6090030000000  0.5458660000000  0.5196640000000 1.0
C      1  0.5578080000000  0.4470440000000  0.4568390000000 1.0
C      1  0.5492640000000  0.4935590000000  0.5378730000000 1.0
C      1  0.4834750000000  0.4973120000000  0.3977940000000 1.0
C      1  0.5443090000000  0.5358170000000  0.4601490000000 1.0
C      1  0.5352130000000  0.4152960000000  0.5634120000000 1.0
C      1  0.4990330000000  0.4924440000000  0.4949630000000 1.0
C      1  0.5240010000000  0.4562590000000  0.5893720000000 1.0
C      1  0.5309560000000  0.4351240000000  0.3983480000000 1.0
C      1  0.4851110000000  0.5649880000000  0.6258720000000 1.0
C      1  0.4935760000000  0.4191510000000  0.4762710000000 1.0
C      1  0.5677330000000  0.4335760000000  0.5355680000000 1.0
C      1  0.5291890000000  0.6052040000000  0.4718870000000 1.0
C      1  0.5218370000000  0.5188850000000  0.3744750000000 1.0
C      1  0.4602630000000  0.5868450000000  0.4416540000000 1.0
C      1  0.5481120000000  0.5374070000000  0.5593750000000 1.0
C      1  0.4105700000000  0.5766980000000  0.5388780000000 1.0
C      1  0.4299330000000  0.6105530000000  0.4746710000000 1.0
C      1  0.5480220000000  0.6022050000000  0.4976060000000 1.0
C      1  0.5148540000000  0.5522710000000  0.5309360000000 1.0
C      1  0.5676330000000  0.3861650000000  0.5073360000000 1.0
C      1  0.5647460000000  0.5399690000000  0.4818940000000 1.0
C      1  0.6054910000000  0.5329820000000  0.4339950000000 1.0
C      1  0.3821950000000  0.4823850000000  0.4578300000000 1.0
C      1  0.5364470000000  0.5085800000000  0.5641020000000 1.0
C      1  0.4284540000000  0.5099920000000  0.3810710000000 1.0
C      1  0.5951590000000  0.5352500000000  0.5438310000000 1.0
C      1  0.5010550000000  0.4705140000000  0.5993710000000 1.0
C      1  0.4082050000000  0.5140130000000  0.5660870000000 1.0
C      1  0.4618530000000  0.5592330000000  0.4330020000000 1.0
C      1  0.4177160000000  0.5672680000000  0.4571910000000 1.0
C      1  0.4276810000000  0.4296450000000  0.4359730000000 1.0
C      1  0.4323760000000  0.4654210000000  0.4638380000000 1.0
C      1  0.6196570000000  0.5213690000000  0.5047150000000 1.0
C      1  0.4463680000000  0.4910560000000  0.5783560000000 1.0
C      1  0.3916790000000  0.5547230000000  0.5317770000000 1.0
C      1  0.5593960000000  0.5271140000000  0.5066810000000 1.0
C      1  0.5373380000000  0.5485900000000  0.4091830000000 1.0
C      1  0.5079380000000  0.5112450000000  0.5748270000000 1.0
C      1  0.4939600000000  0.4400750000000  0.5533010000000 1.0
C      1  0.4825360000000  0.3802510000000  0.5897030000000 1.0
C      1  0.3969300000000  0.5014300000000  0.5196810000000 1.0
C      1  0.5491570000000  0.5850950000000  0.5453360000000 1.0
C      1  0.4768470000000  0.5847350000000  0.6100810000000 1.0
C      1  0.4760460000000  0.4577360000000  0.5932930000000 1.0
C      1  0.3884150000000  0.4687210000000  0.4818410000000 1.0
C      1  0.4796140000000  0.5579530000000  0.4789270000000 1.0
C      1  0.4698900000000  0.4447030000000  0.5686090000000 1.0
C      1  0.5882040000000  0.4611540000000  0.4947750000000 1.0
C      1  0.4431540000000  0.5259280000000  0.4004330000000 1.0
C      1  0.4766780000000  0.3867800000000  0.5189710000000 1.0
C      1  0.5703190000000  0.5416790000000  0.5810980000000 1.0
C      1  0.6190890000000  0.4949820000000  0.5188380000000 1.0
C      1  0.4153150000000  0.4377130000000  0.4108860000000 1.0
C      1  0.4634590000000  0.5635740000000  0.5010790000000 1.0
C      1  0.3825010000000  0.4820700000000  0.5057310000000 1.0
C      1  0.5355180000000  0.5060870000000  0.4640540000000 1.0
C      1  0.4071880000000  0.4594030000000  0.5541880000000 1.0
C      1  0.4130360000000  0.5571520000000  0.4833800000000 1.0
C      1  0.5819210000000  0.5434010000000  0.4275210000000 1.0
C      1  0.6107620000000  0.4858780000000  0.4366690000000 1.0
C      1  0.5400800000000  0.4590760000000  0.4385720000000 1.0
C      1  0.4912890000000  0.5036420000000  0.5192320000000 1.0
C      1  0.4967940000000  0.4398600000000  0.4574560000000 1.0
C      1  0.4202770000000  0.5289570000000  0.5887650000000 1.0
C      1  0.5028070000000  0.4987750000000  0.6002840000000 1.0
C      1  0.5541440000000  0.5424320000000  0.4316300000000 1.0
C      1  0.5113320000000  0.5625380000000  0.4102050000000 1.0
C      1  0.5550170000000  0.4950740000000  0.5858720000000 1.0
C      1  0.5253930000000  0.3947360000000  0.5441330000000 1.0
C      1  0.5729520000000  0.3622820000000  0.4947880000000 1.0
C      1  0.5298860000000  0.5826780000000  0.4523200000000 1.0
C      1  0.4780170000000  0.3894780000000  0.5645250000000 1.0
C      1  0.4261860000000  0.5565620000000  0.5818810000000 1.0
C      1  0.5785470000000  0.5126640000000  0.5841520000000 1.0
C      1  0.4493590000000  0.4901520000000  0.5496820000000 1.0
C      1  0.4637850000000  0.5158980000000  0.4676520000000 1.0
C      1  0.4447380000000  0.4520530000000  0.4426400000000 1.0
C      1  0.4862020000000  0.4979670000000  0.4703520000000 1.0
C      1  0.4503250000000  0.3993460000000  0.5253530000000 1.0
C      1  0.4396820000000  0.5097190000000  0.5973240000000 1.0
C      1  0.5787620000000  0.5796780000000  0.5466320000000 1.0
C      1  0.5917580000000  0.5776710000000  0.5199450000000 1.0
C      1  0.4470110000000  0.4296850000000  0.5608370000000 1.0
C      1  0.5996770000000  0.4557130000000  0.5760820000000 1.0
C      1  0.5326440000000  0.5611140000000  0.5513360000000 1.0
C      1  0.4923910000000  0.5398560000000  0.6307140000000 1.0
C      1  0.5610640000000  0.4200770000000  0.4572250000000 1.0
C      1  0.5934340000000  0.4804030000000  0.5158170000000 1.0
C      1  0.5446240000000  0.3873480000000  0.5242130000000 1.0
C      1  0.4536890000000  0.4022520000000  0.5552380000000 1.0
C      1  0.6219630000000  0.5179930000000  0.4762440000000 1.0
C      1  0.5272400000000  0.4955830000000  0.4913970000000 1.0
C      1  0.6310660000000  0.4823050000000  0.5421420000000 1.0
C      1  0.5853950000000  0.4080120000000  0.5022310000000 1.0
C      1  0.4620460000000  0.4604330000000  0.4970860000000 1.0
C      1  0.4984390000000  0.5153250000000  0.6222890000000 1.0
C      1  0.5718100000000  0.4669850000000  0.4718840000000 1.0
C      1  0.4676880000000  0.5947080000000  0.5871720000000 1.0
C      1  0.5802030000000  0.4544860000000  0.4050940000000 1.0
C      1  0.5924120000000  0.5080980000000  0.5581340000000 1.0
C      1  0.5056310000000  0.5970410000000  0.5248420000000 1.0
C      1  0.4304370000000  0.4874470000000  0.5275020000000 1.0
C      1  0.5260670000000  0.5585010000000  0.4668510000000 1.0
C      1  0.5075710000000  0.5266240000000  0.5239770000000 1.0
C      1  0.5331100000000  0.4776360000000  0.4213910000000 1.0
C      1  0.4223250000000  0.4126450000000  0.4601760000000 1.0
C      1  0.4891820000000  0.5464300000000  0.3969320000000 1.0
C      1  0.4647920000000  0.4877710000000  0.4173250000000 1.0
C      1  0.5015810000000  0.6154600000000  0.4650960000000 1.0
C      1  0.4216940000000  0.5162040000000  0.4439670000000 1.0
C      1  0.5062130000000  0.5617110000000  0.4860300000000 1.0
C      1  0.5097260000000  0.5840470000000  0.4301690000000 1.0
C      1  0.5619600000000  0.4270310000000  0.5622310000000 1.0
C      1  0.4013500000000  0.4849700000000  0.5642780000000 1.0
C      1  0.4348160000000  0.5338960000000  0.5205250000000 1.0
C      1  0.4202030000000  0.6118780000000  0.4996310000000 1.0
C      1  0.5720660000000  0.4479170000000  0.5799610000000 1.0
C      1  0.5417560000000  0.5337570000000  0.3852780000000 1.0
C      1  0.5891140000000  0.5577640000000  0.5648680000000 1.0
C      1  0.5662240000000  0.5354010000000  0.5324050000000 1.0
C      1  0.3970160000000  0.4997350000000  0.4436710000000 1.0
C      1  0.5078710000000  0.5056370000000  0.4513450000000 1.0
C      1  0.5745420000000  0.5865430000000  0.4976270000000 1.0
C      1  0.5061780000000  0.4286770000000  0.4115430000000 1.0
C      1  0.4965210000000  0.3866630000000  0.4385020000000 1.0
C      1  0.6205630000000  0.4665960000000  0.5622110000000 1.0
C      1  0.5010740000000  0.4009190000000  0.4160030000000 1.0
C      1  0.4190330000000  0.4840460000000  0.3829290000000 1.0
C      1  0.5944740000000  0.4332370000000  0.4980800000000 1.0
C      1  0.4966950000000  0.3871490000000  0.5418090000000 1.0
C      1  0.5000950000000  0.4405180000000  0.5252440000000 1.0
C      1  0.4225510000000  0.5264150000000  0.5444380000000 1.0
C      1  0.5628530000000  0.4924110000000  0.4627420000000 1.0
C      1  0.4903810000000  0.4258160000000  0.5033000000000 1.0
C      1  0.5980300000000  0.4689970000000  0.4195770000000 1.0
C      1  0.3854140000000  0.5288130000000  0.5228030000000 1.0
C      1  0.4800070000000  0.5993830000000  0.5403210000000 1.0
C      1  0.4585350000000  0.5910850000000  0.5601480000000 1.0
C      1  0.4316260000000  0.5757660000000  0.5599200000000 1.0
C      1  0.5572570000000  0.4422700000000  0.3969400000000 1.0
C      1  0.4291560000000  0.4203830000000  0.5160810000000 1.0
C      1  0.4146280000000  0.4593840000000  0.3939590000000 1.0
C      1  0.4424960000000  0.4746500000000  0.5064640000000 1.0
C      1  0.4936700000000  0.3934310000000  0.4645250000000 1.0
C      1  0.4619200000000  0.5479340000000  0.4064700000000 1.0
END
