TITL C-627107-135-69 -1.55502397410958e-06 125000 -1038.64925246754 0 0 169 (C1) n - 1
REM
REM in /home/nfs/bkarasulu/CARBON/AIRSS/Generating-Clusters/LCBOP/Only-C1/SD-CG/FIRE-CG
REM
REM
REM
REM
REM
REM ./C.cell (11c1c37f851c82e70ff6c80c92926a4b)
REM AIRSS Version 0.9.1 bugfix July 2018 build 013d7b7c2542+ Fri, 06 Jul 2018 19:26:36 +0100
REM compiler GCC version 9.2.1 20190827 (Red Hat 9.2.1-1)
REM options -cpp -mtune=generic -march=x86-64 -g -O0 -fpre-include=/usr/include/finclude/math-vector-fortran.h
REM seed -1125377913 -324894645 879343 -1928021623 -1197516648 -784442824 1686601215 1583000422 -243876693 1368901718 -1380700900 -1253715703 155926452 1752115445 1567165803 -791125135 -1634716277 -308163411 1870732377 -1578732305 -593091136 2069787945 152260500 -102892431 -1952142106 56736627 -2037138114 -348952914 -164611843 216168852 -1803671548 1399322769 -2111248117
REM
CELL 1.54180   50.00000   50.00000   50.00000   90.00000   90.00000   90.00000
LATT -1
SFAC C  
C      1  0.5670410000000  0.4683270000000  0.5809760000000 1.0
C      1  0.5428740000000  0.5359740000000  0.5057520000000 1.0
C      1  0.3936240000000  0.5117640000000  0.4515200000000 1.0
C      1  0.5952110000000  0.4509830000000  0.4780130000000 1.0
C      1  0.5374270000000  0.4663900000000  0.3951070000000 1.0
C      1  0.4655150000000  0.4741770000000  0.4117170000000 1.0
C      1  0.5491190000000  0.4228730000000  0.5275560000000 1.0
C      1  0.4845110000000  0.3884470000000  0.4362780000000 1.0
C      1  0.5821200000000  0.5798240000000  0.5449690000000 1.0
C      1  0.5135230000000  0.4742790000000  0.4917840000000 1.0
C      1  0.5200710000000  0.6635620000000  0.5545880000000 1.0
C      1  0.5717740000000  0.4424290000000  0.4648580000000 1.0
C      1  0.5879050000000  0.4559870000000  0.5654260000000 1.0
C      1  0.4464230000000  0.4492130000000  0.5793900000000 1.0
C      1  0.5323200000000  0.6847500000000  0.5635420000000 1.0
C      1  0.6046930000000  0.4689120000000  0.4187200000000 1.0
C      1  0.4814070000000  0.4847260000000  0.4334000000000 1.0
C      1  0.5196620000000  0.5298700000000  0.5526110000000 1.0
C      1  0.4134990000000  0.4428510000000  0.5088200000000 1.0
C      1  0.4727100000000  0.4470610000000  0.4056890000000 1.0
C      1  0.3954370000000  0.5437400000000  0.5187540000000 1.0
C      1  0.5572940000000  0.3900250000000  0.4876470000000 1.0
C      1  0.4532260000000  0.4772190000000  0.5856210000000 1.0
C      1  0.4976740000000  0.4416500000000  0.4187990000000 1.0
C      1  0.4974820000000  0.6208900000000  0.5633800000000 1.0
C      1  0.4096500000000  0.4660090000000  0.4552650000000 1.0
C      1  0.5446760000000  0.5374860000000  0.5511870000000 1.0
C      1  0.5558030000000  0.4920410000000  0.4871580000000 1.0
C      1  0.5827600000000  0.5094550000000  0.5561060000000 1.0
C      1  0.4930740000000  0.4504940000000  0.5700040000000 1.0
C      1  0.5364330000000  0.5922620000000  0.5385120000000 1.0
C      1  0.5683660000000  0.4971680000000  0.5785590000000 1.0
C      1  0.4271980000000  0.5364290000000  0.4820730000000 1.0
C      1  0.5661750000000  0.5558190000000  0.4202840000000 1.0
C      1  0.4401330000000  0.5145580000000  0.4175860000000 1.0
C      1  0.5550530000000  0.4125150000000  0.3995260000000 1.0
C      1  0.5234780000000  0.5187540000000  0.6300390000000 1.0
C      1  0.5516350000000  0.3857320000000  0.4613900000000 1.0
C      1  0.6002800000000  0.5437040000000  0.4869170000000 1.0
C      1  0.4834290000000  0.4507100000000  0.5195760000000 1.0
C      1  0.5155200000000  0.5762460000000  0.5257380000000 1.0
C      1  0.5274650000000  0.5569150000000  0.5092070000000 1.0
C      1  0.5687120000000  0.5255250000000  0.4578980000000 1.0
C      1  0.5366520000000  0.4022660000000  0.4431340000000 1.0
C      1  0.4190100000000  0.4465590000000  0.5683010000000 1.0
C      1  0.5673860000000  0.4423050000000  0.4364220000000 1.0
C      1  0.4991760000000  0.5487980000000  0.4533200000000 1.0
C      1  0.4518230000000  0.4982960000000  0.5425120000000 1.0
C      1  0.5775860000000  0.4645780000000  0.4201030000000 1.0
C      1  0.5982470000000  0.4778480000000  0.5205810000000 1.0
C      1  0.4559720000000  0.4254640000000  0.4003990000000 1.0
C      1  0.5462930000000  0.5407350000000  0.4583160000000 1.0
C      1  0.5107230000000  0.6057810000000  0.5834010000000 1.0
C      1  0.5522640000000  0.4196490000000  0.4259440000000 1.0
C      1  0.4719760000000  0.3856760000000  0.5552300000000 1.0
C      1  0.4958640000000  0.4331310000000  0.4470180000000 1.0
C      1  0.4117530000000  0.4956600000000  0.5684000000000 1.0
C      1  0.4682590000000  0.5846300000000  0.5438130000000 1.0
C      1  0.5243680000000  0.5046780000000  0.6041730000000 1.0
C      1  0.4844760000000  0.4068130000000  0.5687640000000 1.0
C      1  0.4563110000000  0.3916050000000  0.4377610000000 1.0
C      1  0.3724840000000  0.4834540000000  0.5184710000000 1.0
C      1  0.6009750000000  0.5377180000000  0.5158090000000 1.0
C      1  0.4864190000000  0.5743440000000  0.5245300000000 1.0
C      1  0.5888220000000  0.5535580000000  0.5367980000000 1.0
C      1  0.5163210000000  0.4619700000000  0.4125110000000 1.0
C      1  0.4011660000000  0.4697880000000  0.5619000000000 1.0
C      1  0.5566280000000  0.5098860000000  0.4030770000000 1.0
C      1  0.5164470000000  0.6229780000000  0.4943290000000 1.0
C      1  0.5505170000000  0.5145980000000  0.5929440000000 1.0
C      1  0.4935440000000  0.3742130000000  0.4941570000000 1.0
C      1  0.3721590000000  0.4991480000000  0.4963450000000 1.0
C      1  0.5598530000000  0.4811580000000  0.4042040000000 1.0
C      1  0.5541280000000  0.6092250000000  0.5215290000000 1.0
C      1  0.4155860000000  0.4501100000000  0.4324650000000 1.0
C      1  0.5292190000000  0.5457980000000  0.6217480000000 1.0
C      1  0.5983700000000  0.5048420000000  0.5311490000000 1.0
C      1  0.4210390000000  0.5613820000000  0.5544900000000 1.0
C      1  0.5089980000000  0.4846610000000  0.4283970000000 1.0
C      1  0.4743920000000  0.4411230000000  0.4941660000000 1.0
C      1  0.4559540000000  0.4201070000000  0.4950870000000 1.0
C      1  0.3986560000000  0.5196320000000  0.5618430000000 1.0
C      1  0.5556260000000  0.5811300000000  0.5593510000000 1.0
C      1  0.4278100000000  0.4753670000000  0.4757510000000 1.0
C      1  0.4253760000000  0.4675140000000  0.5028460000000 1.0
C      1  0.4767870000000  0.5409800000000  0.4409080000000 1.0
C      1  0.4740160000000  0.5621970000000  0.5008390000000 1.0
C      1  0.5459490000000  0.5700940000000  0.5838700000000 1.0
C      1  0.5070830000000  0.5583420000000  0.6066600000000 1.0
C      1  0.5066190000000  0.6050110000000  0.4733920000000 1.0
C      1  0.5183330000000  0.4392540000000  0.5791960000000 1.0
C      1  0.3814090000000  0.4712010000000  0.5410170000000 1.0
C      1  0.4766310000000  0.4879940000000  0.5972090000000 1.0
C      1  0.4157500000000  0.5211480000000  0.4338220000000 1.0
C      1  0.5721380000000  0.5353530000000  0.5512390000000 1.0
C      1  0.5518810000000  0.6001120000000  0.4739240000000 1.0
C      1  0.4399780000000  0.4953870000000  0.5681440000000 1.0
C      1  0.5524500000000  0.5114310000000  0.5048580000000 1.0
C      1  0.4974550000000  0.5081450000000  0.5884490000000 1.0
C      1  0.4809660000000  0.5982620000000  0.4635600000000 1.0
C      1  0.4384720000000  0.4839880000000  0.5218530000000 1.0
C      1  0.5166700000000  0.5439960000000  0.4025020000000 1.0
C      1  0.4789250000000  0.5987780000000  0.4353550000000 1.0
C      1  0.5055850000000  0.6356850000000  0.5169950000000 1.0
C      1  0.5389350000000  0.4719340000000  0.5369240000000 1.0
C      1  0.5529530000000  0.4146170000000  0.5006720000000 1.0
C      1  0.4405150000000  0.4865620000000  0.4083100000000 1.0
C      1  0.4453930000000  0.5712310000000  0.5518760000000 1.0
C      1  0.4371060000000  0.5466470000000  0.6122730000000 1.0
C      1  0.4159560000000  0.4047600000000  0.4561320000000 1.0
C      1  0.4712280000000  0.5336160000000  0.4968130000000 1.0
C      1  0.5283660000000  0.4946090000000  0.4449360000000 1.0
C      1  0.5956360000000  0.5648560000000  0.4660330000000 1.0
C      1  0.4643170000000  0.3742450000000  0.5322620000000 1.0
C      1  0.4896050000000  0.5130420000000  0.3740540000000 1.0
C      1  0.4811700000000  0.4502200000000  0.4673070000000 1.0
C      1  0.5835120000000  0.5652120000000  0.4403870000000 1.0
C      1  0.5277210000000  0.4526970000000  0.4853460000000 1.0
C      1  0.5100350000000  0.5720200000000  0.4038050000000 1.0
C      1  0.5078380000000  0.6403700000000  0.5451190000000 1.0
C      1  0.4024390000000  0.5424940000000  0.5458810000000 1.0
C      1  0.4510930000000  0.3931830000000  0.4886280000000 1.0
C      1  0.4775040000000  0.5099100000000  0.5390050000000 1.0
C      1  0.4705430000000  0.4327810000000  0.5748020000000 1.0
C      1  0.4198900000000  0.4223210000000  0.4335150000000 1.0
C      1  0.3886060000000  0.4838710000000  0.4492490000000 1.0
C      1  0.5508280000000  0.5447690000000  0.5996410000000 1.0
C      1  0.4508710000000  0.4925690000000  0.4711400000000 1.0
C      1  0.4888530000000  0.4989390000000  0.3521550000000 1.0
C      1  0.4013550000000  0.5366320000000  0.4923760000000 1.0
C      1  0.4939900000000  0.4610970000000  0.5436880000000 1.0
C      1  0.6034510000000  0.4737220000000  0.4924990000000 1.0
C      1  0.5023430000000  0.4972900000000  0.4988540000000 1.0
C      1  0.4427570000000  0.4102920000000  0.4197670000000 1.0
C      1  0.4724460000000  0.4774120000000  0.4592740000000 1.0
C      1  0.6068270000000  0.4967330000000  0.4765500000000 1.0
C      1  0.4606810000000  0.5430070000000  0.6017480000000 1.0
C      1  0.4931040000000  0.5901680000000  0.4141390000000 1.0
C      1  0.4915150000000  0.5276690000000  0.3980010000000 1.0
C      1  0.4677430000000  0.5286940000000  0.4167110000000 1.0
C      1  0.5812200000000  0.6027030000000  0.5277650000000 1.0
C      1  0.5473110000000  0.4883270000000  0.4622320000000 1.0
C      1  0.5150510000000  0.4119420000000  0.5676800000000 1.0
C      1  0.4129420000000  0.4233040000000  0.5532980000000 1.0
C      1  0.4666520000000  0.5807590000000  0.4805020000000 1.0
C      1  0.5462000000000  0.5368720000000  0.4075050000000 1.0
C      1  0.5930250000000  0.5203210000000  0.4714680000000 1.0
C      1  0.4855970000000  0.5152140000000  0.5120670000000 1.0
C      1  0.5139560000000  0.4815750000000  0.5453300000000 1.0
C      1  0.5066530000000  0.4044370000000  0.4505750000000 1.0
C      1  0.5848970000000  0.4577270000000  0.5369220000000 1.0
C      1  0.5017320000000  0.5071480000000  0.5573480000000 1.0
C      1  0.4506690000000  0.5209670000000  0.4810170000000 1.0
C      1  0.5249090000000  0.5592560000000  0.4580620000000 1.0
C      1  0.5055690000000  0.3918350000000  0.4779950000000 1.0
C      1  0.4732460000000  0.6094940000000  0.5552920000000 1.0
C      1  0.5500610000000  0.4363840000000  0.4822460000000 1.0
C      1  0.5334290000000  0.4079960000000  0.5462180000000 1.0
C      1  0.4672980000000  0.3756420000000  0.5043220000000 1.0
C      1  0.5571610000000  0.4505730000000  0.5320050000000 1.0
C      1  0.5426170000000  0.4530960000000  0.5859770000000 1.0
C      1  0.4095800000000  0.4232000000000  0.5265840000000 1.0
C      1  0.4401270000000  0.3896470000000  0.4626990000000 1.0
C      1  0.4196880000000  0.4671860000000  0.4096750000000 1.0
C      1  0.3846840000000  0.5183490000000  0.4788270000000 1.0
C      1  0.5451400000000  0.6168180000000  0.4962130000000 1.0
C      1  0.5284140000000  0.5869430000000  0.4638650000000 1.0
C      1  0.5190950000000  0.5801920000000  0.5916570000000 1.0
C      1  0.4878450000000  0.5386200000000  0.5975570000000 1.0
END
