TITL C-627109-622-1021 -7.47923148502379e-07 125000 -1068.43661093707 0 0 169 (C1) n - 1
REM
REM in /home/nfs/bkarasulu/CARBON/AIRSS/Generating-Clusters/LCBOP/Only-C1/SD-CG/FIRE-CG
REM
REM
REM
REM
REM
REM ./C.cell (11c1c37f851c82e70ff6c80c92926a4b)
REM AIRSS Version 0.9.1 bugfix July 2018 build 013d7b7c2542+ Fri, 06 Jul 2018 19:26:36 +0100
REM compiler GCC version 9.2.1 20190827 (Red Hat 9.2.1-1)
REM options -cpp -mtune=generic -march=x86-64 -g -O0 -fpre-include=/usr/include/finclude/math-vector-fortran.h
REM seed -246022310 1962863770 2044432750 -1691358665 -1952090801 1034552889 -140314636 1352067079 1501450428 1500064927 1458907480 1695381502 609257525 -678138358 -1201436487 602050802 1633631118 252109971 -1661629801 -1063908512 1550134905 -1349448564 1802018217 -1276965035 192839828 2076818329 -326907188 1715727173 230716876 1734404780 1863461235 -1583273869 -1273865816
REM
CELL 1.54180   50.00000   50.00000   50.00000   90.00000   90.00000   90.00000
LATT -1
SFAC C  
C      1  0.4542000000000  0.6025730000000  0.5138950000000 1.0
C      1  0.5100230000000  0.4377740000000  0.4481980000000 1.0
C      1  0.5165870000000  0.5956470000000  0.4122290000000 1.0
C      1  0.6156870000000  0.4572050000000  0.5116410000000 1.0
C      1  0.3677710000000  0.4380840000000  0.4850570000000 1.0
C      1  0.4832210000000  0.4411650000000  0.4373260000000 1.0
C      1  0.5093290000000  0.4729000000000  0.4091660000000 1.0
C      1  0.5491970000000  0.5777520000000  0.4713150000000 1.0
C      1  0.4429620000000  0.4859630000000  0.4008550000000 1.0
C      1  0.4786170000000  0.5375190000000  0.4054340000000 1.0
C      1  0.5764820000000  0.5837870000000  0.5140250000000 1.0
C      1  0.4580810000000  0.5039910000000  0.4686960000000 1.0
C      1  0.5189130000000  0.4986750000000  0.4185070000000 1.0
C      1  0.4952520000000  0.5293070000000  0.4840760000000 1.0
C      1  0.5442610000000  0.5097650000000  0.4743930000000 1.0
C      1  0.5081630000000  0.4556710000000  0.6080180000000 1.0
C      1  0.4371160000000  0.5060400000000  0.4206860000000 1.0
C      1  0.5284410000000  0.5137690000000  0.3963220000000 1.0
C      1  0.4639850000000  0.4297240000000  0.5793400000000 1.0
C      1  0.5012720000000  0.4437630000000  0.5016890000000 1.0
C      1  0.5512130000000  0.5263210000000  0.4960520000000 1.0
C      1  0.5050380000000  0.4806420000000  0.4742780000000 1.0
C      1  0.4051960000000  0.4128120000000  0.5429120000000 1.0
C      1  0.4220000000000  0.4901050000000  0.5757820000000 1.0
C      1  0.5874350000000  0.4831180000000  0.4812160000000 1.0
C      1  0.4714840000000  0.6111120000000  0.4923360000000 1.0
C      1  0.5777230000000  0.5219620000000  0.5562470000000 1.0
C      1  0.4625750000000  0.4096860000000  0.4726460000000 1.0
C      1  0.5355760000000  0.5402160000000  0.3939210000000 1.0
C      1  0.4373300000000  0.5605790000000  0.4568380000000 1.0
C      1  0.5897370000000  0.5500320000000  0.4707000000000 1.0
C      1  0.5311010000000  0.5983470000000  0.5364280000000 1.0
C      1  0.4854370000000  0.4694100000000  0.5972390000000 1.0
C      1  0.3876190000000  0.4447920000000  0.4679080000000 1.0
C      1  0.5235750000000  0.4199760000000  0.5538380000000 1.0
C      1  0.5308540000000  0.5285900000000  0.5150810000000 1.0
C      1  0.3749370000000  0.5559070000000  0.5211590000000 1.0
C      1  0.4809280000000  0.5621810000000  0.5925520000000 1.0
C      1  0.4852670000000  0.5295630000000  0.3794450000000 1.0
C      1  0.5516340000000  0.4112390000000  0.4560750000000 1.0
C      1  0.5265910000000  0.5711530000000  0.5729330000000 1.0
C      1  0.5724200000000  0.4165460000000  0.5028230000000 1.0
C      1  0.5082390000000  0.3928520000000  0.4622470000000 1.0
C      1  0.5672040000000  0.5599180000000  0.4558340000000 1.0
C      1  0.4808800000000  0.5218070000000  0.4295830000000 1.0
C      1  0.4864150000000  0.5290350000000  0.3533720000000 1.0
C      1  0.5606240000000  0.5950890000000  0.4927270000000 1.0
C      1  0.4454650000000  0.5172910000000  0.5252110000000 1.0
C      1  0.4834420000000  0.4600300000000  0.4157240000000 1.0
C      1  0.5498470000000  0.5590790000000  0.4085460000000 1.0
C      1  0.4670430000000  0.5293410000000  0.4799640000000 1.0
C      1  0.5441050000000  0.3781660000000  0.5389670000000 1.0
C      1  0.4798390000000  0.4971190000000  0.5987810000000 1.0
C      1  0.5949070000000  0.4652380000000  0.6051020000000 1.0
C      1  0.4376640000000  0.5347850000000  0.5671850000000 1.0
C      1  0.4882840000000  0.4581940000000  0.5495200000000 1.0
C      1  0.4163750000000  0.5449790000000  0.4440030000000 1.0
C      1  0.5645170000000  0.4598520000000  0.4324100000000 1.0
C      1  0.5546070000000  0.4421140000000  0.5939080000000 1.0
C      1  0.6041770000000  0.5260450000000  0.4666890000000 1.0
C      1  0.4001820000000  0.4185860000000  0.5161490000000 1.0
C      1  0.4942730000000  0.6282070000000  0.4960580000000 1.0
C      1  0.5241560000000  0.4129720000000  0.4507350000000 1.0
C      1  0.4125950000000  0.5456110000000  0.5515470000000 1.0
C      1  0.4889490000000  0.4011200000000  0.4801960000000 1.0
C      1  0.3752120000000  0.5064240000000  0.5206990000000 1.0
C      1  0.4722590000000  0.5954030000000  0.4684170000000 1.0
C      1  0.4596200000000  0.5257670000000  0.5493570000000 1.0
C      1  0.3927680000000  0.5387970000000  0.4577080000000 1.0
C      1  0.5198080000000  0.5792940000000  0.4748990000000 1.0
C      1  0.4603770000000  0.4298060000000  0.4517590000000 1.0
C      1  0.5609670000000  0.4868570000000  0.4707410000000 1.0
C      1  0.5672910000000  0.4476280000000  0.5423220000000 1.0
C      1  0.6048440000000  0.5192730000000  0.4390550000000 1.0
C      1  0.5729450000000  0.4461790000000  0.5700280000000 1.0
C      1  0.5125480000000  0.5097290000000  0.4676950000000 1.0
C      1  0.6192290000000  0.4802190000000  0.5282570000000 1.0
C      1  0.4535440000000  0.5828170000000  0.4489780000000 1.0
C      1  0.5492150000000  0.4666070000000  0.4549260000000 1.0
C      1  0.5713730000000  0.4538690000000  0.6149460000000 1.0
C      1  0.5642720000000  0.4960430000000  0.3772840000000 1.0
C      1  0.3735100000000  0.5312360000000  0.5066070000000 1.0
C      1  0.6049250000000  0.5055180000000  0.4864340000000 1.0
C      1  0.5683560000000  0.4117940000000  0.4769140000000 1.0
C      1  0.4995360000000  0.5896030000000  0.4577450000000 1.0
C      1  0.5635070000000  0.4230420000000  0.5284580000000 1.0
C      1  0.4474690000000  0.4119210000000  0.4988610000000 1.0
C      1  0.5695780000000  0.5240020000000  0.5829910000000 1.0
C      1  0.5799190000000  0.4748240000000  0.4163430000000 1.0
C      1  0.4749100000000  0.3963710000000  0.5460710000000 1.0
C      1  0.6088050000000  0.5511330000000  0.5282900000000 1.0
C      1  0.4258090000000  0.5381130000000  0.5226310000000 1.0
C      1  0.6196440000000  0.5048420000000  0.5118190000000 1.0
C      1  0.4826710000000  0.4094000000000  0.5716520000000 1.0
C      1  0.6043240000000  0.4806270000000  0.5537390000000 1.0
C      1  0.5795270000000  0.4952830000000  0.5460990000000 1.0
C      1  0.5212880000000  0.6307200000000  0.4954790000000 1.0
C      1  0.4421320000000  0.4913200000000  0.5133420000000 1.0
C      1  0.4955240000000  0.5891000000000  0.4290460000000 1.0
C      1  0.5239210000000  0.5038880000000  0.5267910000000 1.0
C      1  0.5462510000000  0.6199640000000  0.4949950000000 1.0
C      1  0.4087450000000  0.4827460000000  0.5508410000000 1.0
C      1  0.5372110000000  0.4787810000000  0.5224490000000 1.0
C      1  0.4353700000000  0.5130890000000  0.5868460000000 1.0
C      1  0.4799830000000  0.3685990000000  0.5444590000000 1.0
C      1  0.5227100000000  0.4538800000000  0.5191120000000 1.0
C      1  0.3758150000000  0.5123630000000  0.5676280000000 1.0
C      1  0.4656780000000  0.4698460000000  0.3939400000000 1.0
C      1  0.5668210000000  0.5480430000000  0.4284210000000 1.0
C      1  0.4747700000000  0.4554700000000  0.5745250000000 1.0
C      1  0.5623030000000  0.4751680000000  0.5342270000000 1.0
C      1  0.3832840000000  0.4957390000000  0.5458710000000 1.0
C      1  0.5131590000000  0.4441410000000  0.5441860000000 1.0
C      1  0.5060640000000  0.5128260000000  0.4386030000000 1.0
C      1  0.6041970000000  0.5748910000000  0.5126140000000 1.0
C      1  0.4676140000000  0.5431120000000  0.6069890000000 1.0
C      1  0.4688300000000  0.4100130000000  0.5207520000000 1.0
C      1  0.5129040000000  0.4748370000000  0.3787730000000 1.0
C      1  0.5277610000000  0.3570140000000  0.5390260000000 1.0
C      1  0.5671370000000  0.5694240000000  0.5390060000000 1.0
C      1  0.4146080000000  0.4373300000000  0.4718810000000 1.0
C      1  0.5210270000000  0.5207150000000  0.5923680000000 1.0
C      1  0.5106180000000  0.5713540000000  0.5016790000000 1.0
C      1  0.3913390000000  0.5340340000000  0.5717310000000 1.0
C      1  0.5113620000000  0.4152000000000  0.5794260000000 1.0
C      1  0.4159200000000  0.4165270000000  0.5669010000000 1.0
C      1  0.4877800000000  0.5842740000000  0.5464320000000 1.0
C      1  0.3929300000000  0.5660280000000  0.5392310000000 1.0
C      1  0.4854050000000  0.4701250000000  0.4969420000000 1.0
C      1  0.5014090000000  0.3528150000000  0.5413670000000 1.0
C      1  0.4609140000000  0.5598490000000  0.4063070000000 1.0
C      1  0.5443180000000  0.4059990000000  0.5409020000000 1.0
C      1  0.5407820000000  0.5854270000000  0.4071710000000 1.0
C      1  0.5469720000000  0.5230330000000  0.5967850000000 1.0
C      1  0.4928550000000  0.4168370000000  0.5043200000000 1.0
C      1  0.4646780000000  0.5987920000000  0.5400140000000 1.0
C      1  0.4210370000000  0.4225020000000  0.4965770000000 1.0
C      1  0.4580640000000  0.5154120000000  0.6045400000000 1.0
C      1  0.4580920000000  0.4838560000000  0.4896500000000 1.0
C      1  0.4325500000000  0.5577950000000  0.5038720000000 1.0
C      1  0.4346200000000  0.4414030000000  0.4523380000000 1.0
C      1  0.5842900000000  0.5463700000000  0.5434470000000 1.0
C      1  0.5777390000000  0.4999390000000  0.4029270000000 1.0
C      1  0.4974140000000  0.5727860000000  0.5716510000000 1.0
C      1  0.4858850000000  0.5174260000000  0.5555660000000 1.0
C      1  0.4342790000000  0.5513690000000  0.4009950000000 1.0
C      1  0.6259150000000  0.5298900000000  0.5228960000000 1.0
C      1  0.4580340000000  0.5072870000000  0.4402920000000 1.0
C      1  0.5828960000000  0.5235130000000  0.4207280000000 1.0
C      1  0.4324920000000  0.5855740000000  0.5081150000000 1.0
C      1  0.4467140000000  0.5490270000000  0.4811080000000 1.0
C      1  0.4847860000000  0.4780960000000  0.5289900000000 1.0
C      1  0.5355190000000  0.4940620000000  0.3758070000000 1.0
C      1  0.4368780000000  0.4240410000000  0.5814560000000 1.0
C      1  0.4682280000000  0.5808080000000  0.4236600000000 1.0
C      1  0.5078520000000  0.5866980000000  0.5256340000000 1.0
C      1  0.3779870000000  0.5324180000000  0.4789250000000 1.0
C      1  0.5454280000000  0.5804540000000  0.5532090000000 1.0
C      1  0.4234050000000  0.5320710000000  0.4191240000000 1.0
C      1  0.5990000000000  0.4587180000000  0.4900660000000 1.0
C      1  0.3737240000000  0.4247310000000  0.5078470000000 1.0
C      1  0.5972440000000  0.4631470000000  0.5762680000000 1.0
C      1  0.4244380000000  0.4751720000000  0.5284010000000 1.0
C      1  0.4975730000000  0.5020190000000  0.5355610000000 1.0
C      1  0.4969030000000  0.5127530000000  0.5814410000000 1.0
C      1  0.5255980000000  0.4353140000000  0.5970670000000 1.0
C      1  0.5216310000000  0.4610370000000  0.4597300000000 1.0
C      1  0.5089900000000  0.5434650000000  0.5043650000000 1.0
C      1  0.4846270000000  0.4723190000000  0.3709060000000 1.0
END
