TITL C-627106-156-1219 0.0249542411574156 125000 -628.538888186394 0 0 104 (C1) n - 1
REM
REM in /home/nfs/bkarasulu/CARBON/AIRSS/Generating-Clusters/LCBOP/Only-C1/SD-CG/FIRE-CG
REM
REM
REM
REM
REM
REM ./C.cell (11c1c37f851c82e70ff6c80c92926a4b)
REM AIRSS Version 0.9.1 bugfix July 2018 build 013d7b7c2542+ Fri, 06 Jul 2018 19:26:36 +0100
REM compiler GCC version 9.2.1 20190827 (Red Hat 9.2.1-1)
REM options -cpp -mtune=generic -march=x86-64 -g -O0 -fpre-include=/usr/include/finclude/math-vector-fortran.h
REM seed -291594838 -583345645 -1189255452 1158401026 -1996238106 2049289111 -597166325 801242742 -429144564 1189456992 1242396707 2068817051 1547523986 -1610513460 -1652057061 -900892415 -855174201 2035384509 -16373842 9754467 1194511769 1637183510 -1406350441 502862026 -1822796759 262044681 -2023804566 914073857 -80922418 1217081551 164432430 1167155323 741915429
REM
CELL 1.54180   50.00000   50.00000   50.00000   90.00000   90.00000   90.00000
LATT -1
SFAC C  
C      1  0.4792620000000  0.5171650000000  0.5290750000000 1.0
C      1  0.5812610000000  0.5057280000000  0.4715900000000 1.0
C      1  0.5278860000000  0.4844840000000  0.6045290000000 1.0
C      1  0.4735950000000  0.4598100000000  0.4327310000000 1.0
C      1  0.4319230000000  0.5416550000000  0.5629050000000 1.0
C      1  0.5137450000000  0.5070230000000  0.6014030000000 1.0
C      1  0.5237820000000  0.5350750000000  0.5174630000000 1.0
C      1  0.4071540000000  0.5016670000000  0.5547750000000 1.0
C      1  0.4580510000000  0.5647680000000  0.4839080000000 1.0
C      1  0.5051160000000  0.3840650000000  0.5035980000000 1.0
C      1  0.5299410000000  0.5274130000000  0.5455750000000 1.0
C      1  0.4749270000000  0.5367400000000  0.5844470000000 1.0
C      1  0.5120480000000  0.4079860000000  0.4946120000000 1.0
C      1  0.4826620000000  0.6149750000000  0.4387310000000 1.0
C      1  0.5344640000000  0.4846330000000  0.4696080000000 1.0
C      1  0.4743740000000  0.5624090000000  0.5684680000000 1.0
C      1  0.5221490000000  0.5155910000000  0.4121070000000 1.0
C      1  0.5408990000000  0.4625460000000  0.5962560000000 1.0
C      1  0.5219190000000  0.4795050000000  0.5521110000000 1.0
C      1  0.4479210000000  0.4389150000000  0.4698910000000 1.0
C      1  0.4906960000000  0.4830690000000  0.4301790000000 1.0
C      1  0.5302760000000  0.5712060000000  0.4639570000000 1.0
C      1  0.5066140000000  0.6139690000000  0.5505750000000 1.0
C      1  0.3802930000000  0.5027490000000  0.4939890000000 1.0
C      1  0.5470050000000  0.4962390000000  0.5149460000000 1.0
C      1  0.5380660000000  0.4995280000000  0.5419250000000 1.0
C      1  0.4901880000000  0.4761230000000  0.4877100000000 1.0
C      1  0.5346820000000  0.4685970000000  0.4132880000000 1.0
C      1  0.5110700000000  0.5876710000000  0.5413830000000 1.0
C      1  0.4521090000000  0.5205310000000  0.5220720000000 1.0
C      1  0.4986850000000  0.3601530000000  0.5117500000000 1.0
C      1  0.4255740000000  0.4488100000000  0.4848260000000 1.0
C      1  0.5162230000000  0.5366390000000  0.4305900000000 1.0
C      1  0.5454580000000  0.5230550000000  0.5023940000000 1.0
C      1  0.4585380000000  0.5932530000000  0.4821630000000 1.0
C      1  0.5576900000000  0.4382210000000  0.4441610000000 1.0
C      1  0.4506600000000  0.5226070000000  0.5768060000000 1.0
C      1  0.4293210000000  0.4836170000000  0.5550180000000 1.0
C      1  0.4150160000000  0.4829490000000  0.4506930000000 1.0
C      1  0.5507910000000  0.4747660000000  0.4939810000000 1.0
C      1  0.5578700000000  0.4615330000000  0.4276210000000 1.0
C      1  0.5269880000000  0.5811150000000  0.4888070000000 1.0
C      1  0.4405880000000  0.5029450000000  0.5059580000000 1.0
C      1  0.5668540000000  0.5269380000000  0.4845600000000 1.0
C      1  0.5795750000000  0.4802140000000  0.4851500000000 1.0
C      1  0.4842550000000  0.5041230000000  0.4489330000000 1.0
C      1  0.5354990000000  0.5548150000000  0.4413050000000 1.0
C      1  0.4150470000000  0.5309630000000  0.4744000000000 1.0
C      1  0.4268780000000  0.4497040000000  0.5132920000000 1.0
C      1  0.4780710000000  0.4220320000000  0.5572370000000 1.0
C      1  0.4949440000000  0.4503450000000  0.4766850000000 1.0
C      1  0.4777050000000  0.4951640000000  0.5483920000000 1.0
C      1  0.4613500000000  0.6317820000000  0.5430620000000 1.0
C      1  0.6237890000000  0.3933550000000  0.4528860000000 1.0
C      1  0.6205020000000  0.4489120000000  0.5017120000000 1.0
C      1  0.5145230000000  0.4879790000000  0.4149160000000 1.0
C      1  0.4697500000000  0.6058860000000  0.4600040000000 1.0
C      1  0.3840350000000  0.4770560000000  0.4863600000000 1.0
C      1  0.6748720000000  0.3966840000000  0.5254190000000 1.0
C      1  0.4002400000000  0.5369170000000  0.5225670000000 1.0
C      1  0.4478220000000  0.4997930000000  0.4794440000000 1.0
C      1  0.5023200000000  0.5278660000000  0.5867300000000 1.0
C      1  0.5205310000000  0.4337660000000  0.4815440000000 1.0
C      1  0.5479760000000  0.4365060000000  0.5259600000000 1.0
C      1  0.5494360000000  0.4452570000000  0.5776070000000 1.0
C      1  0.4054960000000  0.4654410000000  0.4718180000000 1.0
C      1  0.4535560000000  0.4966080000000  0.5643250000000 1.0
C      1  0.4869270000000  0.6321040000000  0.5511890000000 1.0
C      1  0.4957050000000  0.5344760000000  0.5126000000000 1.0
C      1  0.4924800000000  0.5305920000000  0.4444390000000 1.0
C      1  0.4949090000000  0.4731950000000  0.5510860000000 1.0
C      1  0.5832880000000  0.5058510000000  0.4431370000000 1.0
C      1  0.6390240000000  0.4321380000000  0.5105240000000 1.0
C      1  0.4261210000000  0.5066490000000  0.4620400000000 1.0
C      1  0.4384920000000  0.5895660000000  0.5469330000000 1.0
C      1  0.6028290000000  0.4087110000000  0.4507800000000 1.0
C      1  0.5167290000000  0.5421540000000  0.5655870000000 1.0
C      1  0.4475500000000  0.6078620000000  0.5033610000000 1.0
C      1  0.4101510000000  0.5295150000000  0.5483090000000 1.0
C      1  0.4250220000000  0.4722900000000  0.4267110000000 1.0
C      1  0.5015020000000  0.5663710000000  0.5579360000000 1.0
C      1  0.5516240000000  0.4361330000000  0.5524890000000 1.0
C      1  0.6571410000000  0.4143770000000  0.5181950000000 1.0
C      1  0.4471150000000  0.5662390000000  0.5592820000000 1.0
C      1  0.5199390000000  0.4090170000000  0.4384460000000 1.0
C      1  0.5213880000000  0.5849880000000  0.5149150000000 1.0
C      1  0.5778330000000  0.4814490000000  0.4300460000000 1.0
C      1  0.4486150000000  0.4615230000000  0.4193630000000 1.0
C      1  0.4746330000000  0.4953480000000  0.4737180000000 1.0
C      1  0.4858890000000  0.4469370000000  0.5527340000000 1.0
C      1  0.4806260000000  0.5511760000000  0.4948810000000 1.0
C      1  0.3960060000000  0.5264200000000  0.4962060000000 1.0
C      1  0.4460260000000  0.6114510000000  0.5310650000000 1.0
C      1  0.4337500000000  0.5522850000000  0.4762210000000 1.0
C      1  0.5619650000000  0.5508510000000  0.4322250000000 1.0
C      1  0.5798950000000  0.5308990000000  0.4307410000000 1.0
C      1  0.4734800000000  0.4445000000000  0.4578670000000 1.0
C      1  0.4286420000000  0.4613710000000  0.5374870000000 1.0
C      1  0.4689610000000  0.3982250000000  0.5626890000000 1.0
C      1  0.5408730000000  0.4474640000000  0.5008330000000 1.0
C      1  0.5331990000000  0.4273270000000  0.4542890000000 1.0
C      1  0.6011100000000  0.4641580000000  0.4920730000000 1.0
C      1  0.5814920000000  0.4242790000000  0.4487150000000 1.0
C      1  0.4965620000000  0.6225010000000  0.4180010000000 1.0
END
