TITL C-627113-6568-1501 0.00786764102684785 125000 -56.4089686368347 0 0 11 (C2v) n - 1
REM
REM in /home/nfs/bkarasulu/CARBON/AIRSS/Generating-Clusters/LCBOP/Only-C1/SD-CG/FIRE-CG
REM
REM
REM
REM
REM
REM ./C.cell (11c1c37f851c82e70ff6c80c92926a4b)
REM AIRSS Version 0.9.1 bugfix July 2018 build 013d7b7c2542+ Fri, 06 Jul 2018 19:26:36 +0100
REM compiler GCC version 9.2.1 20190827 (Red Hat 9.2.1-1)
REM options -cpp -mtune=generic -march=x86-64 -g -O0 -fpre-include=/usr/include/finclude/math-vector-fortran.h
REM seed -180497945 -1770709265 -670785515 837793926 -318640494 -343455043 -1320702199 -627153620 76896298 2018848293 -621926803 668548601 -1473133546 1711577209 277497339 1999509720 384499137 286313017 -2018729470 930246020 -1331321368 -826769722 -1272926767 547843976 1608594018 766803901 486342351 -235732733 -1296314211 1511695908 -29466973 -98969619 -541039287
REM
CELL 1.54180   50.00000   50.00000   50.00000   90.00000   90.00000   90.00000
LATT -1
SFAC C  
C      1  0.5337010000000  0.4649220000000  0.5303980000000 1.0
C      1  0.5507220000000  0.4503340000000  0.5437060000000 1.0
C      1  0.4713420000000  0.4881400000000  0.5013940000000 1.0
C      1  0.5070560000000  0.5184930000000  0.4894800000000 1.0
C      1  0.4457770000000  0.4812890000000  0.5002010000000 1.0
C      1  0.5158620000000  0.5415740000000  0.4763500000000 1.0
C      1  0.4982690000000  0.4954630000000  0.5025810000000 1.0
C      1  0.4206200000000  0.4745530000000  0.4990230000000 1.0
C      1  0.5164070000000  0.4797510000000  0.5168720000000 1.0
C      1  0.4979520000000  0.5568670000000  0.4623830000000 1.0
C      1  0.5422920000000  0.5486130000000  0.4776130000000 1.0
END
