TITL C-627110-360-1054 -9.98941172073976e-08 125000 -376.162902535313 0 0 63 (C1) n - 1
REM
REM in /home/nfs/bkarasulu/CARBON/AIRSS/Generating-Clusters/LCBOP/Only-C1/SD-CG/FIRE-CG
REM
REM
REM
REM
REM
REM ./C.cell (11c1c37f851c82e70ff6c80c92926a4b)
REM AIRSS Version 0.9.1 bugfix July 2018 build 013d7b7c2542+ Fri, 06 Jul 2018 19:26:36 +0100
REM compiler GCC version 9.2.1 20190827 (Red Hat 9.2.1-1)
REM options -cpp -mtune=generic -march=x86-64 -g -O0 -fpre-include=/usr/include/finclude/math-vector-fortran.h
REM seed 1952361703 1209751672 -1275966925 1504820641 353053668 -1565938036 -572816720 278219004 -1771239826 -1092305616 430173394 -108159016 -672855554 -1402405184 1128189208 1412357972 750887180 63095736 -1189372646 1757147018 -1284217088 654381024 -1839177044 -235895066 -594714653 1778525367 296752871 -1701330709 1607723076 -1456418550 -694558582 -1800348497 -1605593798
REM
CELL 1.54180   50.00000   50.00000   50.00000   90.00000   90.00000   90.00000
LATT -1
SFAC C  
C      1  0.4224540000000  0.4740960000000  0.4697150000000 1.0
C      1  0.5372010000000  0.5728150000000  0.4727620000000 1.0
C      1  0.5340210000000  0.5028340000000  0.5741960000000 1.0
C      1  0.4589950000000  0.4953010000000  0.4836240000000 1.0
C      1  0.5663530000000  0.4586120000000  0.5253630000000 1.0
C      1  0.5527190000000  0.5328600000000  0.5266890000000 1.0
C      1  0.4517070000000  0.4641380000000  0.5484690000000 1.0
C      1  0.5574170000000  0.5285510000000  0.4587860000000 1.0
C      1  0.4612470000000  0.5408400000000  0.4975030000000 1.0
C      1  0.5478140000000  0.4666400000000  0.5464330000000 1.0
C      1  0.5109760000000  0.4950880000000  0.5035270000000 1.0
C      1  0.5369160000000  0.4162190000000  0.5187410000000 1.0
C      1  0.5031110000000  0.5472270000000  0.5484370000000 1.0
C      1  0.4520400000000  0.4590750000000  0.4381290000000 1.0
C      1  0.4451350000000  0.4937900000000  0.5474200000000 1.0
C      1  0.4996520000000  0.4556030000000  0.5547900000000 1.0
C      1  0.4032840000000  0.4846890000000  0.4873300000000 1.0
C      1  0.5130200000000  0.5844580000000  0.4816820000000 1.0
C      1  0.5103690000000  0.4407610000000  0.4488120000000 1.0
C      1  0.4352050000000  0.4831380000000  0.4437270000000 1.0
C      1  0.5614710000000  0.4986860000000  0.4178300000000 1.0
C      1  0.4982110000000  0.4485450000000  0.4969020000000 1.0
C      1  0.4913060000000  0.4452350000000  0.4695300000000 1.0
C      1  0.5402120000000  0.4779570000000  0.4283720000000 1.0
C      1  0.4484820000000  0.4679240000000  0.4834360000000 1.0
C      1  0.4914720000000  0.6025140000000  0.5248550000000 1.0
C      1  0.4918960000000  0.5035210000000  0.4200760000000 1.0
C      1  0.5588260000000  0.4326240000000  0.5160120000000 1.0
C      1  0.5648050000000  0.5076520000000  0.5338850000000 1.0
C      1  0.4208590000000  0.4995790000000  0.5335080000000 1.0
C      1  0.4993280000000  0.5208660000000  0.4632270000000 1.0
C      1  0.5098590000000  0.5996100000000  0.5054030000000 1.0
C      1  0.5438040000000  0.5059100000000  0.4700800000000 1.0
C      1  0.5620910000000  0.5460660000000  0.5034720000000 1.0
C      1  0.4609280000000  0.5697980000000  0.5500660000000 1.0
C      1  0.4802510000000  0.5128950000000  0.4437700000000 1.0
C      1  0.4711820000000  0.5923660000000  0.5392580000000 1.0
C      1  0.4755300000000  0.4484580000000  0.5407730000000 1.0
C      1  0.5097930000000  0.4131740000000  0.5229980000000 1.0
C      1  0.4883740000000  0.5750820000000  0.4716210000000 1.0
C      1  0.5533330000000  0.4930560000000  0.5566200000000 1.0
C      1  0.4641100000000  0.4510730000000  0.4637890000000 1.0
C      1  0.4735600000000  0.5447400000000  0.5533550000000 1.0
C      1  0.4896130000000  0.5037550000000  0.5469740000000 1.0
C      1  0.5284800000000  0.5430260000000  0.5391070000000 1.0
C      1  0.5666650000000  0.5220180000000  0.4322510000000 1.0
C      1  0.4051120000000  0.4949330000000  0.5122350000000 1.0
C      1  0.4678490000000  0.5140300000000  0.5025350000000 1.0
C      1  0.5213530000000  0.4625830000000  0.5381610000000 1.0
C      1  0.5153360000000  0.4911950000000  0.4163010000000 1.0
C      1  0.4901870000000  0.5060130000000  0.5184750000000 1.0
C      1  0.5150030000000  0.4680530000000  0.5098830000000 1.0
C      1  0.5290160000000  0.4492390000000  0.4307050000000 1.0
C      1  0.5183050000000  0.5094370000000  0.4806640000000 1.0
C      1  0.4677050000000  0.5614810000000  0.4818360000000 1.0
C      1  0.4558290000000  0.5031860000000  0.4545710000000 1.0
C      1  0.4642280000000  0.5161540000000  0.5538200000000 1.0
C      1  0.5555150000000  0.5514270000000  0.4762540000000 1.0
C      1  0.4312630000000  0.4486430000000  0.5594300000000 1.0
C      1  0.5765840000000  0.4852770000000  0.5176260000000 1.0
C      1  0.5078940000000  0.5025680000000  0.5681670000000 1.0
C      1  0.5474510000000  0.4811940000000  0.4576150000000 1.0
C      1  0.4872900000000  0.4317230000000  0.5184150000000 1.0
END
