TITL C-627113-6568-662 183.674806058772 125000 -261.095296754185 0 0 44 (C1) n - 1
REM
REM in /home/nfs/bkarasulu/CARBON/AIRSS/Generating-Clusters/LCBOP/Only-C1/SD-CG/FIRE-CG
REM
REM
REM
REM
REM
REM ./C.cell (11c1c37f851c82e70ff6c80c92926a4b)
REM AIRSS Version 0.9.1 bugfix July 2018 build 013d7b7c2542+ Fri, 06 Jul 2018 19:26:36 +0100
REM compiler GCC version 9.2.1 20190827 (Red Hat 9.2.1-1)
REM options -cpp -mtune=generic -march=x86-64 -g -O0 -fpre-include=/usr/include/finclude/math-vector-fortran.h
REM seed -2028400432 -1627675255 1122104060 -1136435742 2141146230 -1174957660 -1962808129 -1924379208 1914537416 -650964641 -743899556 1594091994 565291254 -1861739656 1213121989 946909261 2075656621 216403953 -715344986 1060792446 591448152 -1293409772 38853334 1743547505 -1501464408 -841906053 586987989 -855020547 884901471 -974382614 -1692547172 -1661529674 -198420462
REM
CELL 1.54180   50.00000   50.00000   50.00000   90.00000   90.00000   90.00000
LATT -1
SFAC C  
C      1  0.4169300000000  0.4960910000000  0.5504800000000 1.0
C      1  0.6759530000000  0.4430640000000  0.5333670000000 1.0
C      1  0.4449160000000  0.5689150000000  0.5053650000000 1.0
C      1  0.4483950000000  0.5492330000000  0.4595940000000 1.0
C      1  0.6510160000000  0.4459150000000  0.5248660000000 1.0
C      1  0.4606130000000  0.5302920000000  0.5617150000000 1.0
C      1  0.4627700000000  0.4415600000000  0.4707710000000 1.0
C      1  0.6260760000000  0.4487780000000  0.5163770000000 1.0
C      1  0.5231030000000  0.4960730000000  0.4631220000000 1.0
C      1  0.5159320000000  0.5214640000000  0.4725630000000 1.0
C      1  0.4483170000000  0.5312760000000  0.5371840000000 1.0
C      1  0.4591380000000  0.4643600000000  0.4548530000000 1.0
C      1  0.4101420000000  0.4765960000000  0.5663870000000 1.0
C      1  0.4352420000000  0.5664870000000  0.4782290000000 1.0
C      1  0.7258200000000  0.4373860000000  0.5503930000000 1.0
C      1  0.3897030000000  0.5463010000000  0.5120760000000 1.0
C      1  0.5059560000000  0.4842550000000  0.4442700000000 1.0
C      1  0.4238760000000  0.5168670000000  0.5330780000000 1.0
C      1  0.5422420000000  0.4803300000000  0.4760190000000 1.0
C      1  0.5761980000000  0.4545460000000  0.4994510000000 1.0
C      1  0.4320590000000  0.5861680000000  0.5238130000000 1.0
C      1  0.4809890000000  0.4286300000000  0.4853400000000 1.0
C      1  0.4328550000000  0.5286100000000  0.4473610000000 1.0
C      1  0.3868880000000  0.5599940000000  0.4872890000000 1.0
C      1  0.4764410000000  0.5472800000000  0.4595560000000 1.0
C      1  0.3906620000000  0.5634000000000  0.5347120000000 1.0
C      1  0.7008870000000  0.4402220000000  0.5418770000000 1.0
C      1  0.4369640000000  0.4810980000000  0.4575200000000 1.0
C      1  0.5060610000000  0.4278340000000  0.4942780000000 1.0
C      1  0.4257240000000  0.5060360000000  0.4634160000000 1.0
C      1  0.4063390000000  0.5228900000000  0.5113740000000 1.0
C      1  0.5499610000000  0.4576420000000  0.4905820000000 1.0
C      1  0.7507590000000  0.4345530000000  0.5589150000000 1.0
C      1  0.4075870000000  0.5713120000000  0.4739940000000 1.0
C      1  0.4945140000000  0.5380370000000  0.4791470000000 1.0
C      1  0.7752870000000  0.4317690000000  0.5672990000000 1.0
C      1  0.5305140000000  0.4381670000000  0.4959650000000 1.0
C      1  0.4249480000000  0.5304930000000  0.4212550000000 1.0
C      1  0.4817220000000  0.4736780000000  0.4409510000000 1.0
C      1  0.4107930000000  0.5098000000000  0.4868730000000 1.0
C      1  0.4600310000000  0.5472900000000  0.5166700000000 1.0
C      1  0.6011340000000  0.4516550000000  0.5079040000000 1.0
C      1  0.4094980000000  0.5825660000000  0.5382910000000 1.0
C      1  0.4850470000000  0.5410870000000  0.5054610000000 1.0
END
