TITL C-627111-6168-1182 0.000311969652466289 125000 -154.428757958555 0 0 28 (C1) n - 1
REM
REM in /home/nfs/bkarasulu/CARBON/AIRSS/Generating-Clusters/LCBOP/Only-C1/SD-CG/FIRE-CG
REM
REM
REM
REM
REM
REM ./C.cell (11c1c37f851c82e70ff6c80c92926a4b)
REM AIRSS Version 0.9.1 bugfix July 2018 build 013d7b7c2542+ Fri, 06 Jul 2018 19:26:36 +0100
REM compiler GCC version 9.2.1 20190827 (Red Hat 9.2.1-1)
REM options -cpp -mtune=generic -march=x86-64 -g -O0 -fpre-include=/usr/include/finclude/math-vector-fortran.h
REM seed -1470629358 -221431496 -1468176019 552840088 -512728984 1133819980 2089120672 -1369784646 937119068 487073254 489413422 -191233257 1174071687 -533777337 -775625565 1107881128 1980073254 13432614 1064053564 -1229056830 36936573 -1409516194 -673447728 383965204 1876304060 -1810906632 463508211 -499832153 -1694398273 506500406 1762551080 -478350960 -549183191
REM
CELL 1.54180   50.00000   50.00000   50.00000   90.00000   90.00000   90.00000
LATT -1
SFAC C  
C      1  0.5169890000000  0.5160110000000  0.4310800000000 1.0
C      1  0.5739540000000  0.5271220000000  0.5214350000000 1.0
C      1  0.4376610000000  0.4880940000000  0.4535570000000 1.0
C      1  0.4515090000000  0.4755110000000  0.5028960000000 1.0
C      1  0.4491840000000  0.4714410000000  0.5513590000000 1.0
C      1  0.5023600000000  0.4473930000000  0.4567680000000 1.0
C      1  0.4795740000000  0.4430260000000  0.5260480000000 1.0
C      1  0.5459270000000  0.5459890000000  0.4867650000000 1.0
C      1  0.4332450000000  0.4722980000000  0.5719400000000 1.0
C      1  0.5282200000000  0.5386500000000  0.4395960000000 1.0
C      1  0.4928590000000  0.5090640000000  0.5521140000000 1.0
C      1  0.5100000000000  0.4967460000000  0.5110050000000 1.0
C      1  0.5126790000000  0.4838610000000  0.4865930000000 1.0
C      1  0.5246500000000  0.5463690000000  0.5643100000000 1.0
C      1  0.4423180000000  0.4815660000000  0.4788140000000 1.0
C      1  0.4673250000000  0.4702170000000  0.5276620000000 1.0
C      1  0.5081960000000  0.4737640000000  0.4607960000000 1.0
C      1  0.5153560000000  0.5264390000000  0.5476170000000 1.0
C      1  0.5098560000000  0.4917070000000  0.4393150000000 1.0
C      1  0.5390710000000  0.5495920000000  0.4613340000000 1.0
C      1  0.4912170000000  0.4198320000000  0.5238680000000 1.0
C      1  0.4889440000000  0.4907810000000  0.5302720000000 1.0
C      1  0.5346010000000  0.5652080000000  0.5793160000000 1.0
C      1  0.4362740000000  0.4947740000000  0.4279440000000 1.0
C      1  0.5261680000000  0.5185150000000  0.5216870000000 1.0
C      1  0.5970030000000  0.5239640000000  0.5331780000000 1.0
C      1  0.5487130000000  0.5306450000000  0.5099920000000 1.0
C      1  0.4361450000000  0.5014200000000  0.4027370000000 1.0
END
