TITL C-627107-135-363 6897.73585560488 125000 -1021.87302236755 0 0 168 (C1) n - 1
REM
REM in /home/nfs/bkarasulu/CARBON/AIRSS/Generating-Clusters/LCBOP/Only-C1/SD-CG/FIRE-CG
REM
REM
REM
REM
REM
REM ./C.cell (11c1c37f851c82e70ff6c80c92926a4b)
REM AIRSS Version 0.9.1 bugfix July 2018 build 013d7b7c2542+ Fri, 06 Jul 2018 19:26:36 +0100
REM compiler GCC version 9.2.1 20190827 (Red Hat 9.2.1-1)
REM options -cpp -mtune=generic -march=x86-64 -g -O0 -fpre-include=/usr/include/finclude/math-vector-fortran.h
REM seed 1508036204 1183270869 1942181414 1609410510 1751872457 138128936 -1577157984 792929787 -1333354305 -349354292 654756649 -877718892 -1952566584 1436429089 -304305205 776853030 2020533903 1387671516 933958154 230370040 1224232195 1852803945 -996537471 -45623741 1674025639 787375693 -1458091796 971623803 225702211 -1867012304 -1688357682 -1712531105 -794167194
REM
CELL 1.54180   50.00000   50.00000   50.00000   90.00000   90.00000   90.00000
LATT -1
SFAC C  
C      1  0.4846050000000  0.4659950000000  0.5096650000000 1.0
C      1  0.6248020000000  0.5277490000000  0.5410130000000 1.0
C      1  0.5003850000000  0.3626750000000  0.4968600000000 1.0
C      1  0.4937530000000  0.5378490000000  0.4371090000000 1.0
C      1  0.4261770000000  0.6045050000000  0.4485310000000 1.0
C      1  0.3992710000000  0.4818700000000  0.4522210000000 1.0
C      1  0.5293620000000  0.4275560000000  0.5719870000000 1.0
C      1  0.5969920000000  0.5396530000000  0.4736920000000 1.0
C      1  0.4092130000000  0.5202860000000  0.5085800000000 1.0
C      1  0.5887550000000  0.4701570000000  0.5050250000000 1.0
C      1  0.5711980000000  0.4321340000000  0.5366170000000 1.0
C      1  0.5380770000000  0.5973890000000  0.5805980000000 1.0
C      1  0.4508110000000  0.5173050000000  0.5956910000000 1.0
C      1  0.5351360000000  0.5725750000000  0.5950410000000 1.0
C      1  0.5945330000000  0.5908230000000  0.5365610000000 1.0
C      1  0.5970480000000  0.5595790000000  0.4938260000000 1.0
C      1  0.4076510000000  0.4902450000000  0.4268400000000 1.0
C      1  0.4385320000000  0.3613170000000  0.4881380000000 1.0
C      1  0.4367710000000  0.5267560000000  0.4634950000000 1.0
C      1  0.3606620000000  0.5175720000000  0.5068520000000 1.0
C      1  0.4934410000000  0.6016820000000  0.4441070000000 1.0
C      1  0.4725010000000  0.5958270000000  0.4628500000000 1.0
C      1  0.5215550000000  0.4502880000000  0.5890880000000 1.0
C      1  0.5926690000000  0.5803780000000  0.5102370000000 1.0
C      1  0.5458900000000  0.5971730000000  0.4166720000000 1.0
C      1  0.4739360000000  0.4794830000000  0.5612400000000 1.0
C      1  0.5125360000000  0.5333720000000  0.5578390000000 1.0
C      1  0.4574220000000  0.3633240000000  0.4439170000000 1.0
C      1  0.4847370000000  0.4398330000000  0.6191760000000 1.0
C      1  0.4912990000000  0.6033330000000  0.5077400000000 1.0
C      1  0.5626300000000  0.5966240000000  0.4405230000000 1.0
C      1  0.4535000000000  0.5281480000000  0.5674950000000 1.0
C      1  0.5234970000000  0.4398560000000  0.5174890000000 1.0
C      1  0.4394820000000  0.5101410000000  0.5485000000000 1.0
C      1  0.5804250000000  0.4732150000000  0.5592340000000 1.0
C      1  0.5667660000000  0.5409070000000  0.5424340000000 1.0
C      1  0.4165680000000  0.5664640000000  0.5708250000000 1.0
C      1  0.4903630000000  0.4293430000000  0.4180820000000 1.0
C      1  0.5456740000000  0.5458860000000  0.5914620000000 1.0
C      1  0.4917500000000  0.5971860000000  0.5593670000000 1.0
C      1  0.5181040000000  0.4077010000000  0.4641890000000 1.0
C      1  0.5179880000000  0.6107960000000  0.5628820000000 1.0
C      1  0.4835490000000  0.4933290000000  0.5173080000000 1.0
C      1  0.5420820000000  0.4479620000000  0.4289950000000 1.0
C      1  0.4955550000000  0.4559950000000  0.5991100000000 1.0
C      1  0.5327280000000  0.4385490000000  0.4012880000000 1.0
C      1  0.4585710000000  0.4207110000000  0.5121670000000 1.0
C      1  0.4933000000000  0.4922290000000  0.5444540000000 1.0
C      1  0.4770340000000  0.5034030000000  0.6027490000000 1.0
C      1  0.4273380000000  0.6073550000000  0.5112110000000 1.0
C      1  0.4367310000000  0.5840400000000  0.5224000000000 1.0
C      1  0.5929080000000  0.5497490000000  0.4463670000000 1.0
C      1  0.5206820000000  0.3924890000000  0.4159340000000 1.0
C      1  0.5460510000000  0.5950940000000  0.4646830000000 1.0
C      1  0.6134880000000  0.5767260000000  0.5522820000000 1.0
C      1  0.4962980000000  0.4422850000000  0.5213390000000 1.0
C      1  0.5330010000000  0.5195570000000  0.5997270000000 1.0
C      1  0.4717210000000  0.4632920000000  0.4503840000000 1.0
C      1  0.5577230000000  0.6261170000000  0.5348940000000 1.0
C      1  0.4746710000000  0.4239450000000  0.6372110000000 1.0
C      1  0.5870730000000  0.5019260000000  0.4327860000000 1.0
C      1  0.4889410000000  0.4011380000000  0.5489780000000 1.0
C      1  0.6243630000000  0.5521560000000  0.5519580000000 1.0
C      1  0.5169320000000  0.6194240000000  0.5075340000000 1.0
C      1  0.5440710000000  0.5532440000000  0.4397670000000 1.0
C      1  0.4062800000000  0.5469780000000  0.4306700000000 1.0
C      1  0.4106910000000  0.3404730000000  0.5193780000000 1.0
C      1  0.4680330000000  0.4242690000000  0.4838180000000 1.0
C      1  0.4621290000000  0.5133880000000  0.4592570000000 1.0
C      1  0.5226460000000  0.4827980000000  0.4575720000000 1.0
C      1  0.4555270000000  0.5682890000000  0.5070920000000 1.0
C      1  0.4303070000000  0.4718040000000  0.5029760000000 1.0
C      1  0.4095300000000  0.4569910000000  0.4615040000000 1.0
C      1  0.5660640000000  0.4541740000000  0.5767770000000 1.0
C      1  0.4207830000000  0.5072100000000  0.3836800000000 1.0
C      1  0.5114410000000  0.4077730000000  0.5643300000000 1.0
C      1  0.5565130000000  0.4311640000000  0.5617980000000 1.0
C      1  0.6164700000000  0.5085290000000  0.5244510000000 1.0
C      1  0.3967630000000  0.5255110000000  0.5589560000000 1.0
C      1  0.3977820000000  0.4327860000000  0.4544170000000 1.0
C      1  0.5389690000000  0.5045230000000  0.5323070000000 1.0
C      1  0.5726650000000  0.4981170000000  0.5724560000000 1.0
C      1  0.5323490000000  0.5776960000000  0.5052300000000 1.0
C      1  0.5645290000000  0.5444850000000  0.5693830000000 1.0
C      1  0.5590800000000  0.4103070000000  0.4914710000000 1.0
C      1  0.4741110000000  0.5795200000000  0.5731710000000 1.0
C      1  0.4949680000000  0.5539970000000  0.4821530000000 1.0
C      1  0.4702580000000  0.2960310000000  0.5074830000000 1.0
C      1  0.5459150000000  0.4804420000000  0.5219490000000 1.0
C      1  0.4237830000000  0.5267540000000  0.6013910000000 1.0
C      1  0.5694170000000  0.4136360000000  0.5158060000000 1.0
C      1  0.4323820000000  0.4584150000000  0.4781300000000 1.0
C      1  0.4630510000000  0.4896060000000  0.4418860000000 1.0
C      1  0.4547520000000  0.4895150000000  0.4136140000000 1.0
C      1  0.4518350000000  0.5642040000000  0.4348540000000 1.0
C      1  0.4801130000000  0.5600410000000  0.4251060000000 1.0
C      1  0.5837250000000  0.4590360000000  0.5321650000000 1.0
C      1  0.4577010000000  0.4475420000000  0.4697260000000 1.0
C      1  0.5241940000000  0.5550270000000  0.5466320000000 1.0
C      1  0.5518800000000  0.5275640000000  0.5221070000000 1.0
C      1  0.5294020000000  0.5092200000000  0.4541080000000 1.0
C      1  0.4709260000000  0.4781650000000  0.3926000000000 1.0
C      1  0.5160700000000  0.5077640000000  0.5479510000000 1.0
C      1  0.4363010000000  0.4632470000000  0.5295790000000 1.0
C      1  0.5188880000000  0.5746160000000  0.5291230000000 1.0
C      1  0.5472050000000  0.5180610000000  0.4733940000000 1.0
C      1  0.4356850000000  0.3370110000000  0.5048740000000 1.0
C      1  0.5849990000000  0.5773130000000  0.4409390000000 1.0
C      1  0.5286530000000  0.6238290000000  0.5358410000000 1.0
C      1  0.4837070000000  0.3782820000000  0.4817000000000 1.0
C      1  0.3866010000000  0.4111210000000  0.4452140000000 1.0
C      1  0.3988640000000  0.3645950000000  0.5123740000000 1.0
C      1  0.5227850000000  0.4843120000000  0.4068630000000 1.0
C      1  0.4926790000000  0.4525520000000  0.4345160000000 1.0
C      1  0.4959960000000  0.5380870000000  0.5794080000000 1.0
C      1  0.5267500000000  0.5333080000000  0.3879320000000 1.0
C      1  0.5194610000000  0.4624780000000  0.3873640000000 1.0
C      1  0.5489860000000  0.4964390000000  0.5913720000000 1.0
C      1  0.4716810000000  0.5509590000000  0.5722810000000 1.0
C      1  0.5226250000000  0.5124070000000  0.4065610000000 1.0
C      1  0.4817340000000  0.4193410000000  0.5289050000000 1.0
C      1  0.5870290000000  0.4907140000000  0.4588330000000 1.0
C      1  0.5215400000000  0.3889190000000  0.4426470000000 1.0
C      1  0.4746540000000  0.3783830000000  0.5537660000000 1.0
C      1  0.5436840000000  0.4210780000000  0.4704160000000 1.0
C      1  0.5359250000000  0.4613020000000  0.5052690000000 1.0
C      1  0.4081170000000  0.5408940000000  0.5806570000000 1.0
C      1  0.4597060000000  0.3675710000000  0.4708530000000 1.0
C      1  0.4906290000000  0.4060030000000  0.4761890000000 1.0
C      1  0.6016640000000  0.4966260000000  0.5038850000000 1.0
C      1  0.4149540000000  0.3774410000000  0.4937570000000 1.0
C      1  0.5261990000000  0.5604140000000  0.3894970000000 1.0
C      1  0.4946470000000  0.5889190000000  0.5324940000000 1.0
C      1  0.5653780000000  0.6035140000000  0.5744790000000 1.0
C      1  0.5254710000000  0.5561960000000  0.4865180000000 1.0
C      1  0.5189390000000  0.4679850000000  0.4333750000000 1.0
C      1  0.5968290000000  0.5102890000000  0.4789750000000 1.0
C      1  0.5561490000000  0.4428990000000  0.4546110000000 1.0
C      1  0.4138510000000  0.5175600000000  0.5373370000000 1.0
C      1  0.5164210000000  0.5222030000000  0.4323160000000 1.0
C      1  0.4535380000000  0.5393690000000  0.5057980000000 1.0
C      1  0.4474480000000  0.4818710000000  0.5489710000000 1.0
C      1  0.4485230000000  0.5890260000000  0.4491960000000 1.0
C      1  0.5254510000000  0.4696310000000  0.4812400000000 1.0
C      1  0.5775570000000  0.4652170000000  0.4711720000000 1.0
C      1  0.4916740000000  0.4657060000000  0.3797220000000 1.0
C      1  0.5022350000000  0.5200070000000  0.6012200000000 1.0
C      1  0.4304040000000  0.5298930000000  0.4915410000000 1.0
C      1  0.5429710000000  0.5339910000000  0.4958510000000 1.0
C      1  0.4840330000000  0.5331420000000  0.4637300000000 1.0
C      1  0.5908260000000  0.5284410000000  0.4274090000000 1.0
C      1  0.5366430000000  0.5674750000000  0.4615920000000 1.0
C      1  0.4802050000000  0.4778110000000  0.5890360000000 1.0
C      1  0.3867350000000  0.4985360000000  0.4710300000000 1.0
C      1  0.5226060000000  0.5826930000000  0.4071080000000 1.0
C      1  0.4268360000000  0.5771420000000  0.5481730000000 1.0
C      1  0.4382830000000  0.4346040000000  0.5268910000000 1.0
C      1  0.4782090000000  0.5813840000000  0.4891560000000 1.0
C      1  0.4530720000000  0.3155870000000  0.5063360000000 1.0
C      1  0.4977800000000  0.5835690000000  0.4222390000000 1.0
C      1  0.4311440000000  0.5451070000000  0.4419740000000 1.0
C      1  0.4726020000000  0.5185060000000  0.5104800000000 1.0
C      1  0.5755470000000  0.6086460000000  0.5484690000000 1.0
C      1  0.4274670000000  0.4958940000000  0.4076850000000 1.0
C      1  0.3850350000000  0.5120570000000  0.4957420000000 1.0
C      1  0.5359120000000  0.6033530000000  0.4911650000000 1.0
C      1  0.5132300000000  0.4173150000000  0.4053050000000 1.0
C      1  0.5443370000000  0.4677490000000  0.5920860000000 1.0
END
