TITL C-627113-6568-1824 1.13249826728223e-07 125000 -350.390371279441 0 0 59 (C1) n - 1
REM
REM in /home/nfs/bkarasulu/CARBON/AIRSS/Generating-Clusters/LCBOP/Only-C1/SD-CG/FIRE-CG
REM
REM
REM
REM
REM
REM ./C.cell (11c1c37f851c82e70ff6c80c92926a4b)
REM AIRSS Version 0.9.1 bugfix July 2018 build 013d7b7c2542+ Fri, 06 Jul 2018 19:26:36 +0100
REM compiler GCC version 9.2.1 20190827 (Red Hat 9.2.1-1)
REM options -cpp -mtune=generic -march=x86-64 -g -O0 -fpre-include=/usr/include/finclude/math-vector-fortran.h
REM seed -1257885503 1507609825 -1531975610 -1457147764 1016197173 -44147087 507883901 643355237 -2011431205 -929180379 1983616961 247248676 807683736 1391345362 694531921 -1975728366 -1978235877 -1058249428 1883620225 -1295126386 1433971373 -311966064 1886253935 -633346975 1795032517 -337593264 -1580998262 1854830215 -1260359200 251157400 2004030705 -478103761 959393648
REM
CELL 1.54180   50.00000   50.00000   50.00000   90.00000   90.00000   90.00000
LATT -1
SFAC C  
C      1  0.5777160000000  0.4838770000000  0.5454620000000 1.0
C      1  0.4725530000000  0.5401040000000  0.4368560000000 1.0
C      1  0.5266930000000  0.5569310000000  0.4571090000000 1.0
C      1  0.4790610000000  0.4829030000000  0.5317980000000 1.0
C      1  0.4418010000000  0.5178260000000  0.4729830000000 1.0
C      1  0.4873540000000  0.5404820000000  0.5600820000000 1.0
C      1  0.5148670000000  0.4838300000000  0.4313280000000 1.0
C      1  0.4636080000000  0.4939430000000  0.5110610000000 1.0
C      1  0.5757740000000  0.4601130000000  0.5575900000000 1.0
C      1  0.4715690000000  0.4646430000000  0.4495670000000 1.0
C      1  0.4765210000000  0.4984820000000  0.4130610000000 1.0
C      1  0.5565830000000  0.4446630000000  0.5679790000000 1.0
C      1  0.5299550000000  0.4429690000000  0.5687460000000 1.0
C      1  0.5024940000000  0.4350960000000  0.4618480000000 1.0
C      1  0.4682090000000  0.4388210000000  0.4965710000000 1.0
C      1  0.4690120000000  0.4925040000000  0.5572470000000 1.0
C      1  0.4381410000000  0.4577800000000  0.5378910000000 1.0
C      1  0.4162610000000  0.5231280000000  0.4844650000000 1.0
C      1  0.4743120000000  0.4400850000000  0.4664320000000 1.0
C      1  0.3940130000000  0.5073660000000  0.4791250000000 1.0
C      1  0.5258350000000  0.5999460000000  0.4802220000000 1.0
C      1  0.4593860000000  0.4984840000000  0.4840130000000 1.0
C      1  0.5164430000000  0.5133880000000  0.4356110000000 1.0
C      1  0.5632350000000  0.4524270000000  0.4918170000000 1.0
C      1  0.5295560000000  0.5729370000000  0.4804200000000 1.0
C      1  0.4521940000000  0.5355670000000  0.4536980000000 1.0
C      1  0.4926710000000  0.4384210000000  0.5135600000000 1.0
C      1  0.4452320000000  0.4456740000000  0.5137740000000 1.0
C      1  0.5698180000000  0.5259410000000  0.5212490000000 1.0
C      1  0.5385370000000  0.5083260000000  0.5566440000000 1.0
C      1  0.5369250000000  0.5584480000000  0.5041430000000 1.0
C      1  0.5239100000000  0.5626850000000  0.5292140000000 1.0
C      1  0.4618710000000  0.5603580000000  0.5096870000000 1.0
C      1  0.4877320000000  0.5126510000000  0.5667120000000 1.0
C      1  0.5688310000000  0.4981750000000  0.4710850000000 1.0
C      1  0.5747470000000  0.4738850000000  0.4805510000000 1.0
C      1  0.5190270000000  0.4557440000000  0.4736070000000 1.0
C      1  0.4154790000000  0.5453600000000  0.5017380000000 1.0
C      1  0.5051020000000  0.5571410000000  0.5478790000000 1.0
C      1  0.4899620000000  0.5220850000000  0.4242150000000 1.0
C      1  0.5616450000000  0.5065190000000  0.5405720000000 1.0
C      1  0.5523170000000  0.5207420000000  0.4737420000000 1.0
C      1  0.5071770000000  0.4508860000000  0.5574070000000 1.0
C      1  0.5948660000000  0.5370280000000  0.5236780000000 1.0
C      1  0.5150370000000  0.5043070000000  0.5690240000000 1.0
C      1  0.3737960000000  0.4916540000000  0.4742740000000 1.0
C      1  0.4447230000000  0.4759800000000  0.5584250000000 1.0
C      1  0.5328890000000  0.5292900000000  0.4535070000000 1.0
C      1  0.4865470000000  0.4743410000000  0.4259030000000 1.0
C      1  0.4833400000000  0.5458520000000  0.5034440000000 1.0
C      1  0.5368270000000  0.4439260000000  0.4927880000000 1.0
C      1  0.4351930000000  0.5609270000000  0.5111870000000 1.0
C      1  0.5126260000000  0.5024180000000  0.4960770000000 1.0
C      1  0.4783930000000  0.4847000000000  0.4689290000000 1.0
C      1  0.5532700000000  0.5349090000000  0.4996140000000 1.0
C      1  0.5190830000000  0.4282010000000  0.5087300000000 1.0
C      1  0.5055600000000  0.4812980000000  0.4790760000000 1.0
C      1  0.5008380000000  0.5257180000000  0.5022940000000 1.0
C      1  0.4928860000000  0.4581160000000  0.5342890000000 1.0
END
