TITL C-627112-676-1291 956443.748529309 125000 -1159.74832577835 0 0 191 (C1) n - 1
REM
REM in /home/nfs/bkarasulu/CARBON/AIRSS/Generating-Clusters/LCBOP/Only-C1/SD-CG/FIRE-CG
REM
REM
REM
REM
REM
REM ./C.cell (11c1c37f851c82e70ff6c80c92926a4b)
REM AIRSS Version 0.9.1 bugfix July 2018 build 013d7b7c2542+ Fri, 06 Jul 2018 19:26:36 +0100
REM compiler GCC version 9.2.1 20190827 (Red Hat 9.2.1-1)
REM options -cpp -mtune=generic -march=x86-64 -g -O0 -fpre-include=/usr/include/finclude/math-vector-fortran.h
REM seed 996020687 249598725 -284439122 -1839951183 360041865 -1762766376 -1885924631 -1869375840 193638537 1020716608 1722509712 -697930135 1529671794 -1658729631 -175916907 -1181174281 1501127212 -1652026178 1514348430 306847235 -1466860613 -756660099 -1528163667 880818025 680096042 -1867504083 731871292 -1928561213 230004284 -2026679727 451183330 835411840 -1422591714
REM
CELL 1.54180   50.00000   50.00000   50.00000   90.00000   90.00000   90.00000
LATT -1
SFAC C  
C      1  0.4773350000000  0.6131310000000  0.4234940000000 1.0
C      1  0.5859910000000  0.4594510000000  0.4555610000000 1.0
C      1  0.4633970000000  0.5021490000000  0.4937210000000 1.0
C      1  0.4456510000000  0.4147000000000  0.4912740000000 1.0
C      1  0.4447960000000  0.4679150000000  0.5121730000000 1.0
C      1  0.6581560000000  0.4699680000000  0.4612900000000 1.0
C      1  0.5173570000000  0.4886690000000  0.3971110000000 1.0
C      1  0.5937410000000  0.4778350000000  0.5869110000000 1.0
C      1  0.4237050000000  0.4873610000000  0.5170430000000 1.0
C      1  0.5015610000000  0.6225280000000  0.5149650000000 1.0
C      1  0.4747200000000  0.5241290000000  0.5071570000000 1.0
C      1  0.4165180000000  0.5700860000000  0.4164800000000 1.0
C      1  0.4890830000000  0.4448410000000  0.4612030000000 1.0
C      1  0.5001400000000  0.3725060000000  0.4863710000000 1.0
C      1  0.4257730000000  0.5501960000000  0.5542120000000 1.0
C      1  0.4577070000000  0.4941750000000  0.3806660000000 1.0
C      1  0.4716290000000  0.6019740000000  0.4746510000000 1.0
C      1  0.6099070000000  0.5427330000000  0.5092810000000 1.0
C      1  0.5415300000000  0.4141200000000  0.4404880000000 1.0
C      1  0.5594050000000  0.4570470000000  0.4577420000000 1.0
C      1  0.5221190000000  0.5544640000000  0.5418820000000 1.0
C      1  0.5220380000000  0.4548640000000  0.5347640000000 1.0
C      1  0.5180450000000  0.5012480000000  0.5286870000000 1.0
C      1  0.5073940000000  0.3765720000000  0.5140580000000 1.0
C      1  0.5128760000000  0.5650960000000  0.3848880000000 1.0
C      1  0.4932390000000  0.5775870000000  0.5080680000000 1.0
C      1  0.4682640000000  0.5509390000000  0.5828310000000 1.0
C      1  0.5234400000000  0.4920120000000  0.5796970000000 1.0
C      1  0.4319900000000  0.5177100000000  0.4368290000000 1.0
C      1  0.5988550000000  0.5091880000000  0.3830040000000 1.0
C      1  0.5308740000000  0.5901760000000  0.4232420000000 1.0
C      1  0.5032330000000  0.5072410000000  0.4772650000000 1.0
C      1  0.5031220000000  0.5597640000000  0.4857640000000 1.0
C      1  0.5561240000000  0.5741810000000  0.4264750000000 1.0
C      1  0.4055950000000  0.4224290000000  0.5208360000000 1.0
C      1  0.6127280000000  0.4972220000000  0.5291320000000 1.0
C      1  0.4814020000000  0.5405430000000  0.4846150000000 1.0
C      1  0.4180590000000  0.4194670000000  0.4970380000000 1.0
C      1  0.6402140000000  0.4524420000000  0.5022290000000 1.0
C      1  0.3908430000000  0.4694350000000  0.4458240000000 1.0
C      1  0.4423690000000  0.5578990000000  0.4180370000000 1.0
C      1  0.4844710000000  0.4868560000000  0.4848530000000 1.0
C      1  0.5594710000000  0.5500520000000  0.4083550000000 1.0
C      1  0.5170820000000  0.5325780000000  0.5834850000000 1.0
C      1  0.4934520000000  0.3858390000000  0.5387480000000 1.0
C      1  0.4839830000000  0.5129760000000  0.4251160000000 1.0
C      1  0.4230100000000  0.5127440000000  0.4102410000000 1.0
C      1  0.4851050000000  0.4509370000000  0.5839230000000 1.0
C      1  0.5072550000000  0.4272610000000  0.5004790000000 1.0
C      1  0.3889900000000  0.5064180000000  0.4866590000000 1.0
C      1  0.5658570000000  0.6001240000000  0.5757180000000 1.0
C      1  0.5575330000000  0.4504070000000  0.4044490000000 1.0
C      1  0.5677480000000  0.4739570000000  0.3947970000000 1.0
C      1  0.5056410000000  0.5292860000000  0.6076090000000 1.0
C      1  0.5277070000000  0.5053230000000  0.6204860000000 1.0
C      1  0.4827540000000  0.4767350000000  0.6290000000000 1.0
C      1  0.5147930000000  0.5959400000000  0.4496610000000 1.0
C      1  0.5300010000000  0.5142810000000  0.4747300000000 1.0
C      1  0.5279540000000  0.4282440000000  0.5910700000000 1.0
C      1  0.4957660000000  0.5952610000000  0.5716450000000 1.0
C      1  0.3809990000000  0.5316680000000  0.4714610000000 1.0
C      1  0.4718030000000  0.4915300000000  0.4389390000000 1.0
C      1  0.3713300000000  0.4760870000000  0.5267080000000 1.0
C      1  0.4056140000000  0.4370970000000  0.5452650000000 1.0
C      1  0.5236550000000  0.4765260000000  0.5176360000000 1.0
C      1  0.5758850000000  0.5837100000000  0.5550740000000 1.0
C      1  0.4457740000000  0.4972270000000  0.4498590000000 1.0
C      1  0.5022880000000  0.4374950000000  0.5259370000000 1.0
C      1  0.4480730000000  0.5906780000000  0.5647160000000 1.0
C      1  0.4561220000000  0.4598390000000  0.4885210000000 1.0
C      1  0.5206830000000  0.3941740000000  0.4433860000000 1.0
C      1  0.4768060000000  0.5339960000000  0.6063660000000 1.0
C      1  0.4833570000000  0.5330890000000  0.4051200000000 1.0
C      1  0.5488480000000  0.6082730000000  0.5178070000000 1.0
C      1  0.5711820000000  0.5801440000000  0.4515200000000 1.0
C      1  0.5734330000000  0.5912310000000  0.4786330000000 1.0
C      1  0.6379980000000  0.4574230000000  0.5284920000000 1.0
C      1  0.3849170000000  0.4829560000000  0.4681770000000 1.0
C      1  0.5684700000000  0.5364440000000  0.5836860000000 1.0
C      1  0.4239400000000  0.4571810000000  0.4065910000000 1.0
C      1  0.4347830000000  0.4727200000000  0.6007750000000 1.0
C      1  0.5325310000000  0.4863910000000  0.4212890000000 1.0
C      1  0.4190110000000  0.5080440000000  0.4942870000000 1.0
C      1  0.5823800000000  0.5354380000000  0.5094920000000 1.0
C      1  0.4582300000000  0.4857780000000  0.6176100000000 1.0
C      1  0.5308370000000  0.5538770000000  0.4962590000000 1.0
C      1  0.4616470000000  0.4846550000000  0.5549400000000 1.0
C      1  0.4489880000000  0.5835700000000  0.4778160000000 1.0
C      1  0.5673000000000  0.4859370000000  0.5914570000000 1.0
C      1  0.4117560000000  0.4838950000000  0.5424780000000 1.0
C      1  0.4427770000000  0.5441630000000  0.4440490000000 1.0
C      1  0.5507660000000  0.5011110000000  0.4886460000000 1.0
C      1  0.4409530000000  0.4978540000000  0.4769920000000 1.0
C      1  0.4476970000000  0.5089710000000  0.5585160000000 1.0
C      1  0.5413030000000  0.6110090000000  0.5772250000000 1.0
C      1  0.5744550000000  0.5096360000000  0.5011060000000 1.0
C      1  0.4294410000000  0.5911270000000  0.4971770000000 1.0
C      1  0.6251380000000  0.5214200000000  0.5201250000000 1.0
C      1  0.6244470000000  0.4762840000000  0.5443070000000 1.0
C      1  0.5365390000000  0.4567090000000  0.4743740000000 1.0
C      1  0.4616600000000  0.4654720000000  0.5342190000000 1.0
C      1  0.5583890000000  0.5122060000000  0.6022140000000 1.0
C      1  0.4720540000000  0.5795840000000  0.5761380000000 1.0
C      1  0.4288580000000  0.5777770000000  0.5481140000000 1.0
C      1  0.4985140000000  0.5674820000000  0.5339220000000 1.0
C      1  0.5102700000000  0.5675480000000  0.4582920000000 1.0
C      1  0.5530170000000  0.4024060000000  0.5178340000000 1.0
C      1  0.5782120000000  0.4384050000000  0.5060680000000 1.0
C      1  0.5398730000000  0.5091000000000  0.5450950000000 1.0
C      1  0.5238900000000  0.6152410000000  0.5318850000000 1.0
C      1  0.5338270000000  0.4131380000000  0.5658910000000 1.0
C      1  0.4782740000000  0.4431910000000  0.5384280000000 1.0
C      1  0.5736600000000  0.5540940000000  0.5580280000000 1.0
C      1  0.4508300000000  0.5372670000000  0.5636360000000 1.0
C      1  0.5088360000000  0.4391980000000  0.4071670000000 1.0
C      1  0.5095350000000  0.4490670000000  0.6010170000000 1.0
C      1  0.5539370000000  0.4200000000000  0.5429110000000 1.0
C      1  0.5589550000000  0.4132120000000  0.4651500000000 1.0
C      1  0.4225220000000  0.5882990000000  0.5229040000000 1.0
C      1  0.4749540000000  0.3809240000000  0.4451610000000 1.0
C      1  0.5740880000000  0.5950810000000  0.5276980000000 1.0
C      1  0.4504550000000  0.5526840000000  0.4730860000000 1.0
C      1  0.3836730000000  0.5502390000000  0.4520940000000 1.0
C      1  0.4614170000000  0.4305330000000  0.4193090000000 1.0
C      1  0.4568080000000  0.5415720000000  0.3981720000000 1.0
C      1  0.5649090000000  0.4154850000000  0.4938530000000 1.0
C      1  0.4270230000000  0.4310800000000  0.5657480000000 1.0
C      1  0.5655630000000  0.4820470000000  0.5378900000000 1.0
C      1  0.6115560000000  0.4589150000000  0.4630250000000 1.0
C      1  0.4858280000000  0.6064520000000  0.4496850000000 1.0
C      1  0.5415480000000  0.5545420000000  0.5216180000000 1.0
C      1  0.4946630000000  0.3969080000000  0.4315500000000 1.0
C      1  0.4184240000000  0.4292790000000  0.6135840000000 1.0
C      1  0.4991710000000  0.4656080000000  0.3941910000000 1.0
C      1  0.5107200000000  0.4739070000000  0.6202890000000 1.0
C      1  0.4944920000000  0.5164280000000  0.5256890000000 1.0
C      1  0.4278450000000  0.5188550000000  0.6093190000000 1.0
C      1  0.4609230000000  0.4352490000000  0.4722390000000 1.0
C      1  0.5358040000000  0.3802570000000  0.5167170000000 1.0
C      1  0.4761920000000  0.3710650000000  0.4707630000000 1.0
C      1  0.5125800000000  0.4404560000000  0.4760960000000 1.0
C      1  0.5502500000000  0.6068050000000  0.4882550000000 1.0
C      1  0.4568100000000  0.3988760000000  0.5114910000000 1.0
C      1  0.5853000000000  0.4931030000000  0.5219570000000 1.0
C      1  0.4699070000000  0.4696320000000  0.3897300000000 1.0
C      1  0.4867800000000  0.6038840000000  0.4995740000000 1.0
C      1  0.4183270000000  0.4969320000000  0.5925050000000 1.0
C      1  0.5122830000000  0.3948510000000  0.5586430000000 1.0
C      1  0.4425430000000  0.5169260000000  0.3895830000000 1.0
C      1  0.5445700000000  0.4745830000000  0.5784170000000 1.0
C      1  0.5535950000000  0.5240560000000  0.3935580000000 1.0
C      1  0.4881580000000  0.4203900000000  0.4163160000000 1.0
C      1  0.4560010000000  0.5157950000000  0.6160640000000 1.0
C      1  0.4747830000000  0.4325150000000  0.5650830000000 1.0
C      1  0.5367660000000  0.5247580000000  0.4500370000000 1.0
C      1  0.5212840000000  0.3775960000000  0.4668260000000 1.0
C      1  0.5252150000000  0.5163590000000  0.3879100000000 1.0
C      1  0.5669800000000  0.5464520000000  0.5302040000000 1.0
C      1  0.5391390000000  0.4758320000000  0.4948100000000 1.0
C      1  0.4653380000000  0.3954780000000  0.5384700000000 1.0
C      1  0.4047570000000  0.5299440000000  0.5523060000000 1.0
C      1  0.5063710000000  0.5380200000000  0.3895130000000 1.0
C      1  0.5688880000000  0.4464370000000  0.5328200000000 1.0
C      1  0.5284520000000  0.5331240000000  0.5592310000000 1.0
C      1  0.3756420000000  0.5032580000000  0.5151350000000 1.0
C      1  0.3925180000000  0.4631340000000  0.5425500000000 1.0
C      1  0.6124690000000  0.5703360000000  0.5044360000000 1.0
C      1  0.4790790000000  0.4779190000000  0.5755600000000 1.0
C      1  0.4984950000000  0.4964930000000  0.5785710000000 1.0
C      1  0.4271370000000  0.4453260000000  0.5925130000000 1.0
C      1  0.5470080000000  0.5048580000000  0.4339840000000 1.0
C      1  0.5731690000000  0.5022230000000  0.3902280000000 1.0
C      1  0.5898760000000  0.5875570000000  0.5031520000000 1.0
C      1  0.4489680000000  0.4281300000000  0.4451280000000 1.0
C      1  0.4910060000000  0.6060310000000  0.4010970000000 1.0
C      1  0.5138190000000  0.5890770000000  0.3997370000000 1.0
C      1  0.5358810000000  0.4560420000000  0.5590280000000 1.0
C      1  0.3830730000000  0.5245290000000  0.5340850000000 1.0
C      1  0.5370800000000  0.4339090000000  0.4171450000000 1.0
C      1  0.5220150000000  0.5471380000000  0.4430710000000 1.0
C      1  0.4513290000000  0.4511000000000  0.4023970000000 1.0
C      1  0.4858150000000  0.4677130000000  0.4444440000000 1.0
C      1  0.5308380000000  0.6118120000000  0.4688320000000 1.0
C      1  0.4524650000000  0.4139740000000  0.5598300000000 1.0
C      1  0.5187140000000  0.6087230000000  0.5602490000000 1.0
C      1  0.6145420000000  0.4732960000000  0.5705310000000 1.0
C      1  0.6368450000000  0.4599330000000  0.4752740000000 1.0
C      1  0.4282740000000  0.5381790000000  0.4931980000000 1.0
C      1  0.4037150000000  0.4616990000000  0.4236450000000 1.0
C      1  0.3948700000000  0.5645830000000  0.4321280000000 1.0
C      1  0.4174560000000  0.5038610000000  0.5632580000000 1.0
END
