TITL C-627109-622-494 5.38047413444621e-08 125000 -824.468669295655 0 0 134 (C1) n - 1
REM
REM in /home/nfs/bkarasulu/CARBON/AIRSS/Generating-Clusters/LCBOP/Only-C1/SD-CG/FIRE-CG
REM
REM
REM
REM
REM
REM ./C.cell (11c1c37f851c82e70ff6c80c92926a4b)
REM AIRSS Version 0.9.1 bugfix July 2018 build 013d7b7c2542+ Fri, 06 Jul 2018 19:26:36 +0100
REM compiler GCC version 9.2.1 20190827 (Red Hat 9.2.1-1)
REM options -cpp -mtune=generic -march=x86-64 -g -O0 -fpre-include=/usr/include/finclude/math-vector-fortran.h
REM seed 227991914 -1087630598 -478349922 -1869980743 98643819 1311342453 -565087479 -1141699669 264665932 793395947 1951950276 -1602107927 1169585856 -957673071 1624299472 1229398363 -1935633084 2057699766 1760146148 759576197 -128840174 1411681771 158805552 -556276671 -1661789091 1577181050 285520018 249337389 -1390815092 -546763268 -1788857775 -652120107 1833904725
REM
CELL 1.54180   50.00000   50.00000   50.00000   90.00000   90.00000   90.00000
LATT -1
SFAC C  
C      1  0.4562100000000  0.4548470000000  0.5190560000000 1.0
C      1  0.5015720000000  0.5261640000000  0.4407980000000 1.0
C      1  0.6188370000000  0.5475750000000  0.4529910000000 1.0
C      1  0.6319870000000  0.4619770000000  0.4560730000000 1.0
C      1  0.4295760000000  0.5474850000000  0.5625610000000 1.0
C      1  0.3915950000000  0.5288640000000  0.4695680000000 1.0
C      1  0.4160730000000  0.4504120000000  0.5440630000000 1.0
C      1  0.5248350000000  0.5290680000000  0.5764310000000 1.0
C      1  0.5352530000000  0.5912880000000  0.4494850000000 1.0
C      1  0.5458760000000  0.4711620000000  0.3864380000000 1.0
C      1  0.5467530000000  0.5187770000000  0.5612890000000 1.0
C      1  0.5078640000000  0.5887770000000  0.5107110000000 1.0
C      1  0.5068920000000  0.5921920000000  0.5386960000000 1.0
C      1  0.4897900000000  0.4798560000000  0.6249430000000 1.0
C      1  0.4909800000000  0.5883400000000  0.5600700000000 1.0
C      1  0.4204240000000  0.4270620000000  0.5591730000000 1.0
C      1  0.4595590000000  0.5667810000000  0.5183240000000 1.0
C      1  0.4638020000000  0.5830600000000  0.5665360000000 1.0
C      1  0.4721050000000  0.4502790000000  0.4183210000000 1.0
C      1  0.4662760000000  0.5139050000000  0.5986300000000 1.0
C      1  0.4748670000000  0.4357560000000  0.5299100000000 1.0
C      1  0.5658720000000  0.4831720000000  0.4394490000000 1.0
C      1  0.4351990000000  0.5247940000000  0.4513000000000 1.0
C      1  0.4351890000000  0.4813600000000  0.4821630000000 1.0
C      1  0.4908090000000  0.4612700000000  0.6035530000000 1.0
C      1  0.4785380000000  0.5495530000000  0.5075310000000 1.0
C      1  0.5704640000000  0.4647520000000  0.4922120000000 1.0
C      1  0.5215570000000  0.4571880000000  0.5278270000000 1.0
C      1  0.5675250000000  0.5065960000000  0.5186610000000 1.0
C      1  0.4283500000000  0.4501610000000  0.5177530000000 1.0
C      1  0.4505110000000  0.4683020000000  0.4612550000000 1.0
C      1  0.4539300000000  0.4903330000000  0.5861870000000 1.0
C      1  0.6249930000000  0.5393720000000  0.4775540000000 1.0
C      1  0.4788370000000  0.6093170000000  0.4756530000000 1.0
C      1  0.4784810000000  0.5087890000000  0.4370840000000 1.0
C      1  0.4094380000000  0.4935400000000  0.4300110000000 1.0
C      1  0.4663490000000  0.5256760000000  0.4921240000000 1.0
C      1  0.4925730000000  0.5166380000000  0.5424090000000 1.0
C      1  0.4244070000000  0.4255100000000  0.4642160000000 1.0
C      1  0.6078110000000  0.4961310000000  0.4904510000000 1.0
C      1  0.4766780000000  0.5440140000000  0.3939520000000 1.0
C      1  0.4106770000000  0.5769480000000  0.4642630000000 1.0
C      1  0.5076440000000  0.5247820000000  0.6230890000000 1.0
C      1  0.5412410000000  0.4159240000000  0.5641350000000 1.0
C      1  0.4797220000000  0.4923610000000  0.5394430000000 1.0
C      1  0.4101460000000  0.5752130000000  0.4939090000000 1.0
C      1  0.4638790000000  0.4291610000000  0.4362470000000 1.0
C      1  0.5613390000000  0.4184750000000  0.5437480000000 1.0
C      1  0.4913830000000  0.4846070000000  0.4774580000000 1.0
C      1  0.4621550000000  0.4836190000000  0.5197450000000 1.0
C      1  0.5810670000000  0.5279630000000  0.5329450000000 1.0
C      1  0.5841150000000  0.4369590000000  0.5512840000000 1.0
C      1  0.4533460000000  0.5720730000000  0.4324700000000 1.0
C      1  0.4414160000000  0.4101120000000  0.5568110000000 1.0
C      1  0.4406040000000  0.6079570000000  0.5294990000000 1.0
C      1  0.4079930000000  0.5133320000000  0.4514700000000 1.0
C      1  0.4550610000000  0.5560230000000  0.5721780000000 1.0
C      1  0.5756960000000  0.5253350000000  0.5616920000000 1.0
C      1  0.4641360000000  0.5615240000000  0.4101780000000 1.0
C      1  0.4214330000000  0.5485610000000  0.4973990000000 1.0
C      1  0.5645380000000  0.4613950000000  0.3710930000000 1.0
C      1  0.5450080000000  0.4634610000000  0.4782460000000 1.0
C      1  0.5764440000000  0.4587920000000  0.5686170000000 1.0
C      1  0.5622410000000  0.5412990000000  0.4061490000000 1.0
C      1  0.4511320000000  0.5129740000000  0.4306040000000 1.0
C      1  0.5787440000000  0.4407720000000  0.5060240000000 1.0
C      1  0.6200920000000  0.4779900000000  0.4728450000000 1.0
C      1  0.5256630000000  0.4818520000000  0.4025370000000 1.0
C      1  0.4494180000000  0.5912730000000  0.5084690000000 1.0
C      1  0.4917610000000  0.5225800000000  0.3875070000000 1.0
C      1  0.4867200000000  0.4709350000000  0.5566630000000 1.0
C      1  0.4777580000000  0.4815180000000  0.4516820000000 1.0
C      1  0.5206760000000  0.4704230000000  0.4289570000000 1.0
C      1  0.4550110000000  0.5945300000000  0.4799640000000 1.0
C      1  0.3959940000000  0.4927660000000  0.5321520000000 1.0
C      1  0.3921470000000  0.4778810000000  0.5077660000000 1.0
C      1  0.5835510000000  0.5289180000000  0.4195050000000 1.0
C      1  0.5381470000000  0.4735080000000  0.5438010000000 1.0
C      1  0.5089360000000  0.5273170000000  0.4689640000000 1.0
C      1  0.4749310000000  0.3830080000000  0.4260190000000 1.0
C      1  0.5038030000000  0.5622770000000  0.5004610000000 1.0
C      1  0.4641550000000  0.4128290000000  0.5424010000000 1.0
C      1  0.6044590000000  0.5435550000000  0.4309350000000 1.0
C      1  0.6256120000000  0.4456920000000  0.5246510000000 1.0
C      1  0.5799540000000  0.5022990000000  0.4275830000000 1.0
C      1  0.4924430000000  0.5116190000000  0.4845740000000 1.0
C      1  0.4705080000000  0.3619520000000  0.4113140000000 1.0
C      1  0.5083970000000  0.5017740000000  0.3916340000000 1.0
C      1  0.5234860000000  0.5669580000000  0.4522920000000 1.0
C      1  0.5813100000000  0.4902270000000  0.4998550000000 1.0
C      1  0.5182450000000  0.4059000000000  0.4809630000000 1.0
C      1  0.4510320000000  0.4679310000000  0.4082490000000 1.0
C      1  0.4002830000000  0.5290160000000  0.4988320000000 1.0
C      1  0.4992340000000  0.4604640000000  0.4878730000000 1.0
C      1  0.4979850000000  0.5309890000000  0.5658200000000 1.0
C      1  0.4971780000000  0.4494840000000  0.5408500000000 1.0
C      1  0.5260050000000  0.5318730000000  0.6045700000000 1.0
C      1  0.6370920000000  0.5210020000000  0.5483760000000 1.0
C      1  0.4736780000000  0.5359990000000  0.5812230000000 1.0
C      1  0.6229360000000  0.5194520000000  0.4971570000000 1.0
C      1  0.4932240000000  0.4642740000000  0.4323730000000 1.0
C      1  0.3985740000000  0.5205090000000  0.5268890000000 1.0
C      1  0.4155530000000  0.4659850000000  0.4972940000000 1.0
C      1  0.5421900000000  0.4709640000000  0.4496310000000 1.0
C      1  0.4793820000000  0.4057940000000  0.4416470000000 1.0
C      1  0.5478400000000  0.4616220000000  0.5681050000000 1.0
C      1  0.4106840000000  0.4776550000000  0.5528870000000 1.0
C      1  0.4442340000000  0.5423280000000  0.4749010000000 1.0
C      1  0.4502950000000  0.4998340000000  0.4994090000000 1.0
C      1  0.4743620000000  0.4699310000000  0.5817430000000 1.0
C      1  0.4425850000000  0.5729940000000  0.4603470000000 1.0
C      1  0.5577060000000  0.4207870000000  0.5141940000000 1.0
C      1  0.5458440000000  0.4999100000000  0.5379560000000 1.0
C      1  0.4852300000000  0.5077160000000  0.6202210000000 1.0
C      1  0.5906220000000  0.4811910000000  0.5779530000000 1.0
C      1  0.5005020000000  0.6090740000000  0.4921570000000 1.0
C      1  0.3907080000000  0.5564320000000  0.4574070000000 1.0
C      1  0.4990500000000  0.4045500000000  0.4621270000000 1.0
C      1  0.4284540000000  0.4878290000000  0.5731940000000 1.0
C      1  0.5331470000000  0.4392090000000  0.5789870000000 1.0
C      1  0.5334670000000  0.4219690000000  0.4985300000000 1.0
C      1  0.5955560000000  0.5089810000000  0.5746920000000 1.0
C      1  0.5175370000000  0.5485330000000  0.4302440000000 1.0
C      1  0.5165770000000  0.5535630000000  0.4769190000000 1.0
C      1  0.4455550000000  0.4402080000000  0.4551960000000 1.0
C      1  0.4454440000000  0.6021630000000  0.5557060000000 1.0
C      1  0.5247130000000  0.4510370000000  0.4980530000000 1.0
C      1  0.6362280000000  0.5215190000000  0.5217200000000 1.0
C      1  0.5988550000000  0.4421750000000  0.5269280000000 1.0
C      1  0.4102520000000  0.5369440000000  0.5471030000000 1.0
C      1  0.6223080000000  0.5169200000000  0.5703590000000 1.0
C      1  0.5364100000000  0.5471530000000  0.4096560000000 1.0
C      1  0.4361680000000  0.4907650000000  0.4175740000000 1.0
C      1  0.5123520000000  0.4439720000000  0.5973490000000 1.0
END
