TITL C-627112-676-518 1.09013437576906 125000 -318.677246461814 0 0 55 (C1) n - 1
REM
REM in /home/nfs/bkarasulu/CARBON/AIRSS/Generating-Clusters/LCBOP/Only-C1/SD-CG/FIRE-CG
REM
REM
REM
REM
REM
REM ./C.cell (11c1c37f851c82e70ff6c80c92926a4b)
REM AIRSS Version 0.9.1 bugfix July 2018 build 013d7b7c2542+ Fri, 06 Jul 2018 19:26:36 +0100
REM compiler GCC version 9.2.1 20190827 (Red Hat 9.2.1-1)
REM options -cpp -mtune=generic -march=x86-64 -g -O0 -fpre-include=/usr/include/finclude/math-vector-fortran.h
REM seed -2023765556 847589125 -609891454 830063636 -274218518 -1055443752 -973361202 -897479139 -1785176304 -2027254974 104788323 1329796496 -1686827288 -2066615921 -1938165653 491085503 1712944844 -189805150 1685400544 1331951298 2077345938 2102284282 682111569 -431626836 986806657 1866955204 -1671396626 -1100085767 -2110739409 -801721528 -1166598803 643863839 -650466320
REM
CELL 1.54180   50.00000   50.00000   50.00000   90.00000   90.00000   90.00000
LATT -1
SFAC C  
C      1  0.4461880000000  0.4952290000000  0.5083860000000 1.0
C      1  0.5212730000000  0.4415770000000  0.5038250000000 1.0
C      1  0.5240050000000  0.4974510000000  0.5832380000000 1.0
C      1  0.5048740000000  0.4730270000000  0.4772630000000 1.0
C      1  0.4732210000000  0.5023810000000  0.4998470000000 1.0
C      1  0.4794650000000  0.4784710000000  0.4856070000000 1.0
C      1  0.4456590000000  0.4503010000000  0.5140940000000 1.0
C      1  0.5751120000000  0.5054990000000  0.5565760000000 1.0
C      1  0.4778030000000  0.5691610000000  0.4568830000000 1.0
C      1  0.4833110000000  0.4707950000000  0.4185360000000 1.0
C      1  0.5419070000000  0.4853980000000  0.4509400000000 1.0
C      1  0.5575470000000  0.4849490000000  0.5468970000000 1.0
C      1  0.5506250000000  0.5054680000000  0.4332430000000 1.0
C      1  0.5131550000000  0.4871280000000  0.4554870000000 1.0
C      1  0.4365460000000  0.5083630000000  0.4645990000000 1.0
C      1  0.5703890000000  0.5480940000000  0.4926930000000 1.0
C      1  0.5323460000000  0.4818010000000  0.5599280000000 1.0
C      1  0.4585350000000  0.4910330000000  0.5508710000000 1.0
C      1  0.4815680000000  0.5120730000000  0.6062570000000 1.0
C      1  0.4395340000000  0.5438900000000  0.5017790000000 1.0
C      1  0.4831940000000  0.4847800000000  0.5634210000000 1.0
C      1  0.4529450000000  0.5371160000000  0.6425380000000 1.0
C      1  0.5209380000000  0.4701260000000  0.5008330000000 1.0
C      1  0.4758670000000  0.5544650000000  0.4342810000000 1.0
C      1  0.5314700000000  0.5266100000000  0.4329000000000 1.0
C      1  0.4877880000000  0.4276940000000  0.4674970000000 1.0
C      1  0.4375670000000  0.5356990000000  0.4754160000000 1.0
C      1  0.5291300000000  0.5380620000000  0.4609550000000 1.0
C      1  0.5063070000000  0.4714140000000  0.5510820000000 1.0
C      1  0.5800670000000  0.5271680000000  0.5394420000000 1.0
C      1  0.5536270000000  0.5474560000000  0.4720310000000 1.0
C      1  0.4856790000000  0.5286650000000  0.4304410000000 1.0
C      1  0.5002630000000  0.4910490000000  0.4081470000000 1.0
C      1  0.4672350000000  0.5246670000000  0.6246370000000 1.0
C      1  0.4996540000000  0.5166070000000  0.5007450000000 1.0
C      1  0.5085400000000  0.5193230000000  0.4155550000000 1.0
C      1  0.5598490000000  0.4749670000000  0.4702670000000 1.0
C      1  0.4952590000000  0.4992510000000  0.5859330000000 1.0
C      1  0.4474920000000  0.4439330000000  0.4871970000000 1.0
C      1  0.4271790000000  0.4940870000000  0.4875730000000 1.0
C      1  0.4641570000000  0.4659760000000  0.4418380000000 1.0
C      1  0.4904660000000  0.5607500000000  0.4792800000000 1.0
C      1  0.5687120000000  0.4721390000000  0.4955640000000 1.0
C      1  0.4474030000000  0.4750580000000  0.5290380000000 1.0
C      1  0.5789570000000  0.5412010000000  0.5168990000000 1.0
C      1  0.5071610000000  0.4253610000000  0.4866560000000 1.0
C      1  0.4509930000000  0.5192930000000  0.5474440000000 1.0
C      1  0.5202100000000  0.4978930000000  0.5107000000000 1.0
C      1  0.5071710000000  0.5377150000000  0.4813010000000 1.0
C      1  0.5656810000000  0.4731290000000  0.5223370000000 1.0
C      1  0.5871160000000  0.5035510000000  0.5810420000000 1.0
C      1  0.4831180000000  0.5071800000000  0.4487760000000 1.0
C      1  0.4573850000000  0.4941480000000  0.4503660000000 1.0
C      1  0.4442550000000  0.5375700000000  0.5280370000000 1.0
C      1  0.4641060000000  0.4438050000000  0.4628810000000 1.0
END
