TITL C-627111-6168-1280 -2.54683666508156e-06 125000 -652.615814299936 0 0 108 (C1) n - 1
REM
REM in /home/nfs/bkarasulu/CARBON/AIRSS/Generating-Clusters/LCBOP/Only-C1/SD-CG/FIRE-CG
REM
REM
REM
REM
REM
REM ./C.cell (11c1c37f851c82e70ff6c80c92926a4b)
REM AIRSS Version 0.9.1 bugfix July 2018 build 013d7b7c2542+ Fri, 06 Jul 2018 19:26:36 +0100
REM compiler GCC version 9.2.1 20190827 (Red Hat 9.2.1-1)
REM options -cpp -mtune=generic -march=x86-64 -g -O0 -fpre-include=/usr/include/finclude/math-vector-fortran.h
REM seed 178643111 -634965247 -1438151049 -638234902 -163061544 917459214 909291494 -290800097 1695074745 -1604933596 -2018986095 -1952519670 689237663 -1526849912 843350742 -983317733 1966942205 -521852240 -2008780749 150514460 -779118315 1867676153 -251784685 -1371813616 -553753198 -529569303 -276069142 -2072195659 1459285679 1150965801 723607971 -678900657 -1845670129
REM
CELL 1.54180   50.00000   50.00000   50.00000   90.00000   90.00000   90.00000
LATT -1
SFAC C  
C      1  0.5409130000000  0.5305570000000  0.5632340000000 1.0
C      1  0.4868420000000  0.4331290000000  0.5313140000000 1.0
C      1  0.6154690000000  0.5550040000000  0.4021900000000 1.0
C      1  0.4025490000000  0.5018850000000  0.4229740000000 1.0
C      1  0.5763370000000  0.4658850000000  0.4382590000000 1.0
C      1  0.5823090000000  0.5193930000000  0.4414720000000 1.0
C      1  0.5846780000000  0.4986430000000  0.5942470000000 1.0
C      1  0.5203690000000  0.5248610000000  0.4962850000000 1.0
C      1  0.4058890000000  0.4764890000000  0.5171030000000 1.0
C      1  0.4468720000000  0.4352000000000  0.4764200000000 1.0
C      1  0.5322350000000  0.4194510000000  0.5548880000000 1.0
C      1  0.5445110000000  0.3919560000000  0.5102420000000 1.0
C      1  0.4807370000000  0.4932620000000  0.5048980000000 1.0
C      1  0.5255570000000  0.5631980000000  0.4682520000000 1.0
C      1  0.5092090000000  0.5173390000000  0.4233780000000 1.0
C      1  0.4338900000000  0.5344330000000  0.5078740000000 1.0
C      1  0.5744270000000  0.5368830000000  0.4202930000000 1.0
C      1  0.5160770000000  0.4795440000000  0.5489960000000 1.0
C      1  0.5477660000000  0.5799340000000  0.4191390000000 1.0
C      1  0.5685580000000  0.5474870000000  0.5092130000000 1.0
C      1  0.5919030000000  0.5282150000000  0.4664000000000 1.0
C      1  0.5685730000000  0.5974760000000  0.4193580000000 1.0
C      1  0.4526100000000  0.4630780000000  0.4769720000000 1.0
C      1  0.5520230000000  0.5022650000000  0.5277040000000 1.0
C      1  0.5127460000000  0.5260880000000  0.5581290000000 1.0
C      1  0.3714860000000  0.5150860000000  0.5154070000000 1.0
C      1  0.4479140000000  0.4899730000000  0.5415410000000 1.0
C      1  0.4672210000000  0.3814850000000  0.5055810000000 1.0
C      1  0.5927820000000  0.5400790000000  0.3986100000000 1.0
C      1  0.4893060000000  0.4464360000000  0.5062880000000 1.0
C      1  0.5581450000000  0.4233710000000  0.5451470000000 1.0
C      1  0.5868100000000  0.4691730000000  0.5556480000000 1.0
C      1  0.4150370000000  0.4604650000000  0.5624890000000 1.0
C      1  0.4742180000000  0.5870300000000  0.6008760000000 1.0
C      1  0.4498090000000  0.5468180000000  0.5279680000000 1.0
C      1  0.5879360000000  0.4154070000000  0.5072060000000 1.0
C      1  0.5072330000000  0.4223780000000  0.5466620000000 1.0
C      1  0.5136580000000  0.4496930000000  0.4915910000000 1.0
C      1  0.4874280000000  0.5048110000000  0.4322560000000 1.0
C      1  0.5157170000000  0.4352720000000  0.4670460000000 1.0
C      1  0.6078880000000  0.4330960000000  0.5051280000000 1.0
C      1  0.3857910000000  0.5774850000000  0.5554210000000 1.0
C      1  0.5625090000000  0.4442890000000  0.4450560000000 1.0
C      1  0.5710170000000  0.5578270000000  0.5373920000000 1.0
C      1  0.4546520000000  0.5730060000000  0.5879670000000 1.0
C      1  0.4375090000000  0.4239140000000  0.5013960000000 1.0
C      1  0.3670250000000  0.5393610000000  0.5252430000000 1.0
C      1  0.4448810000000  0.3964950000000  0.5047400000000 1.0
C      1  0.4851850000000  0.5634100000000  0.4928730000000 1.0
C      1  0.4608840000000  0.4322420000000  0.5417010000000 1.0
C      1  0.5642380000000  0.4092280000000  0.5208510000000 1.0
C      1  0.4749290000000  0.4603410000000  0.4214550000000 1.0
C      1  0.4671370000000  0.4206310000000  0.4624780000000 1.0
C      1  0.4297380000000  0.5845910000000  0.5823200000000 1.0
C      1  0.4852320000000  0.5042020000000  0.6014920000000 1.0
C      1  0.5816850000000  0.4917900000000  0.4367300000000 1.0
C      1  0.5541980000000  0.5551020000000  0.5586230000000 1.0
C      1  0.4360890000000  0.5112450000000  0.5563030000000 1.0
C      1  0.4467530000000  0.5374520000000  0.5549800000000 1.0
C      1  0.5470850000000  0.5780920000000  0.4736280000000 1.0
C      1  0.4290660000000  0.5668290000000  0.4493940000000 1.0
C      1  0.4273440000000  0.4665560000000  0.5351800000000 1.0
C      1  0.5057410000000  0.6030390000000  0.4368740000000 1.0
C      1  0.6085710000000  0.4705910000000  0.5377490000000 1.0
C      1  0.5073130000000  0.4992550000000  0.4951460000000 1.0
C      1  0.4937310000000  0.3775920000000  0.5051440000000 1.0
C      1  0.5195390000000  0.5875110000000  0.4181540000000 1.0
C      1  0.4046500000000  0.4549880000000  0.5857280000000 1.0
C      1  0.4588860000000  0.5462940000000  0.5793000000000 1.0
C      1  0.4721600000000  0.5603420000000  0.5176270000000 1.0
C      1  0.5068190000000  0.5634160000000  0.4084740000000 1.0
C      1  0.4722510000000  0.5269540000000  0.5953450000000 1.0
C      1  0.5497170000000  0.5505710000000  0.4187480000000 1.0
C      1  0.4058910000000  0.5857860000000  0.5706740000000 1.0
C      1  0.5143050000000  0.4703820000000  0.5758960000000 1.0
C      1  0.4171610000000  0.5169430000000  0.4403980000000 1.0
C      1  0.4388250000000  0.4401010000000  0.5256820000000 1.0
C      1  0.4310920000000  0.5184230000000  0.4866620000000 1.0
C      1  0.5410870000000  0.4326360000000  0.4555460000000 1.0
C      1  0.4478330000000  0.5782810000000  0.4643200000000 1.0
C      1  0.3854210000000  0.4926970000000  0.5120960000000 1.0
C      1  0.5227140000000  0.5398880000000  0.4144300000000 1.0
C      1  0.4497270000000  0.4833080000000  0.4570740000000 1.0
C      1  0.5346800000000  0.4795000000000  0.5263340000000 1.0
C      1  0.5026910000000  0.4244470000000  0.4037330000000 1.0
C      1  0.4742100000000  0.5815940000000  0.4732350000000 1.0
C      1  0.5088100000000  0.5488580000000  0.4856700000000 1.0
C      1  0.4984650000000  0.5032900000000  0.5476830000000 1.0
C      1  0.5243500000000  0.4751370000000  0.4997530000000 1.0
C      1  0.5766540000000  0.4924470000000  0.5688560000000 1.0
C      1  0.5467060000000  0.5248990000000  0.5094670000000 1.0
C      1  0.5636840000000  0.5730300000000  0.4937980000000 1.0
C      1  0.4906120000000  0.4372180000000  0.4245360000000 1.0
C      1  0.4717290000000  0.4678480000000  0.4970140000000 1.0
C      1  0.4691450000000  0.4838280000000  0.4358510000000 1.0
C      1  0.5201880000000  0.3816610000000  0.5058070000000 1.0
C      1  0.4923250000000  0.4280430000000  0.4515810000000 1.0
C      1  0.5580960000000  0.5087000000000  0.5548990000000 1.0
C      1  0.4181170000000  0.5449530000000  0.4389020000000 1.0
C      1  0.4747580000000  0.4978130000000  0.5323720000000 1.0
C      1  0.6165850000000  0.4554760000000  0.5170480000000 1.0
C      1  0.5874450000000  0.5280180000000  0.3746000000000 1.0
C      1  0.5005080000000  0.4826920000000  0.5958500000000 1.0
C      1  0.5733580000000  0.4443390000000  0.5560600000000 1.0
C      1  0.4321590000000  0.5052990000000  0.4616850000000 1.0
C      1  0.3722020000000  0.5612330000000  0.5393990000000 1.0
C      1  0.4902570000000  0.5995750000000  0.4585140000000 1.0
C      1  0.5902510000000  0.5347860000000  0.4923850000000 1.0
END
