TITL C-627107-135-517 268662.971152759 125000 -851.926135985337 0 0 140 (C1) n - 1
REM
REM in /home/nfs/bkarasulu/CARBON/AIRSS/Generating-Clusters/LCBOP/Only-C1/SD-CG/FIRE-CG
REM
REM
REM
REM
REM
REM ./C.cell (11c1c37f851c82e70ff6c80c92926a4b)
REM AIRSS Version 0.9.1 bugfix July 2018 build 013d7b7c2542+ Fri, 06 Jul 2018 19:26:36 +0100
REM compiler GCC version 9.2.1 20190827 (Red Hat 9.2.1-1)
REM options -cpp -mtune=generic -march=x86-64 -g -O0 -fpre-include=/usr/include/finclude/math-vector-fortran.h
REM seed -941254247 -530588718 1100423178 1528315023 -1444765294 -1008254803 1684814611 1213699446 -908199400 1619806441 1863407183 1713721173 655507770 -870122511 1295133077 -1810284869 1078719912 1146393259 -2085796028 -376039366 -798697834 -1458504850 273997759 1307066923 186039967 979037549 -866873377 53075355 1987221789 1596307910 -182989162 -76471754 712813874
REM
CELL 1.54180   50.00000   50.00000   50.00000   90.00000   90.00000   90.00000
LATT -1
SFAC C  
C      1  0.5423060000000  0.5072020000000  0.4645440000000 1.0
C      1  0.5475010000000  0.4668880000000  0.4336460000000 1.0
C      1  0.4847960000000  0.3787840000000  0.5285190000000 1.0
C      1  0.5880690000000  0.5284220000000  0.5579030000000 1.0
C      1  0.5349430000000  0.3083510000000  0.4953660000000 1.0
C      1  0.5275710000000  0.5543700000000  0.5930400000000 1.0
C      1  0.4639790000000  0.5670660000000  0.4117240000000 1.0
C      1  0.5015360000000  0.5431140000000  0.5539900000000 1.0
C      1  0.4710950000000  0.5521050000000  0.3904800000000 1.0
C      1  0.5192020000000  0.4862760000000  0.3964670000000 1.0
C      1  0.4410200000000  0.5994290000000  0.5159790000000 1.0
C      1  0.4149950000000  0.5206670000000  0.5222500000000 1.0
C      1  0.5834910000000  0.5871810000000  0.5046460000000 1.0
C      1  0.4011090000000  0.5401960000000  0.4615330000000 1.0
C      1  0.4701930000000  0.5011010000000  0.3898590000000 1.0
C      1  0.4429470000000  0.5231330000000  0.4213990000000 1.0
C      1  0.4836370000000  0.4072050000000  0.5263700000000 1.0
C      1  0.4440120000000  0.5121010000000  0.4675290000000 1.0
C      1  0.5161530000000  0.5637600000000  0.4510950000000 1.0
C      1  0.4969520000000  0.5838720000000  0.4422320000000 1.0
C      1  0.4586030000000  0.5874400000000  0.5360200000000 1.0
C      1  0.5147510000000  0.4931640000000  0.6348220000000 1.0
C      1  0.4595000000000  0.5070640000000  0.5995180000000 1.0
C      1  0.5390990000000  0.3313510000000  0.5402620000000 1.0
C      1  0.5280030000000  0.4803970000000  0.5555850000000 1.0
C      1  0.4966950000000  0.4442510000000  0.4610300000000 1.0
C      1  0.5471570000000  0.5670450000000  0.5389090000000 1.0
C      1  0.5458620000000  0.4777410000000  0.4595130000000 1.0
C      1  0.4606720000000  0.5499800000000  0.6323750000000 1.0
C      1  0.5366490000000  0.5946370000000  0.4888450000000 1.0
C      1  0.5511240000000  0.5412810000000  0.5912580000000 1.0
C      1  0.4211020000000  0.5554890000000  0.5197950000000 1.0
C      1  0.4575790000000  0.5250490000000  0.4453850000000 1.0
C      1  0.4529780000000  0.4865510000000  0.5309740000000 1.0
C      1  0.4764470000000  0.3450440000000  0.4886860000000 1.0
C      1  0.4451420000000  0.5605390000000  0.5384560000000 1.0
C      1  0.5530690000000  0.4694270000000  0.5067840000000 1.0
C      1  0.4025900000000  0.4804940000000  0.4832060000000 1.0
C      1  0.5911850000000  0.5832030000000  0.4773440000000 1.0
C      1  0.5531710000000  0.5470950000000  0.4904420000000 1.0
C      1  0.3954720000000  0.4855580000000  0.4552290000000 1.0
C      1  0.4482130000000  0.4636320000000  0.4873870000000 1.0
C      1  0.4777900000000  0.4838170000000  0.5169580000000 1.0
C      1  0.5331820000000  0.5112780000000  0.3938170000000 1.0
C      1  0.4560400000000  0.5734680000000  0.4648170000000 1.0
C      1  0.5116780000000  0.6041900000000  0.5011260000000 1.0
C      1  0.4335720000000  0.4764370000000  0.4168770000000 1.0
C      1  0.4810180000000  0.4645870000000  0.4193820000000 1.0
C      1  0.6122960000000  0.5056040000000  0.4800510000000 1.0
C      1  0.5631170000000  0.5241260000000  0.5723360000000 1.0
C      1  0.4708940000000  0.4313200000000  0.4642710000000 1.0
C      1  0.4213950000000  0.4549860000000  0.5446650000000 1.0
C      1  0.5853030000000  0.5046240000000  0.4893820000000 1.0
C      1  0.4977030000000  0.4886660000000  0.5613420000000 1.0
C      1  0.4607220000000  0.4188990000000  0.5134580000000 1.0
C      1  0.6047720000000  0.4572190000000  0.5392210000000 1.0
C      1  0.5887420000000  0.5732020000000  0.4523430000000 1.0
C      1  0.4865880000000  0.5955460000000  0.5457790000000 1.0
C      1  0.5067790000000  0.5366270000000  0.4851820000000 1.0
C      1  0.4532860000000  0.4557330000000  0.4229440000000 1.0
C      1  0.5022600000000  0.3664230000000  0.5466770000000 1.0
C      1  0.5464730000000  0.5254260000000  0.4147930000000 1.0
C      1  0.4950670000000  0.5150850000000  0.5513200000000 1.0
C      1  0.4592260000000  0.4880570000000  0.4747620000000 1.0
C      1  0.5084350000000  0.4212990000000  0.5294650000000 1.0
C      1  0.5094070000000  0.5360490000000  0.4430910000000 1.0
C      1  0.5210300000000  0.5123910000000  0.4860020000000 1.0
C      1  0.5227630000000  0.3498140000000  0.5504250000000 1.0
C      1  0.5892430000000  0.5523640000000  0.4329170000000 1.0
C      1  0.4956280000000  0.6076120000000  0.4576790000000 1.0
C      1  0.6173960000000  0.5159090000000  0.4545430000000 1.0
C      1  0.5336090000000  0.5214250000000  0.4397210000000 1.0
C      1  0.4487560000000  0.4367080000000  0.4447100000000 1.0
C      1  0.4752860000000  0.4832340000000  0.6069120000000 1.0
C      1  0.4208950000000  0.4581290000000  0.4801240000000 1.0
C      1  0.4715310000000  0.4645880000000  0.5649160000000 1.0
C      1  0.4916550000000  0.3265730000000  0.4769220000000 1.0
C      1  0.4188850000000  0.4274110000000  0.5402150000000 1.0
C      1  0.5681100000000  0.5436340000000  0.4159740000000 1.0
C      1  0.5217060000000  0.4236210000000  0.5039980000000 1.0
C      1  0.4736020000000  0.3629760000000  0.5081650000000 1.0
C      1  0.5321060000000  0.4767530000000  0.5250890000000 1.0
C      1  0.4031460000000  0.4733190000000  0.5321220000000 1.0
C      1  0.4611240000000  0.4368360000000  0.4912280000000 1.0
C      1  0.5216520000000  0.5037720000000  0.5141640000000 1.0
C      1  0.5032560000000  0.4794290000000  0.6141340000000 1.0
C      1  0.5354590000000  0.4669070000000  0.4096020000000 1.0
C      1  0.5411330000000  0.5944830000000  0.5340710000000 1.0
C      1  0.5649230000000  0.5221490000000  0.4787670000000 1.0
C      1  0.5054010000000  0.5600520000000  0.5766320000000 1.0
C      1  0.4356990000000  0.4128950000000  0.5251290000000 1.0
C      1  0.5780020000000  0.4838620000000  0.5084890000000 1.0
C      1  0.6102060000000  0.5338640000000  0.4362810000000 1.0
C      1  0.5120150000000  0.6022320000000  0.5300210000000 1.0
C      1  0.5443180000000  0.3156940000000  0.5192820000000 1.0
C      1  0.4925910000000  0.5085200000000  0.5215490000000 1.0
C      1  0.5398430000000  0.5209880000000  0.5306150000000 1.0
C      1  0.4575150000000  0.5355530000000  0.5362140000000 1.0
C      1  0.4288260000000  0.5766570000000  0.4735680000000 1.0
C      1  0.4887930000000  0.5525450000000  0.5022540000000 1.0
C      1  0.4244500000000  0.5793830000000  0.5018910000000 1.0
C      1  0.4071650000000  0.5663150000000  0.4590060000000 1.0
C      1  0.4182010000000  0.5218420000000  0.4712240000000 1.0
C      1  0.5406030000000  0.4614900000000  0.4821220000000 1.0
C      1  0.5487840000000  0.5456100000000  0.5200310000000 1.0
C      1  0.4897410000000  0.6012000000000  0.4847880000000 1.0
C      1  0.4228870000000  0.4389520000000  0.4582900000000 1.0
C      1  0.5574060000000  0.5989450000000  0.5090130000000 1.0
C      1  0.4846980000000  0.4914180000000  0.4585670000000 1.0
C      1  0.4759350000000  0.5273800000000  0.3807110000000 1.0
C      1  0.5193130000000  0.4321600000000  0.5539440000000 1.0
C      1  0.5955160000000  0.5720590000000  0.5259450000000 1.0
C      1  0.4667970000000  0.4607530000000  0.5919600000000 1.0
C      1  0.5943790000000  0.4814260000000  0.5319020000000 1.0
C      1  0.4034060000000  0.4937730000000  0.5108560000000 1.0
C      1  0.5032500000000  0.5580600000000  0.5284320000000 1.0
C      1  0.5137100000000  0.4474070000000  0.4864630000000 1.0
C      1  0.4731380000000  0.5302420000000  0.5132640000000 1.0
C      1  0.4593850000000  0.5289210000000  0.6170790000000 1.0
C      1  0.4482030000000  0.4646260000000  0.5481360000000 1.0
C      1  0.4859320000000  0.5191240000000  0.4466080000000 1.0
C      1  0.4439260000000  0.5094760000000  0.5744720000000 1.0
C      1  0.5991260000000  0.5045600000000  0.5473470000000 1.0
C      1  0.4406690000000  0.5121770000000  0.5429240000000 1.0
C      1  0.4453440000000  0.5000630000000  0.4050230000000 1.0
C      1  0.5445940000000  0.5081740000000  0.5573860000000 1.0
C      1  0.4930440000000  0.5854010000000  0.5723700000000 1.0
C      1  0.5369910000000  0.5685960000000  0.4742560000000 1.0
C      1  0.4757220000000  0.5756960000000  0.4867720000000 1.0
C      1  0.4903940000000  0.4824770000000  0.3984050000000 1.0
C      1  0.4695040000000  0.5744770000000  0.4383130000000 1.0
C      1  0.6333370000000  0.4973220000000  0.4954610000000 1.0
C      1  0.4090200000000  0.4802690000000  0.4317840000000 1.0
C      1  0.5398040000000  0.4050880000000  0.4952290000000 1.0
C      1  0.5956780000000  0.5530240000000  0.5453110000000 1.0
C      1  0.5187290000000  0.4603410000000  0.5982110000000 1.0
C      1  0.5142900000000  0.3125600000000  0.4789420000000 1.0
C      1  0.4936710000000  0.4678760000000  0.4449360000000 1.0
C      1  0.4936530000000  0.4638010000000  0.5047400000000 1.0
C      1  0.5271890000000  0.4543110000000  0.5709970000000 1.0
END
