TITL C-627113-6568-1636 -7.4795550342463e-07 125000 -214.307694799324 0 0 36 (C1) n - 1
REM
REM in /home/nfs/bkarasulu/CARBON/AIRSS/Generating-Clusters/LCBOP/Only-C1/SD-CG/FIRE-CG
REM
REM
REM
REM
REM
REM ./C.cell (11c1c37f851c82e70ff6c80c92926a4b)
REM AIRSS Version 0.9.1 bugfix July 2018 build 013d7b7c2542+ Fri, 06 Jul 2018 19:26:36 +0100
REM compiler GCC version 9.2.1 20190827 (Red Hat 9.2.1-1)
REM options -cpp -mtune=generic -march=x86-64 -g -O0 -fpre-include=/usr/include/finclude/math-vector-fortran.h
REM seed 1289808213 -991151929 -2145272878 2036363814 -1689722465 1095017147 -1333766131 1188349309 2126537974 1801431397 86795302 -1350218366 548988905 -310557386 -1451007445 -1787064558 -1264758418 -942321031 -1036777553 -1939003371 2053958669 993987063 -181162266 -1602927580 391004569 236900832 -1294555138 167070000 1668791299 -1679474276 305774035 -799017003 717601772
REM
CELL 1.54180   50.00000   50.00000   50.00000   90.00000   90.00000   90.00000
LATT -1
SFAC C  
C      1  0.4270740000000  0.4786750000000  0.4198010000000 1.0
C      1  0.5268240000000  0.5572720000000  0.4975970000000 1.0
C      1  0.5057740000000  0.4766300000000  0.5574680000000 1.0
C      1  0.5251300000000  0.5034940000000  0.5942990000000 1.0
C      1  0.5458280000000  0.5174920000000  0.6045480000000 1.0
C      1  0.4827480000000  0.4736190000000  0.4378210000000 1.0
C      1  0.5238210000000  0.4956480000000  0.5672430000000 1.0
C      1  0.5121150000000  0.5685930000000  0.4786340000000 1.0
C      1  0.4757000000000  0.5643240000000  0.4413630000000 1.0
C      1  0.5209260000000  0.4680740000000  0.5137440000000 1.0
C      1  0.4666970000000  0.4526550000000  0.4779660000000 1.0
C      1  0.5365840000000  0.5379500000000  0.5129360000000 1.0
C      1  0.5287980000000  0.4903400000000  0.4525530000000 1.0
C      1  0.4943810000000  0.5708620000000  0.4590290000000 1.0
C      1  0.5396520000000  0.4926150000000  0.4767790000000 1.0
C      1  0.5010060000000  0.4635990000000  0.5331050000000 1.0
C      1  0.5442070000000  0.5072820000000  0.5502720000000 1.0
C      1  0.4580170000000  0.5501480000000  0.4275780000000 1.0
C      1  0.4430490000000  0.5300250000000  0.4189420000000 1.0
C      1  0.4159030000000  0.4637190000000  0.3998290000000 1.0
C      1  0.4338430000000  0.4668430000000  0.4446840000000 1.0
C      1  0.5688330000000  0.5160750000000  0.5623610000000 1.0
C      1  0.4583260000000  0.4491540000000  0.5046900000000 1.0
C      1  0.5354890000000  0.4901780000000  0.5043430000000 1.0
C      1  0.4611870000000  0.4636200000000  0.4525960000000 1.0
C      1  0.5075130000000  0.4834120000000  0.4381110000000 1.0
C      1  0.4138220000000  0.4596720000000  0.4632480000000 1.0
C      1  0.6069590000000  0.5571310000000  0.6097680000000 1.0
C      1  0.5881860000000  0.5418830000000  0.6000580000000 1.0
C      1  0.5397340000000  0.5118210000000  0.5224780000000 1.0
C      1  0.4303570000000  0.4470980000000  0.5077560000000 1.0
C      1  0.5683030000000  0.5255940000000  0.5894570000000 1.0
C      1  0.5924180000000  0.5145870000000  0.5485080000000 1.0
C      1  0.4116610000000  0.4518910000000  0.4888890000000 1.0
C      1  0.4767860000000  0.4521050000000  0.5253830000000 1.0
C      1  0.4323510000000  0.5059220000000  0.4161610000000 1.0
END
