TITL C-627110-360-1795 0.0132947240755997 125000 -733.937409933421 0 0 122 (C1) n - 1
REM
REM in /home/nfs/bkarasulu/CARBON/AIRSS/Generating-Clusters/LCBOP/Only-C1/SD-CG/FIRE-CG
REM
REM
REM
REM
REM
REM ./C.cell (11c1c37f851c82e70ff6c80c92926a4b)
REM AIRSS Version 0.9.1 bugfix July 2018 build 013d7b7c2542+ Fri, 06 Jul 2018 19:26:36 +0100
REM compiler GCC version 9.2.1 20190827 (Red Hat 9.2.1-1)
REM options -cpp -mtune=generic -march=x86-64 -g -O0 -fpre-include=/usr/include/finclude/math-vector-fortran.h
REM seed 1020018826 -638238687 245404934 2047861435 -1928980973 -657909151 -334587345 -1127615380 1975155581 -1889362010 -1365778684 2074740289 839259627 -1320391018 -1598520750 -1850758226 498715831 -1314316366 1606257999 -1547315441 1112217667 -1574238420 641793713 937142299 422889476 -2090697974 -1607952775 592189125 -1484332227 -354872111 -573619460 548992394 1109060453
REM
CELL 1.54180   50.00000   50.00000   50.00000   90.00000   90.00000   90.00000
LATT -1
SFAC C  
C      1  0.5066600000000  0.5012490000000  0.4051000000000 1.0
C      1  0.4930810000000  0.4077270000000  0.4332370000000 1.0
C      1  0.5083020000000  0.4999200000000  0.3774910000000 1.0
C      1  0.4131510000000  0.5006290000000  0.4831900000000 1.0
C      1  0.5118970000000  0.3722100000000  0.4893810000000 1.0
C      1  0.4658700000000  0.4495280000000  0.4860350000000 1.0
C      1  0.5198960000000  0.5257780000000  0.5444770000000 1.0
C      1  0.5109810000000  0.4997180000000  0.3511370000000 1.0
C      1  0.5414830000000  0.5106090000000  0.5538270000000 1.0
C      1  0.4964250000000  0.4535980000000  0.5331340000000 1.0
C      1  0.4533610000000  0.4438160000000  0.5885160000000 1.0
C      1  0.5714520000000  0.5953580000000  0.4834680000000 1.0
C      1  0.5808780000000  0.5473050000000  0.4767470000000 1.0
C      1  0.5703740000000  0.4496170000000  0.5697680000000 1.0
C      1  0.4718760000000  0.5070360000000  0.5824390000000 1.0
C      1  0.4626430000000  0.5915320000000  0.4757650000000 1.0
C      1  0.5608860000000  0.4190510000000  0.4962920000000 1.0
C      1  0.4755890000000  0.4698270000000  0.5470430000000 1.0
C      1  0.5058180000000  0.5671250000000  0.5161160000000 1.0
C      1  0.4405870000000  0.5246350000000  0.5336450000000 1.0
C      1  0.4766840000000  0.4529610000000  0.5990900000000 1.0
C      1  0.5599540000000  0.5169330000000  0.4135310000000 1.0
C      1  0.4534260000000  0.4999570000000  0.5228640000000 1.0
C      1  0.4275330000000  0.4882160000000  0.5587890000000 1.0
C      1  0.4531380000000  0.4744460000000  0.4783650000000 1.0
C      1  0.5000720000000  0.5997850000000  0.5446960000000 1.0
C      1  0.4978900000000  0.5584710000000  0.4200920000000 1.0
C      1  0.5471360000000  0.4838100000000  0.4817880000000 1.0
C      1  0.4654200000000  0.6103210000000  0.4987940000000 1.0
C      1  0.4468200000000  0.5420140000000  0.5554460000000 1.0
C      1  0.5024180000000  0.5799380000000  0.4385860000000 1.0
C      1  0.4526860000000  0.5464270000000  0.4356040000000 1.0
C      1  0.5224910000000  0.5661650000000  0.6305080000000 1.0
C      1  0.5717140000000  0.5478290000000  0.5044520000000 1.0
C      1  0.4961460000000  0.3696960000000  0.5105680000000 1.0
C      1  0.4370740000000  0.5460940000000  0.4598510000000 1.0
C      1  0.4837120000000  0.5101640000000  0.4862590000000 1.0
C      1  0.4688720000000  0.3635580000000  0.5502640000000 1.0
C      1  0.5154660000000  0.4841420000000  0.5849680000000 1.0
C      1  0.4699390000000  0.4948580000000  0.4677950000000 1.0
C      1  0.5299670000000  0.5854740000000  0.4417100000000 1.0
C      1  0.5769770000000  0.5214110000000  0.4651490000000 1.0
C      1  0.4882710000000  0.5533900000000  0.4998540000000 1.0
C      1  0.4148740000000  0.4519280000000  0.4621860000000 1.0
C      1  0.5239680000000  0.4869190000000  0.4245080000000 1.0
C      1  0.5583470000000  0.4997790000000  0.4601260000000 1.0
C      1  0.4438700000000  0.4628540000000  0.4183200000000 1.0
C      1  0.5183940000000  0.4349790000000  0.5858120000000 1.0
C      1  0.5530810000000  0.4641020000000  0.5530120000000 1.0
C      1  0.5275170000000  0.5316540000000  0.4840590000000 1.0
C      1  0.5089760000000  0.4588190000000  0.5064290000000 1.0
C      1  0.5981560000000  0.4380300000000  0.5202110000000 1.0
C      1  0.5822300000000  0.5589580000000  0.5286370000000 1.0
C      1  0.5714480000000  0.4380450000000  0.5142560000000 1.0
C      1  0.4577390000000  0.3489080000000  0.5687190000000 1.0
C      1  0.5245810000000  0.3887660000000  0.4706920000000 1.0
C      1  0.5484240000000  0.4987640000000  0.4327820000000 1.0
C      1  0.4516590000000  0.4201420000000  0.5267340000000 1.0
C      1  0.5859660000000  0.4366220000000  0.5867970000000 1.0
C      1  0.4204600000000  0.5065430000000  0.4359220000000 1.0
C      1  0.5436190000000  0.5477740000000  0.5005910000000 1.0
C      1  0.5140690000000  0.4202080000000  0.5636510000000 1.0
C      1  0.3851110000000  0.4686960000000  0.5394000000000 1.0
C      1  0.4205880000000  0.5207390000000  0.4617410000000 1.0
C      1  0.4943020000000  0.4502940000000  0.4830190000000 1.0
C      1  0.4532620000000  0.4402320000000  0.4329630000000 1.0
C      1  0.5043360000000  0.4584270000000  0.5935400000000 1.0
C      1  0.6105170000000  0.5099530000000  0.3961950000000 1.0
C      1  0.4821750000000  0.5913330000000  0.4548070000000 1.0
C      1  0.4572550000000  0.5307830000000  0.5789560000000 1.0
C      1  0.4796840000000  0.5053740000000  0.5133380000000 1.0
C      1  0.5507690000000  0.5988130000000  0.5505250000000 1.0
C      1  0.4154580000000  0.5289090000000  0.5214580000000 1.0
C      1  0.4244710000000  0.4749820000000  0.4763360000000 1.0
C      1  0.4770340000000  0.5393390000000  0.4233990000000 1.0
C      1  0.5139310000000  0.4998900000000  0.3252360000000 1.0
C      1  0.4492010000000  0.6328270000000  0.4971830000000 1.0
C      1  0.5204370000000  0.5512900000000  0.4044110000000 1.0
C      1  0.4987280000000  0.4504440000000  0.4540610000000 1.0
C      1  0.4403380000000  0.4440030000000  0.5373450000000 1.0
C      1  0.6058200000000  0.5493220000000  0.5387390000000 1.0
C      1  0.5007670000000  0.5117520000000  0.5300380000000 1.0
C      1  0.5116630000000  0.3932830000000  0.4461330000000 1.0
C      1  0.5047960000000  0.4750260000000  0.4421450000000 1.0
C      1  0.4604130000000  0.5548450000000  0.5012090000000 1.0
C      1  0.5312640000000  0.5729080000000  0.5057810000000 1.0
C      1  0.4816200000000  0.4331000000000  0.4375690000000 1.0
C      1  0.5089510000000  0.5370810000000  0.5872580000000 1.0
C      1  0.4469450000000  0.5661750000000  0.4789660000000 1.0
C      1  0.5907260000000  0.6142450000000  0.4871700000000 1.0
C      1  0.5158770000000  0.5516600000000  0.6098960000000 1.0
C      1  0.4768110000000  0.4082660000000  0.5324630000000 1.0
C      1  0.4303430000000  0.4861830000000  0.4210470000000 1.0
C      1  0.5463530000000  0.5951550000000  0.4972070000000 1.0
C      1  0.5103950000000  0.5481300000000  0.5602380000000 1.0
C      1  0.4056210000000  0.5041730000000  0.5112700000000 1.0
C      1  0.4409780000000  0.5687250000000  0.5544420000000 1.0
C      1  0.4058120000000  0.4864390000000  0.5359660000000 1.0
C      1  0.4995050000000  0.5329000000000  0.4832900000000 1.0
C      1  0.4509750000000  0.4266300000000  0.4779990000000 1.0
C      1  0.4997820000000  0.5091030000000  0.5884670000000 1.0
C      1  0.5259470000000  0.6101160000000  0.5514130000000 1.0
C      1  0.4617750000000  0.4855770000000  0.5679460000000 1.0
C      1  0.5740590000000  0.5732610000000  0.4647200000000 1.0
C      1  0.5462650000000  0.4042350000000  0.4796530000000 1.0
C      1  0.5859130000000  0.5132960000000  0.4041050000000 1.0
C      1  0.4376400000000  0.4416330000000  0.5663510000000 1.0
C      1  0.4525910000000  0.4699090000000  0.5283460000000 1.0
C      1  0.6011150000000  0.4234460000000  0.6034240000000 1.0
C      1  0.4805000000000  0.3802220000000  0.5311490000000 1.0
C      1  0.5436400000000  0.5379030000000  0.4040190000000 1.0
C      1  0.5020960000000  0.5707230000000  0.5443260000000 1.0
C      1  0.5685400000000  0.5799360000000  0.5426880000000 1.0
C      1  0.4352280000000  0.4324950000000  0.4548650000000 1.0
C      1  0.5360120000000  0.4691740000000  0.5043700000000 1.0
C      1  0.4822780000000  0.4936120000000  0.4428660000000 1.0
C      1  0.4822710000000  0.6091240000000  0.5229380000000 1.0
C      1  0.4843840000000  0.5120540000000  0.4208960000000 1.0
C      1  0.5376930000000  0.4850260000000  0.5654490000000 1.0
C      1  0.4974620000000  0.4258480000000  0.5416530000000 1.0
C      1  0.5539640000000  0.4585190000000  0.5244370000000 1.0
C      1  0.5552190000000  0.5763390000000  0.4439000000000 1.0
END
