TITL C-627110-360-2132 -5.96577246523257e-07 125000 -578.369829829643 0 0 95 (C1) n - 1
REM
REM in /home/nfs/bkarasulu/CARBON/AIRSS/Generating-Clusters/LCBOP/Only-C1/SD-CG/FIRE-CG
REM
REM
REM
REM
REM
REM ./C.cell (11c1c37f851c82e70ff6c80c92926a4b)
REM AIRSS Version 0.9.1 bugfix July 2018 build 013d7b7c2542+ Fri, 06 Jul 2018 19:26:36 +0100
REM compiler GCC version 9.2.1 20190827 (Red Hat 9.2.1-1)
REM options -cpp -mtune=generic -march=x86-64 -g -O0 -fpre-include=/usr/include/finclude/math-vector-fortran.h
REM seed 1071861884 -1964576953 1886792293 -734868410 -1782723203 1438850550 -2029843021 -1939628385 128108221 -1119745436 -598940811 -1160166208 1612528438 -1469345437 -584428496 1798189922 -2059644170 -1155759399 -1547574451 -713338984 -1671273809 691558144 1069701673 479103148 -1844006553 430247249 -817709183 -905239234 -1469889693 -1862688484 87692774 -763868567 925542829
REM
CELL 1.54180   50.00000   50.00000   50.00000   90.00000   90.00000   90.00000
LATT -1
SFAC C  
C      1  0.4874310000000  0.5344200000000  0.5950240000000 1.0
C      1  0.5054060000000  0.4642480000000  0.4928730000000 1.0
C      1  0.4396590000000  0.4015230000000  0.4708720000000 1.0
C      1  0.4058370000000  0.5394570000000  0.4996120000000 1.0
C      1  0.4885650000000  0.5482570000000  0.4453010000000 1.0
C      1  0.4691380000000  0.4150470000000  0.5754160000000 1.0
C      1  0.4149270000000  0.5217890000000  0.4410800000000 1.0
C      1  0.5186010000000  0.5431920000000  0.4078620000000 1.0
C      1  0.4640480000000  0.4543880000000  0.4607830000000 1.0
C      1  0.5044730000000  0.4222310000000  0.4350020000000 1.0
C      1  0.5405650000000  0.5378940000000  0.5962380000000 1.0
C      1  0.5966850000000  0.4512500000000  0.4514770000000 1.0
C      1  0.6066400000000  0.5165480000000  0.4825170000000 1.0
C      1  0.5705630000000  0.5370730000000  0.5543110000000 1.0
C      1  0.5695900000000  0.4497040000000  0.5571410000000 1.0
C      1  0.4580700000000  0.5137750000000  0.4875100000000 1.0
C      1  0.4755920000000  0.5976420000000  0.4699740000000 1.0
C      1  0.5471040000000  0.4619590000000  0.5643930000000 1.0
C      1  0.5153190000000  0.5498300000000  0.4844170000000 1.0
C      1  0.4895800000000  0.5458120000000  0.4731430000000 1.0
C      1  0.4607340000000  0.5714750000000  0.5314650000000 1.0
C      1  0.5451150000000  0.5455990000000  0.4093940000000 1.0
C      1  0.4672750000000  0.5406030000000  0.4907280000000 1.0
C      1  0.5144660000000  0.5386990000000  0.6018570000000 1.0
C      1  0.4522170000000  0.5971380000000  0.5364910000000 1.0
C      1  0.5348560000000  0.5287910000000  0.4868090000000 1.0
C      1  0.4006590000000  0.4819350000000  0.5511270000000 1.0
C      1  0.5693970000000  0.5021050000000  0.5092730000000 1.0
C      1  0.4153210000000  0.4994530000000  0.5657830000000 1.0
C      1  0.4615930000000  0.3984630000000  0.4538840000000 1.0
C      1  0.6138570000000  0.4826290000000  0.5178910000000 1.0
C      1  0.4815610000000  0.5115690000000  0.4170920000000 1.0
C      1  0.5512670000000  0.4801270000000  0.5091190000000 1.0
C      1  0.4014440000000  0.5130150000000  0.5001690000000 1.0
C      1  0.4834570000000  0.4542570000000  0.4812650000000 1.0
C      1  0.4548080000000  0.5880910000000  0.4556980000000 1.0
C      1  0.4121560000000  0.4954700000000  0.4461210000000 1.0
C      1  0.5490020000000  0.5710440000000  0.5293030000000 1.0
C      1  0.4154950000000  0.3974570000000  0.5105400000000 1.0
C      1  0.4387170000000  0.4399650000000  0.5480610000000 1.0
C      1  0.4974510000000  0.5947020000000  0.4855840000000 1.0
C      1  0.6372530000000  0.4911300000000  0.5304260000000 1.0
C      1  0.4542750000000  0.5059960000000  0.5361410000000 1.0
C      1  0.4281670000000  0.3834260000000  0.4902850000000 1.0
C      1  0.5396260000000  0.4921420000000  0.4486200000000 1.0
C      1  0.5612310000000  0.5358790000000  0.5794100000000 1.0
C      1  0.5671970000000  0.4949560000000  0.4417890000000 1.0
C      1  0.5304260000000  0.5024840000000  0.4738940000000 1.0
C      1  0.4232560000000  0.5614660000000  0.5016660000000 1.0
C      1  0.4565870000000  0.4387080000000  0.5696810000000 1.0
C      1  0.4185230000000  0.4919580000000  0.5079630000000 1.0
C      1  0.4461230000000  0.5005300000000  0.5095250000000 1.0
C      1  0.4700200000000  0.4948910000000  0.4363020000000 1.0
C      1  0.5972390000000  0.5008020000000  0.5039060000000 1.0
C      1  0.4794100000000  0.5601780000000  0.5496140000000 1.0
C      1  0.4704610000000  0.4669770000000  0.4362650000000 1.0
C      1  0.4513760000000  0.5578860000000  0.5077790000000 1.0
C      1  0.5262490000000  0.4702800000000  0.4365620000000 1.0
C      1  0.6589530000000  0.4993880000000  0.5422600000000 1.0
C      1  0.5051140000000  0.5539060000000  0.5395960000000 1.0
C      1  0.5833570000000  0.4720270000000  0.4417240000000 1.0
C      1  0.4293670000000  0.4279720000000  0.4794600000000 1.0
C      1  0.5905760000000  0.4468140000000  0.5410230000000 1.0
C      1  0.6057580000000  0.4553190000000  0.5190810000000 1.0
C      1  0.5792400000000  0.5206710000000  0.4396170000000 1.0
C      1  0.4689620000000  0.4841220000000  0.5973120000000 1.0
C      1  0.4243430000000  0.5469930000000  0.4409390000000 1.0
C      1  0.4395170000000  0.5091550000000  0.5585790000000 1.0
C      1  0.6186060000000  0.4092760000000  0.4600540000000 1.0
C      1  0.4609190000000  0.5048590000000  0.4611480000000 1.0
C      1  0.6092730000000  0.4393470000000  0.4964330000000 1.0
C      1  0.4376910000000  0.5698720000000  0.4456470000000 1.0
C      1  0.4361030000000  0.4511850000000  0.4654630000000 1.0
C      1  0.4758260000000  0.5095850000000  0.6011860000000 1.0
C      1  0.5167150000000  0.5023330000000  0.5517600000000 1.0
C      1  0.5125830000000  0.5268650000000  0.5423870000000 1.0
C      1  0.5677750000000  0.5388240000000  0.4217450000000 1.0
C      1  0.5212940000000  0.5725310000000  0.5248730000000 1.0
C      1  0.4180590000000  0.4261040000000  0.5064460000000 1.0
C      1  0.5277090000000  0.4810800000000  0.4933980000000 1.0
C      1  0.5563540000000  0.5279290000000  0.5073510000000 1.0
C      1  0.4097850000000  0.4715480000000  0.5261350000000 1.0
C      1  0.4751550000000  0.5518410000000  0.5762800000000 1.0
C      1  0.6083580000000  0.4329100000000  0.4691780000000 1.0
C      1  0.4129330000000  0.5866790000000  0.4982900000000 1.0
C      1  0.4951360000000  0.5358210000000  0.4210730000000 1.0
C      1  0.4212450000000  0.4454640000000  0.5265500000000 1.0
C      1  0.5621960000000  0.5461090000000  0.5288940000000 1.0
C      1  0.5143100000000  0.5753960000000  0.4977180000000 1.0
C      1  0.4844680000000  0.4059480000000  0.4421740000000 1.0
C      1  0.5184530000000  0.4449530000000  0.4327630000000 1.0
C      1  0.4618760000000  0.4613480000000  0.5854630000000 1.0
C      1  0.5282400000000  0.4805110000000  0.5616480000000 1.0
C      1  0.5992650000000  0.5260600000000  0.4585570000000 1.0
C      1  0.4184230000000  0.4709410000000  0.4553680000000 1.0
END
