TITL C-627107-135-897 -2.75106562419652e-07 125000 -270.402816111333 0 0 45 (C1) n - 1
REM
REM in /home/nfs/bkarasulu/CARBON/AIRSS/Generating-Clusters/LCBOP/Only-C1/SD-CG/FIRE-CG
REM
REM
REM
REM
REM
REM ./C.cell (11c1c37f851c82e70ff6c80c92926a4b)
REM AIRSS Version 0.9.1 bugfix July 2018 build 013d7b7c2542+ Fri, 06 Jul 2018 19:26:36 +0100
REM compiler GCC version 9.2.1 20190827 (Red Hat 9.2.1-1)
REM options -cpp -mtune=generic -march=x86-64 -g -O0 -fpre-include=/usr/include/finclude/math-vector-fortran.h
REM seed 1410768389 1538157712 495656759 1986027646 -978594677 199620793 -2024427894 166919099 -599984131 -1422027727 1459394348 -1888533387 -69891051 263746069 518678951 -307222636 1474605048 -1350805431 237097311 1636016074 -661293535 898434874 598899486 296842949 -185906533 1006901137 1543862199 330527944 -2099327187 529732152 1241008261 -398882622 -2070119855
REM
CELL 1.54180   50.00000   50.00000   50.00000   90.00000   90.00000   90.00000
LATT -1
SFAC C  
C      1  0.4750610000000  0.5094550000000  0.5579350000000 1.0
C      1  0.4400260000000  0.5091350000000  0.4452130000000 1.0
C      1  0.5319080000000  0.5497020000000  0.4502430000000 1.0
C      1  0.4879540000000  0.4104000000000  0.4465610000000 1.0
C      1  0.4798370000000  0.4806130000000  0.4363090000000 1.0
C      1  0.4469590000000  0.5215630000000  0.4693630000000 1.0
C      1  0.4366360000000  0.5143230000000  0.4943760000000 1.0
C      1  0.4720150000000  0.5606130000000  0.4828720000000 1.0
C      1  0.5306990000000  0.4299120000000  0.4940710000000 1.0
C      1  0.5443550000000  0.5232060000000  0.5158250000000 1.0
C      1  0.5286110000000  0.4104490000000  0.4738720000000 1.0
C      1  0.5039640000000  0.5818290000000  0.5121600000000 1.0
C      1  0.5309580000000  0.5053410000000  0.5741550000000 1.0
C      1  0.5370810000000  0.4376740000000  0.5446690000000 1.0
C      1  0.4549240000000  0.4922650000000  0.4304900000000 1.0
C      1  0.4620060000000  0.5820370000000  0.4690070000000 1.0
C      1  0.5366590000000  0.5231540000000  0.4902870000000 1.0
C      1  0.4737500000000  0.5501870000000  0.5329260000000 1.0
C      1  0.5469180000000  0.5021270000000  0.5962260000000 1.0
C      1  0.4864730000000  0.5589600000000  0.5570560000000 1.0
C      1  0.5297590000000  0.4585020000000  0.5595380000000 1.0
C      1  0.5164690000000  0.4828660000000  0.5637800000000 1.0
C      1  0.5376750000000  0.4257840000000  0.5207950000000 1.0
C      1  0.5090940000000  0.4751040000000  0.4748450000000 1.0
C      1  0.5278200000000  0.4279210000000  0.4280820000000 1.0
C      1  0.5433870000000  0.5390890000000  0.5389600000000 1.0
C      1  0.4739880000000  0.4315930000000  0.4363780000000 1.0
C      1  0.5165260000000  0.4112190000000  0.4484870000000 1.0
C      1  0.5458910000000  0.5669530000000  0.5342470000000 1.0
C      1  0.5217980000000  0.5314690000000  0.4679210000000 1.0
C      1  0.4571600000000  0.4783190000000  0.5204570000000 1.0
C      1  0.5080260000000  0.5488560000000  0.5698010000000 1.0
C      1  0.5138940000000  0.4492080000000  0.4179730000000 1.0
C      1  0.4722540000000  0.5349440000000  0.4706610000000 1.0
C      1  0.4872750000000  0.4550860000000  0.4267100000000 1.0
C      1  0.4818930000000  0.5642560000000  0.5092550000000 1.0
C      1  0.4500630000000  0.5058850000000  0.5173760000000 1.0
C      1  0.4958570000000  0.5202400000000  0.4640320000000 1.0
C      1  0.5288110000000  0.5837440000000  0.5219840000000 1.0
C      1  0.4635010000000  0.5235990000000  0.5356230000000 1.0
C      1  0.5287770000000  0.5310890000000  0.5621800000000 1.0
C      1  0.4949930000000  0.4922700000000  0.4577600000000 1.0
C      1  0.4762590000000  0.4680650000000  0.5369930000000 1.0
C      1  0.4894050000000  0.4851280000000  0.5556150000000 1.0
C      1  0.5226290000000  0.4558650000000  0.4869300000000 1.0
END
