TITL C-627112-676-382 -4.35202977299947e-07 125000 -457.876166670504 0 0 77 (C1) n - 1
REM
REM in /home/nfs/bkarasulu/CARBON/AIRSS/Generating-Clusters/LCBOP/Only-C1/SD-CG/FIRE-CG
REM
REM
REM
REM
REM
REM ./C.cell (11c1c37f851c82e70ff6c80c92926a4b)
REM AIRSS Version 0.9.1 bugfix July 2018 build 013d7b7c2542+ Fri, 06 Jul 2018 19:26:36 +0100
REM compiler GCC version 9.2.1 20190827 (Red Hat 9.2.1-1)
REM options -cpp -mtune=generic -march=x86-64 -g -O0 -fpre-include=/usr/include/finclude/math-vector-fortran.h
REM seed 760625566 -695202856 -246099673 1477942717 1856376262 1072876365 -762798544 1761880920 30106522 -1453019716 -2074029978 -964341810 -1277234430 34249910 -397808413 906242553 -1809767253 -954900794 1094738849 833744321 1284931986 1306766287 -1398589111 -1851087998 458664628 -1500075341 733562605 280149142 -844333360 1590198920 -2124804921 -2107982224 -1595726627
REM
CELL 1.54180   50.00000   50.00000   50.00000   90.00000   90.00000   90.00000
LATT -1
SFAC C  
C      1  0.5060870000000  0.4637810000000  0.4727050000000 1.0
C      1  0.5316660000000  0.4189710000000  0.3916120000000 1.0
C      1  0.4426020000000  0.4590470000000  0.4696290000000 1.0
C      1  0.4858490000000  0.4489930000000  0.5543700000000 1.0
C      1  0.4624060000000  0.5544990000000  0.4565110000000 1.0
C      1  0.5334630000000  0.4459970000000  0.4348790000000 1.0
C      1  0.4878170000000  0.4595370000000  0.4272330000000 1.0
C      1  0.4890670000000  0.4272940000000  0.3646040000000 1.0
C      1  0.5497450000000  0.5682300000000  0.4872700000000 1.0
C      1  0.5755290000000  0.5211760000000  0.5458500000000 1.0
C      1  0.4387610000000  0.5251050000000  0.5660610000000 1.0
C      1  0.4481840000000  0.4426840000000  0.4904190000000 1.0
C      1  0.5565860000000  0.4728090000000  0.5604120000000 1.0
C      1  0.5578810000000  0.4863120000000  0.5030250000000 1.0
C      1  0.4121120000000  0.4883510000000  0.5166450000000 1.0
C      1  0.4854690000000  0.4351250000000  0.5284610000000 1.0
C      1  0.5136210000000  0.5977230000000  0.5063580000000 1.0
C      1  0.5426800000000  0.5931220000000  0.5013080000000 1.0
C      1  0.5106370000000  0.5584580000000  0.4516040000000 1.0
C      1  0.5346320000000  0.5454300000000  0.5267720000000 1.0
C      1  0.4367890000000  0.5238700000000  0.4899140000000 1.0
C      1  0.4446540000000  0.5362590000000  0.5419200000000 1.0
C      1  0.5435770000000  0.4286010000000  0.5747700000000 1.0
C      1  0.5113270000000  0.5081330000000  0.5940510000000 1.0
C      1  0.5563590000000  0.5471890000000  0.5070230000000 1.0
C      1  0.4582460000000  0.4590520000000  0.3894520000000 1.0
C      1  0.5720900000000  0.4935090000000  0.5529780000000 1.0
C      1  0.5225920000000  0.5198520000000  0.5286070000000 1.0
C      1  0.5671120000000  0.5384800000000  0.5667280000000 1.0
C      1  0.4945020000000  0.4845470000000  0.4880140000000 1.0
C      1  0.5044880000000  0.4841870000000  0.5842670000000 1.0
C      1  0.4646530000000  0.4692970000000  0.4146230000000 1.0
C      1  0.4547450000000  0.5052120000000  0.4735470000000 1.0
C      1  0.4705950000000  0.5401510000000  0.4315530000000 1.0
C      1  0.5056810000000  0.5852500000000  0.5317190000000 1.0
C      1  0.5516460000000  0.5900570000000  0.5296820000000 1.0
C      1  0.5345560000000  0.4221400000000  0.5205110000000 1.0
C      1  0.4681940000000  0.4427890000000  0.3707120000000 1.0
C      1  0.4867070000000  0.5727400000000  0.5758890000000 1.0
C      1  0.4919840000000  0.5337280000000  0.4867620000000 1.0
C      1  0.5307480000000  0.5709530000000  0.5391120000000 1.0
C      1  0.5148240000000  0.5177080000000  0.4249250000000 1.0
C      1  0.4514740000000  0.4898300000000  0.4289910000000 1.0
C      1  0.5086660000000  0.4293870000000  0.5126060000000 1.0
C      1  0.5007760000000  0.5554100000000  0.5906990000000 1.0
C      1  0.5764200000000  0.5283180000000  0.5168580000000 1.0
C      1  0.4365340000000  0.4995200000000  0.5752080000000 1.0
C      1  0.4396200000000  0.4756650000000  0.5597920000000 1.0
C      1  0.5362140000000  0.5633010000000  0.4626550000000 1.0
C      1  0.5205350000000  0.4934500000000  0.4345960000000 1.0
C      1  0.4821030000000  0.4818730000000  0.5136040000000 1.0
C      1  0.4585800000000  0.4948120000000  0.5219680000000 1.0
C      1  0.5788700000000  0.5052660000000  0.5002500000000 1.0
C      1  0.4562560000000  0.5173100000000  0.4224970000000 1.0
C      1  0.4461470000000  0.4841630000000  0.4567320000000 1.0
C      1  0.5468680000000  0.5403590000000  0.5844150000000 1.0
C      1  0.4396750000000  0.5489870000000  0.4733380000000 1.0
C      1  0.5572360000000  0.4347790000000  0.5133630000000 1.0
C      1  0.5343840000000  0.4979350000000  0.5145700000000 1.0
C      1  0.5128810000000  0.4183490000000  0.3726760000000 1.0
C      1  0.5003950000000  0.5413720000000  0.4299040000000 1.0
C      1  0.4600420000000  0.4565360000000  0.5647630000000 1.0
C      1  0.4612300000000  0.4345700000000  0.5127240000000 1.0
C      1  0.5126380000000  0.4656920000000  0.4432530000000 1.0
C      1  0.5087470000000  0.4615390000000  0.5675850000000 1.0
C      1  0.4828870000000  0.5083220000000  0.4784720000000 1.0
C      1  0.4884220000000  0.5565410000000  0.4705050000000 1.0
C      1  0.5394460000000  0.4291650000000  0.4150120000000 1.0
C      1  0.5632680000000  0.4589220000000  0.5035550000000 1.0
C      1  0.4116450000000  0.5085490000000  0.4976010000000 1.0
C      1  0.5002020000000  0.5173250000000  0.5437930000000 1.0
C      1  0.4514160000000  0.5231110000000  0.5176860000000 1.0
C      1  0.5363700000000  0.4536920000000  0.5663500000000 1.0
C      1  0.4862940000000  0.5847560000000  0.5517940000000 1.0
C      1  0.5075850000000  0.4388860000000  0.4858270000000 1.0
C      1  0.4352180000000  0.4810660000000  0.5319750000000 1.0
C      1  0.5200940000000  0.5348910000000  0.5918960000000 1.0
END
