TITL C-627109-622-528 9.11495041190472e-08 125000 -101.647916156 0 0 18 (C1) n - 1
REM
REM in /home/nfs/bkarasulu/CARBON/AIRSS/Generating-Clusters/LCBOP/Only-C1/SD-CG/FIRE-CG
REM
REM
REM
REM
REM
REM ./C.cell (11c1c37f851c82e70ff6c80c92926a4b)
REM AIRSS Version 0.9.1 bugfix July 2018 build 013d7b7c2542+ Fri, 06 Jul 2018 19:26:36 +0100
REM compiler GCC version 9.2.1 20190827 (Red Hat 9.2.1-1)
REM options -cpp -mtune=generic -march=x86-64 -g -O0 -fpre-include=/usr/include/finclude/math-vector-fortran.h
REM seed -799580895 272062705 64676077 609892047 -1172052849 875217009 1682191674 1472499973 1644480151 -1076739721 -275116198 1034313850 1008794463 -863214469 -1959904491 -651426589 1036729181 -946603105 -1357356175 1304399704 -1255511162 -1965085902 1576891183 -433486165 -1349746864 100058782 591296334 -1202252157 1520186513 32411141 -343158988 468361204 -966693584
REM
CELL 1.54180   50.00000   50.00000   50.00000   90.00000   90.00000   90.00000
LATT -1
SFAC C  
C      1  0.5719650000000  0.4956980000000  0.5029210000000 1.0
C      1  0.4474410000000  0.6006540000000  0.5024940000000 1.0
C      1  0.4586610000000  0.5030060000000  0.4992390000000 1.0
C      1  0.4756050000000  0.5254080000000  0.5008670000000 1.0
C      1  0.4196970000000  0.4414640000000  0.4966720000000 1.0
C      1  0.4883110000000  0.4659620000000  0.4964100000000 1.0
C      1  0.4657980000000  0.5514110000000  0.5014010000000 1.0
C      1  0.5030970000000  0.5197140000000  0.5019300000000 1.0
C      1  0.5154110000000  0.4731950000000  0.4949940000000 1.0
C      1  0.5229830000000  0.4997900000000  0.5034370000000 1.0
C      1  0.5609410000000  0.4549290000000  0.4803880000000 1.0
C      1  0.5486180000000  0.5067620000000  0.5141680000000 1.0
C      1  0.4400420000000  0.4577460000000  0.4971110000000 1.0
C      1  0.5343010000000  0.4556010000000  0.4838820000000 1.0
C      1  0.5504550000000  0.5237000000000  0.5356060000000 1.0
C      1  0.4565450000000  0.5762320000000  0.5019510000000 1.0
C      1  0.4617620000000  0.4750920000000  0.4975730000000 1.0
C      1  0.5783660000000  0.4736350000000  0.4889570000000 1.0
END
