TITL C-627112-676-884 5.37464737841195e-08 125000 -504.642915738254 0 0 83 (C1) n - 1
REM
REM in /home/nfs/bkarasulu/CARBON/AIRSS/Generating-Clusters/LCBOP/Only-C1/SD-CG/FIRE-CG
REM
REM
REM
REM
REM
REM ./C.cell (11c1c37f851c82e70ff6c80c92926a4b)
REM AIRSS Version 0.9.1 bugfix July 2018 build 013d7b7c2542+ Fri, 06 Jul 2018 19:26:36 +0100
REM compiler GCC version 9.2.1 20190827 (Red Hat 9.2.1-1)
REM options -cpp -mtune=generic -march=x86-64 -g -O0 -fpre-include=/usr/include/finclude/math-vector-fortran.h
REM seed 334574948 -1916766223 1341187339 -1063005863 -836379020 -411459127 -1008649885 120308868 1741603623 -667538081 -1547881628 1456089394 -76113635 -1879996199 495720605 1082618991 1134381500 1074773229 701136786 1061703330 1339254431 957372212 1830315454 290351042 171618019 -1953789147 1037095376 -991458877 1892227032 50535617 1497654969 -1130525518 806374883
REM
CELL 1.54180   50.00000   50.00000   50.00000   90.00000   90.00000   90.00000
LATT -1
SFAC C  
C      1  0.5332220000000  0.4278700000000  0.4893040000000 1.0
C      1  0.5903530000000  0.5287780000000  0.4592830000000 1.0
C      1  0.4803050000000  0.5042410000000  0.4245120000000 1.0
C      1  0.4077080000000  0.4956420000000  0.4862600000000 1.0
C      1  0.5276250000000  0.5742420000000  0.4616090000000 1.0
C      1  0.5019140000000  0.5335600000000  0.4527780000000 1.0
C      1  0.4723570000000  0.4850320000000  0.5173020000000 1.0
C      1  0.4943050000000  0.4732780000000  0.5856380000000 1.0
C      1  0.5502710000000  0.5360940000000  0.4838380000000 1.0
C      1  0.4392550000000  0.4481130000000  0.5000490000000 1.0
C      1  0.5076490000000  0.5100340000000  0.5320910000000 1.0
C      1  0.5626480000000  0.5531740000000  0.5024480000000 1.0
C      1  0.5411180000000  0.4705580000000  0.5418150000000 1.0
C      1  0.4444000000000  0.5330480000000  0.4938040000000 1.0
C      1  0.4683530000000  0.5312360000000  0.5088120000000 1.0
C      1  0.5386030000000  0.4667180000000  0.5698100000000 1.0
C      1  0.5090930000000  0.4955980000000  0.4186550000000 1.0
C      1  0.5858340000000  0.5086980000000  0.4795990000000 1.0
C      1  0.5379810000000  0.5673740000000  0.5381330000000 1.0
C      1  0.4634360000000  0.5227440000000  0.5559710000000 1.0
C      1  0.5447990000000  0.5324680000000  0.4346820000000 1.0
C      1  0.4661720000000  0.4356330000000  0.4988030000000 1.0
C      1  0.4633390000000  0.5712990000000  0.5360620000000 1.0
C      1  0.5177530000000  0.4823110000000  0.5303440000000 1.0
C      1  0.4333310000000  0.4847410000000  0.5626810000000 1.0
C      1  0.4197660000000  0.5193620000000  0.4961750000000 1.0
C      1  0.4924570000000  0.5481040000000  0.5082790000000 1.0
C      1  0.4674330000000  0.5516090000000  0.5592470000000 1.0
C      1  0.3982680000000  0.4755890000000  0.5050840000000 1.0
C      1  0.5211460000000  0.4838310000000  0.5841090000000 1.0
C      1  0.5867330000000  0.5154450000000  0.5083120000000 1.0
C      1  0.4776290000000  0.5296800000000  0.4389790000000 1.0
C      1  0.5273310000000  0.5216640000000  0.4897660000000 1.0
C      1  0.5288240000000  0.4508450000000  0.4189410000000 1.0
C      1  0.5889450000000  0.4763180000000  0.5427180000000 1.0
C      1  0.5129320000000  0.4694990000000  0.4068650000000 1.0
C      1  0.4659070000000  0.4379950000000  0.4462480000000 1.0
C      1  0.4534950000000  0.5018790000000  0.5728470000000 1.0
C      1  0.4844610000000  0.4327570000000  0.5506480000000 1.0
C      1  0.5668740000000  0.4645580000000  0.5314450000000 1.0
C      1  0.5265670000000  0.4449010000000  0.4674480000000 1.0
C      1  0.4946130000000  0.5600690000000  0.5686110000000 1.0
C      1  0.5128630000000  0.4233190000000  0.5090350000000 1.0
C      1  0.4909590000000  0.5710130000000  0.5250280000000 1.0
C      1  0.5732540000000  0.5363580000000  0.5240770000000 1.0
C      1  0.5242040000000  0.5504130000000  0.4458390000000 1.0
C      1  0.4423520000000  0.4694330000000  0.4798040000000 1.0
C      1  0.5725940000000  0.5366800000000  0.4400060000000 1.0
C      1  0.5549040000000  0.5438410000000  0.5467120000000 1.0
C      1  0.5452980000000  0.5749120000000  0.5101870000000 1.0
C      1  0.4887710000000  0.4375390000000  0.5210520000000 1.0
C      1  0.4330320000000  0.4921240000000  0.4393530000000 1.0
C      1  0.4627780000000  0.4570760000000  0.4272150000000 1.0
C      1  0.4562290000000  0.5459200000000  0.4489490000000 1.0
C      1  0.5355340000000  0.5044000000000  0.4316070000000 1.0
C      1  0.5109340000000  0.5706650000000  0.5466740000000 1.0
C      1  0.4944770000000  0.4675070000000  0.5219400000000 1.0
C      1  0.4447020000000  0.5809160000000  0.5168280000000 1.0
C      1  0.5321710000000  0.5847590000000  0.4866030000000 1.0
C      1  0.5459450000000  0.5280990000000  0.5687640000000 1.0
C      1  0.5012510000000  0.4573700000000  0.4708040000000 1.0
C      1  0.5694750000000  0.4880840000000  0.4682120000000 1.0
C      1  0.5095050000000  0.5122340000000  0.4704240000000 1.0
C      1  0.5603020000000  0.4240550000000  0.4962990000000 1.0
C      1  0.4418340000000  0.5782220000000  0.4895810000000 1.0
C      1  0.5750900000000  0.4031380000000  0.4870530000000 1.0
C      1  0.4454700000000  0.5542600000000  0.4740520000000 1.0
C      1  0.4190150000000  0.4593150000000  0.5180770000000 1.0
C      1  0.5705330000000  0.4435610000000  0.5134420000000 1.0
C      1  0.4723970000000  0.4903440000000  0.5904080000000 1.0
C      1  0.5503480000000  0.4830150000000  0.4474660000000 1.0
C      1  0.5402120000000  0.4557690000000  0.4446700000000 1.0
C      1  0.3716640000000  0.4718500000000  0.5102000000000 1.0
C      1  0.5304600000000  0.5109160000000  0.5830760000000 1.0
C      1  0.4581350000000  0.4852250000000  0.4268720000000 1.0
C      1  0.4248360000000  0.4666500000000  0.5447730000000 1.0
C      1  0.5142870000000  0.5297580000000  0.5128350000000 1.0
C      1  0.4760340000000  0.5111800000000  0.5310350000000 1.0
C      1  0.4782880000000  0.4400500000000  0.4716970000000 1.0
C      1  0.4232420000000  0.4839680000000  0.4646650000000 1.0
C      1  0.5012750000000  0.4855000000000  0.4700400000000 1.0
C      1  0.4616960000000  0.4860040000000  0.4916680000000 1.0
C      1  0.4884450000000  0.4479680000000  0.5729730000000 1.0
END
