TITL C-627108-131-1960 0.0113078817479432 125000 -472.069733662356 0 0 78 (C1) n - 1
REM
REM in /home/nfs/bkarasulu/CARBON/AIRSS/Generating-Clusters/LCBOP/Only-C1/SD-CG/FIRE-CG
REM
REM
REM
REM
REM
REM ./C.cell (11c1c37f851c82e70ff6c80c92926a4b)
REM AIRSS Version 0.9.1 bugfix July 2018 build 013d7b7c2542+ Fri, 06 Jul 2018 19:26:36 +0100
REM compiler GCC version 9.2.1 20190827 (Red Hat 9.2.1-1)
REM options -cpp -mtune=generic -march=x86-64 -g -O0 -fpre-include=/usr/include/finclude/math-vector-fortran.h
REM seed 313439950 1998994856 1846143352 648806046 -1330656143 -1541143173 351887479 46792131 -1832941258 383966708 -541934100 1477429912 1096689444 -574547800 629152096 -527664538 -2139089739 625809510 -1909298066 -2139016521 151625010 -564325656 1142545488 1480846016 12770127 -1521139760 204360605 -954509825 -1685199930 1022861062 1558210959 1896830003 -1335379144
REM
CELL 1.54180   50.00000   50.00000   50.00000   90.00000   90.00000   90.00000
LATT -1
SFAC C  
C      1  0.4335560000000  0.5701830000000  0.4333930000000 1.0
C      1  0.5177350000000  0.5375630000000  0.4222620000000 1.0
C      1  0.4490630000000  0.5209420000000  0.5449750000000 1.0
C      1  0.5183050000000  0.5043210000000  0.5252960000000 1.0
C      1  0.5911690000000  0.4685140000000  0.4592390000000 1.0
C      1  0.4606430000000  0.4776190000000  0.4156150000000 1.0
C      1  0.5353900000000  0.5802710000000  0.4073520000000 1.0
C      1  0.4782490000000  0.5297740000000  0.4632280000000 1.0
C      1  0.5290880000000  0.4704850000000  0.4605950000000 1.0
C      1  0.6181060000000  0.5060760000000  0.5876570000000 1.0
C      1  0.4283300000000  0.5571130000000  0.4835790000000 1.0
C      1  0.4797730000000  0.4265200000000  0.4653890000000 1.0
C      1  0.3977620000000  0.4687950000000  0.6247630000000 1.0
C      1  0.4925410000000  0.5699220000000  0.5087140000000 1.0
C      1  0.5344400000000  0.4908400000000  0.4419710000000 1.0
C      1  0.4894910000000  0.5349450000000  0.4180220000000 1.0
C      1  0.4341240000000  0.4342910000000  0.3550360000000 1.0
C      1  0.4086420000000  0.4603210000000  0.6026400000000 1.0
C      1  0.5065950000000  0.5453840000000  0.5048870000000 1.0
C      1  0.4846130000000  0.4274620000000  0.5544430000000 1.0
C      1  0.5184970000000  0.4762760000000  0.4860420000000 1.0
C      1  0.4913600000000  0.4981270000000  0.5321520000000 1.0
C      1  0.5905520000000  0.4821980000000  0.5534440000000 1.0
C      1  0.4507570000000  0.5668890000000  0.4132180000000 1.0
C      1  0.4496420000000  0.5253160000000  0.6187860000000 1.0
C      1  0.4752680000000  0.5096800000000  0.5517160000000 1.0
C      1  0.4957100000000  0.5319640000000  0.4828570000000 1.0
C      1  0.5812710000000  0.5178000000000  0.4745780000000 1.0
C      1  0.4428500000000  0.4486620000000  0.3749620000000 1.0
C      1  0.5245830000000  0.4929080000000  0.6028520000000 1.0
C      1  0.5023700000000  0.5904710000000  0.4918800000000 1.0
C      1  0.4349650000000  0.4489600000000  0.5566050000000 1.0
C      1  0.5296900000000  0.4425220000000  0.4541330000000 1.0
C      1  0.4310410000000  0.4994890000000  0.5056210000000 1.0
C      1  0.4794540000000  0.4816740000000  0.5124110000000 1.0
C      1  0.4563740000000  0.4352420000000  0.4756060000000 1.0
C      1  0.4593800000000  0.4352380000000  0.5571800000000 1.0
C      1  0.5568460000000  0.4503260000000  0.5406480000000 1.0
C      1  0.4431070000000  0.5493090000000  0.5061460000000 1.0
C      1  0.4372910000000  0.5277530000000  0.5702820000000 1.0
C      1  0.5551090000000  0.5336060000000  0.5127440000000 1.0
C      1  0.4706420000000  0.4912300000000  0.4376160000000 1.0
C      1  0.5558070000000  0.4329010000000  0.4500620000000 1.0
C      1  0.4766600000000  0.5187880000000  0.4376200000000 1.0
C      1  0.5476540000000  0.4842890000000  0.6113930000000 1.0
C      1  0.5013310000000  0.5018320000000  0.5938180000000 1.0
C      1  0.4395760000000  0.5235630000000  0.5184930000000 1.0
C      1  0.4729080000000  0.5538430000000  0.4055420000000 1.0
C      1  0.5537590000000  0.5575720000000  0.4695120000000 1.0
C      1  0.5795720000000  0.4452310000000  0.4529130000000 1.0
C      1  0.5317040000000  0.5138170000000  0.4285860000000 1.0
C      1  0.4547470000000  0.5216100000000  0.5924340000000 1.0
C      1  0.4517220000000  0.4632680000000  0.3952220000000 1.0
C      1  0.4256750000000  0.5655580000000  0.4584430000000 1.0
C      1  0.5172510000000  0.5889050000000  0.4693820000000 1.0
C      1  0.4759410000000  0.4788000000000  0.4623360000000 1.0
C      1  0.5733120000000  0.5211890000000  0.5304340000000 1.0
C      1  0.5545910000000  0.4730890000000  0.5226640000000 1.0
C      1  0.4258910000000  0.4597540000000  0.5324250000000 1.0
C      1  0.5903670000000  0.5285090000000  0.5524620000000 1.0
C      1  0.4392140000000  0.4526600000000  0.4870370000000 1.0
C      1  0.5053800000000  0.4282940000000  0.4571100000000 1.0
C      1  0.5745960000000  0.4922180000000  0.5301430000000 1.0
C      1  0.5315040000000  0.4830750000000  0.5104550000000 1.0
C      1  0.5797460000000  0.4558980000000  0.5576100000000 1.0
C      1  0.6012340000000  0.5054940000000  0.5664460000000 1.0
C      1  0.5907590000000  0.4942030000000  0.4665230000000 1.0
C      1  0.5107830000000  0.4259090000000  0.5501760000000 1.0
C      1  0.4787420000000  0.5104510000000  0.5803470000000 1.0
C      1  0.4204690000000  0.4529440000000  0.5801090000000 1.0
C      1  0.5360310000000  0.4326490000000  0.5453690000000 1.0
C      1  0.4302410000000  0.4709230000000  0.5069260000000 1.0
C      1  0.5289580000000  0.5633030000000  0.4278640000000 1.0
C      1  0.5268760000000  0.5308290000000  0.5181990000000 1.0
C      1  0.5338170000000  0.5710580000000  0.4549800000000 1.0
C      1  0.4898150000000  0.4771650000000  0.4867080000000 1.0
C      1  0.5641340000000  0.5372680000000  0.4856960000000 1.0
C      1  0.4648630000000  0.5661610000000  0.5140260000000 1.0
END
