TITL C-627108-131-2120 0.678825231760872 125000 -215.107822685497 0 0 36 (C1) n - 1
REM
REM in /home/nfs/bkarasulu/CARBON/AIRSS/Generating-Clusters/LCBOP/Only-C1/SD-CG/FIRE-CG
REM
REM
REM
REM
REM
REM ./C.cell (11c1c37f851c82e70ff6c80c92926a4b)
REM AIRSS Version 0.9.1 bugfix July 2018 build 013d7b7c2542+ Fri, 06 Jul 2018 19:26:36 +0100
REM compiler GCC version 9.2.1 20190827 (Red Hat 9.2.1-1)
REM options -cpp -mtune=generic -march=x86-64 -g -O0 -fpre-include=/usr/include/finclude/math-vector-fortran.h
REM seed 1430961643 1526598238 994518109 -1710268934 1294550947 846658083 732238603 1703834622 -376577236 1980869369 428248539 -1903028761 -1705924755 361294393 -1855613716 -136697047 -449104873 -231560407 85527309 72927028 -666038232 -1111457674 1080233717 -1770898548 -1034784030 -336261244 236226761 936637181 -1718775466 -119109437 1013850059 2121082145 -1179292855
REM
CELL 1.54180   50.00000   50.00000   50.00000   90.00000   90.00000   90.00000
LATT -1
SFAC C  
C      1  0.4582790000000  0.4915510000000  0.5377590000000 1.0
C      1  0.5502850000000  0.4355130000000  0.5136240000000 1.0
C      1  0.4891180000000  0.6092030000000  0.4479820000000 1.0
C      1  0.5287880000000  0.4655480000000  0.4817440000000 1.0
C      1  0.5626950000000  0.4622580000000  0.5889360000000 1.0
C      1  0.5720910000000  0.3739110000000  0.4739900000000 1.0
C      1  0.4441450000000  0.5877480000000  0.5105610000000 1.0
C      1  0.5203790000000  0.5134990000000  0.4619170000000 1.0
C      1  0.4928200000000  0.3863060000000  0.4827530000000 1.0
C      1  0.4930030000000  0.4096640000000  0.4953690000000 1.0
C      1  0.5677200000000  0.4177500000000  0.5008690000000 1.0
C      1  0.5593290000000  0.4532710000000  0.5642290000000 1.0
C      1  0.4063080000000  0.6784110000000  0.5082150000000 1.0
C      1  0.4764310000000  0.5595010000000  0.4882330000000 1.0
C      1  0.5098740000000  0.5378210000000  0.4608530000000 1.0
C      1  0.4945410000000  0.5603250000000  0.4669000000000 1.0
C      1  0.5660020000000  0.4710980000000  0.6132380000000 1.0
C      1  0.5762720000000  0.3965020000000  0.4874290000000 1.0
C      1  0.5271470000000  0.3538900000000  0.4634370000000 1.0
C      1  0.5043040000000  0.3655310000000  0.4707420000000 1.0
C      1  0.4554760000000  0.6404430000000  0.4707820000000 1.0
C      1  0.4696420000000  0.4679400000000  0.5336520000000 1.0
C      1  0.4516040000000  0.5170550000000  0.5348200000000 1.0
C      1  0.4379190000000  0.6376710000000  0.4924420000000 1.0
C      1  0.4373900000000  0.6129390000000  0.5056150000000 1.0
C      1  0.4841680000000  0.4483780000000  0.5232090000000 1.0
C      1  0.4966360000000  0.5840540000000  0.4522350000000 1.0
C      1  0.5269120000000  0.4446940000000  0.5002730000000 1.0
C      1  0.5266370000000  0.4887540000000  0.4691160000000 1.0
C      1  0.4508400000000  0.5416410000000  0.5249020000000 1.0
C      1  0.4215880000000  0.6587240000000  0.5005880000000 1.0
C      1  0.5013290000000  0.4338730000000  0.5065820000000 1.0
C      1  0.4739750000000  0.6299800000000  0.4547980000000 1.0
C      1  0.5557320000000  0.4443710000000  0.5395430000000 1.0
C      1  0.5536130000000  0.3571280000000  0.4646030000000 1.0
C      1  0.4570080000000  0.5630530000000  0.5080590000000 1.0
END
