TITL C-627113-6568-648 6.60478927452621e-06 125000 -1210.07559773814 0 0 194 (C1) n - 1
REM
REM in /home/nfs/bkarasulu/CARBON/AIRSS/Generating-Clusters/LCBOP/Only-C1/SD-CG/FIRE-CG
REM
REM
REM
REM
REM
REM ./C.cell (11c1c37f851c82e70ff6c80c92926a4b)
REM AIRSS Version 0.9.1 bugfix July 2018 build 013d7b7c2542+ Fri, 06 Jul 2018 19:26:36 +0100
REM compiler GCC version 9.2.1 20190827 (Red Hat 9.2.1-1)
REM options -cpp -mtune=generic -march=x86-64 -g -O0 -fpre-include=/usr/include/finclude/math-vector-fortran.h
REM seed -809298071 -387299631 2009140769 411444515 -1146677771 -1288989643 1839034312 -1598173664 -854491965 1159492975 -115491881 989146273 349186620 -2025517127 -440142529 828193348 -912297309 622675894 -1451731474 1074112595 1443011201 -437739522 392933076 -573769038 547100180 -614998814 -532530792 -759577530 -1587008157 2145863338 -248030161 -2052639326 -224793590
REM
CELL 1.54180   50.00000   50.00000   50.00000   90.00000   90.00000   90.00000
LATT -1
SFAC C  
C      1  0.4176360000000  0.5409080000000  0.3783330000000 1.0
C      1  0.4365620000000  0.5609940000000  0.4576860000000 1.0
C      1  0.4177810000000  0.5108260000000  0.5065580000000 1.0
C      1  0.4303440000000  0.6072040000000  0.4631480000000 1.0
C      1  0.4186650000000  0.5146810000000  0.5343900000000 1.0
C      1  0.5458030000000  0.4620320000000  0.5396950000000 1.0
C      1  0.4043310000000  0.4879850000000  0.5950880000000 1.0
C      1  0.4501740000000  0.5467640000000  0.5411710000000 1.0
C      1  0.5423570000000  0.4161600000000  0.5427710000000 1.0
C      1  0.5903780000000  0.4471760000000  0.4183440000000 1.0
C      1  0.4743440000000  0.4797280000000  0.5646960000000 1.0
C      1  0.3811830000000  0.4738060000000  0.4266300000000 1.0
C      1  0.4935690000000  0.3524730000000  0.5368910000000 1.0
C      1  0.4690150000000  0.5754660000000  0.4103070000000 1.0
C      1  0.4130920000000  0.4417490000000  0.5928980000000 1.0
C      1  0.4280310000000  0.5289880000000  0.3990550000000 1.0
C      1  0.4513700000000  0.4706220000000  0.3908700000000 1.0
C      1  0.5569810000000  0.5403700000000  0.4065060000000 1.0
C      1  0.5357120000000  0.5835000000000  0.4010710000000 1.0
C      1  0.4770710000000  0.5346240000000  0.6094740000000 1.0
C      1  0.4606470000000  0.4549120000000  0.5539940000000 1.0
C      1  0.5075750000000  0.5759910000000  0.4719810000000 1.0
C      1  0.3888320000000  0.4780530000000  0.5712460000000 1.0
C      1  0.4221760000000  0.5412440000000  0.5435560000000 1.0
C      1  0.5345900000000  0.5573350000000  0.4088150000000 1.0
C      1  0.5109090000000  0.3680710000000  0.5529250000000 1.0
C      1  0.5560780000000  0.4502710000000  0.3863290000000 1.0
C      1  0.6065910000000  0.4677780000000  0.4964730000000 1.0
C      1  0.5373870000000  0.5458450000000  0.4850210000000 1.0
C      1  0.5731530000000  0.4731740000000  0.5791310000000 1.0
C      1  0.4535310000000  0.3402070000000  0.5158220000000 1.0
C      1  0.5978490000000  0.5197980000000  0.4173600000000 1.0
C      1  0.4018010000000  0.4680760000000  0.4102810000000 1.0
C      1  0.4453330000000  0.6310460000000  0.4615520000000 1.0
C      1  0.4929800000000  0.5151900000000  0.6183690000000 1.0
C      1  0.4535840000000  0.3830620000000  0.5460000000000 1.0
C      1  0.4300320000000  0.5009380000000  0.5924920000000 1.0
C      1  0.5595200000000  0.5488260000000  0.5344200000000 1.0
C      1  0.4266350000000  0.3869090000000  0.5477560000000 1.0
C      1  0.4323540000000  0.4930340000000  0.5476540000000 1.0
C      1  0.4701370000000  0.5026160000000  0.3477510000000 1.0
C      1  0.5983030000000  0.5635660000000  0.4950570000000 1.0
C      1  0.3620650000000  0.4904710000000  0.5261960000000 1.0
C      1  0.5172770000000  0.4914800000000  0.4246750000000 1.0
C      1  0.4777890000000  0.6044540000000  0.5464840000000 1.0
C      1  0.4629870000000  0.5593950000000  0.4673030000000 1.0
C      1  0.5449240000000  0.5002170000000  0.4862650000000 1.0
C      1  0.4998710000000  0.5939820000000  0.5626620000000 1.0
C      1  0.6062420000000  0.4695150000000  0.4245400000000 1.0
C      1  0.4651640000000  0.6262550000000  0.5045530000000 1.0
C      1  0.5619260000000  0.4260490000000  0.5607550000000 1.0
C      1  0.5621110000000  0.4557220000000  0.5145580000000 1.0
C      1  0.4769060000000  0.5184530000000  0.5151190000000 1.0
C      1  0.5270200000000  0.5863770000000  0.5709250000000 1.0
C      1  0.5505790000000  0.5509810000000  0.5085220000000 1.0
C      1  0.5940820000000  0.4328310000000  0.4667220000000 1.0
C      1  0.5866320000000  0.3908070000000  0.5438040000000 1.0
C      1  0.5141570000000  0.4966780000000  0.6139630000000 1.0
C      1  0.4001740000000  0.4500570000000  0.4862720000000 1.0
C      1  0.5401140000000  0.5657370000000  0.5911590000000 1.0
C      1  0.4679780000000  0.5599990000000  0.4951450000000 1.0
C      1  0.4257550000000  0.4664120000000  0.3980720000000 1.0
C      1  0.4980240000000  0.4473980000000  0.5100700000000 1.0
C      1  0.5746370000000  0.5815470000000  0.5631780000000 1.0
C      1  0.4529210000000  0.5087880000000  0.3285830000000 1.0
C      1  0.4848920000000  0.6237240000000  0.5252050000000 1.0
C      1  0.5529370000000  0.6048750000000  0.5270920000000 1.0
C      1  0.3659170000000  0.4804890000000  0.4478150000000 1.0
C      1  0.4355520000000  0.4640870000000  0.5429040000000 1.0
C      1  0.4761690000000  0.4914430000000  0.5077560000000 1.0
C      1  0.5683860000000  0.6065170000000  0.5027830000000 1.0
C      1  0.5040880000000  0.3931010000000  0.5946200000000 1.0
C      1  0.5060580000000  0.5178790000000  0.4598040000000 1.0
C      1  0.4968330000000  0.4226870000000  0.4186580000000 1.0
C      1  0.3718860000000  0.4883990000000  0.5511890000000 1.0
C      1  0.6052160000000  0.5132480000000  0.5371870000000 1.0
C      1  0.5999410000000  0.4462570000000  0.5449700000000 1.0
C      1  0.5651670000000  0.4378350000000  0.4099540000000 1.0
C      1  0.4647560000000  0.3603080000000  0.5335500000000 1.0
C      1  0.5844360000000  0.5187860000000  0.5978530000000 1.0
C      1  0.4958500000000  0.4340440000000  0.5341250000000 1.0
C      1  0.5782190000000  0.5842490000000  0.4870830000000 1.0
C      1  0.4964910000000  0.3882420000000  0.5686500000000 1.0
C      1  0.5416220000000  0.4994710000000  0.3736820000000 1.0
C      1  0.5398230000000  0.3645780000000  0.5498560000000 1.0
C      1  0.4967120000000  0.6825210000000  0.4705330000000 1.0
C      1  0.4985410000000  0.5298470000000  0.5298190000000 1.0
C      1  0.5566830000000  0.4536720000000  0.5656610000000 1.0
C      1  0.4867210000000  0.4508650000000  0.6123780000000 1.0
C      1  0.3580300000000  0.4859890000000  0.4729990000000 1.0
C      1  0.5697210000000  0.5679830000000  0.5881930000000 1.0
C      1  0.4730010000000  0.3217020000000  0.5087450000000 1.0
C      1  0.4560300000000  0.5773710000000  0.6054150000000 1.0
C      1  0.5875880000000  0.5060850000000  0.5155360000000 1.0
C      1  0.4636900000000  0.4378270000000  0.6073880000000 1.0
C      1  0.4360500000000  0.5149190000000  0.4200450000000 1.0
C      1  0.4016570000000  0.4435900000000  0.5145310000000 1.0
C      1  0.5437470000000  0.5053140000000  0.5339960000000 1.0
C      1  0.5851400000000  0.5458540000000  0.5969980000000 1.0
C      1  0.4119540000000  0.4481530000000  0.5406890000000 1.0
C      1  0.6187970000000  0.5377190000000  0.5327120000000 1.0
C      1  0.4160720000000  0.5517990000000  0.4757130000000 1.0
C      1  0.4788290000000  0.4650150000000  0.4364490000000 1.0
C      1  0.5326140000000  0.5371470000000  0.5932690000000 1.0
C      1  0.3573900000000  0.4892970000000  0.4997190000000 1.0
C      1  0.6114450000000  0.4937110000000  0.5562950000000 1.0
C      1  0.5786230000000  0.5389760000000  0.4253250000000 1.0
C      1  0.4723390000000  0.4014280000000  0.5573910000000 1.0
C      1  0.5010670000000  0.4903960000000  0.5567900000000 1.0
C      1  0.5317530000000  0.4009340000000  0.4959830000000 1.0
C      1  0.4892780000000  0.5629530000000  0.4256740000000 1.0
C      1  0.6112310000000  0.5152180000000  0.4744550000000 1.0
C      1  0.5126940000000  0.5195730000000  0.4315020000000 1.0
C      1  0.5352900000000  0.5689140000000  0.4681770000000 1.0
C      1  0.4378550000000  0.4984790000000  0.4427600000000 1.0
C      1  0.5176190000000  0.4255490000000  0.5474160000000 1.0
C      1  0.4812370000000  0.5051010000000  0.4635340000000 1.0
C      1  0.3950370000000  0.5706040000000  0.5179730000000 1.0
C      1  0.6112470000000  0.4548570000000  0.4714060000000 1.0
C      1  0.4725070000000  0.4295590000000  0.5490530000000 1.0
C      1  0.4538940000000  0.4758030000000  0.4994090000000 1.0
C      1  0.5349130000000  0.4780540000000  0.4439810000000 1.0
C      1  0.4866830000000  0.5680710000000  0.4532910000000 1.0
C      1  0.5504600000000  0.5961720000000  0.5542730000000 1.0
C      1  0.4806910000000  0.6624610000000  0.4750140000000 1.0
C      1  0.4430450000000  0.6081490000000  0.5112230000000 1.0
C      1  0.5026270000000  0.5195550000000  0.5555970000000 1.0
C      1  0.4977140000000  0.4271200000000  0.4663250000000 1.0
C      1  0.5990300000000  0.4695510000000  0.5644380000000 1.0
C      1  0.4458020000000  0.5870580000000  0.4186310000000 1.0
C      1  0.4595170000000  0.5412430000000  0.5145350000000 1.0
C      1  0.3906710000000  0.4316610000000  0.4684370000000 1.0
C      1  0.5613860000000  0.3776220000000  0.5345750000000 1.0
C      1  0.5234350000000  0.4131470000000  0.4707470000000 1.0
C      1  0.5273830000000  0.4832890000000  0.5431280000000 1.0
C      1  0.5462700000000  0.3986310000000  0.5205420000000 1.0
C      1  0.5065540000000  0.5559340000000  0.5210320000000 1.0
C      1  0.5805910000000  0.5517600000000  0.4512910000000 1.0
C      1  0.4327070000000  0.5860220000000  0.4437860000000 1.0
C      1  0.4994670000000  0.4755060000000  0.5090300000000 1.0
C      1  0.4128600000000  0.5234730000000  0.4800200000000 1.0
C      1  0.6191900000000  0.4721810000000  0.4498150000000 1.0
C      1  0.6266170000000  0.4993790000000  0.4562520000000 1.0
C      1  0.5550400000000  0.5208260000000  0.3860340000000 1.0
C      1  0.4250460000000  0.5980980000000  0.4906460000000 1.0
C      1  0.5447300000000  0.4764130000000  0.4712650000000 1.0
C      1  0.5550900000000  0.4541600000000  0.4860460000000 1.0
C      1  0.4481970000000  0.5991770000000  0.5393370000000 1.0
C      1  0.4877340000000  0.4951420000000  0.3681210000000 1.0
C      1  0.4638360000000  0.4869620000000  0.4496970000000 1.0
C      1  0.5636320000000  0.5741720000000  0.4629150000000 1.0
C      1  0.6038370000000  0.5599550000000  0.5235240000000 1.0
C      1  0.4152170000000  0.4991360000000  0.4608390000000 1.0
C      1  0.5819590000000  0.5647220000000  0.5414050000000 1.0
C      1  0.4782270000000  0.4805810000000  0.3906520000000 1.0
C      1  0.5660940000000  0.4334470000000  0.4693510000000 1.0
C      1  0.5464830000000  0.4221450000000  0.4252940000000 1.0
C      1  0.5744450000000  0.6317930000000  0.4936200000000 1.0
C      1  0.5466130000000  0.5288810000000  0.5486970000000 1.0
C      1  0.4880730000000  0.4376520000000  0.4411030000000 1.0
C      1  0.4056540000000  0.4636360000000  0.6108650000000 1.0
C      1  0.4087460000000  0.5738510000000  0.4935400000000 1.0
C      1  0.3999380000000  0.4501550000000  0.5670210000000 1.0
C      1  0.4656120000000  0.5546610000000  0.5934560000000 1.0
C      1  0.6031870000000  0.4942350000000  0.4112870000000 1.0
C      1  0.4250810000000  0.5879500000000  0.5517680000000 1.0
C      1  0.5463410000000  0.4201710000000  0.4539690000000 1.0
C      1  0.4954350000000  0.5697120000000  0.4988530000000 1.0
C      1  0.4496410000000  0.4970130000000  0.5716860000000 1.0
C      1  0.4585150000000  0.4499960000000  0.4877040000000 1.0
C      1  0.4937830000000  0.4777620000000  0.4146150000000 1.0
C      1  0.5999070000000  0.5423290000000  0.4730430000000 1.0
C      1  0.4389390000000  0.4317280000000  0.5984480000000 1.0
C      1  0.4642830000000  0.6406730000000  0.4802800000000 1.0
C      1  0.5220370000000  0.4152280000000  0.4126960000000 1.0
C      1  0.4834520000000  0.4368920000000  0.4884280000000 1.0
C      1  0.4354700000000  0.5148970000000  0.3102060000000 1.0
C      1  0.5520930000000  0.4735000000000  0.3739730000000 1.0
C      1  0.4634250000000  0.5515300000000  0.5655050000000 1.0
C      1  0.5108620000000  0.5453490000000  0.4190690000000 1.0
C      1  0.5595100000000  0.5035050000000  0.5109570000000 1.0
C      1  0.5060960000000  0.4695360000000  0.6139900000000 1.0
C      1  0.5647990000000  0.4976400000000  0.5949490000000 1.0
C      1  0.5889820000000  0.4191890000000  0.5525310000000 1.0
C      1  0.4969820000000  0.3284860000000  0.5209840000000 1.0
C      1  0.4085300000000  0.5661260000000  0.5424480000000 1.0
C      1  0.5147610000000  0.5021040000000  0.3662240000000 1.0
C      1  0.5917780000000  0.4547140000000  0.5181680000000 1.0
C      1  0.5383240000000  0.5092500000000  0.6039050000000 1.0
C      1  0.5252940000000  0.5312300000000  0.5665980000000 1.0
C      1  0.4118720000000  0.4751510000000  0.4783330000000 1.0
C      1  0.6029870000000  0.4962550000000  0.4946080000000 1.0
C      1  0.4278750000000  0.4847380000000  0.4999570000000 1.0
C      1  0.5278840000000  0.5209610000000  0.4776670000000 1.0
END
