TITL C-627106-156-1223 0.432011529805351 125000 -81.6397942474334 0 0 15 (C1) n - 1
REM
REM in /home/nfs/bkarasulu/CARBON/AIRSS/Generating-Clusters/LCBOP/Only-C1/SD-CG/FIRE-CG
REM
REM
REM
REM
REM
REM ./C.cell (11c1c37f851c82e70ff6c80c92926a4b)
REM AIRSS Version 0.9.1 bugfix July 2018 build 013d7b7c2542+ Fri, 06 Jul 2018 19:26:36 +0100
REM compiler GCC version 9.2.1 20190827 (Red Hat 9.2.1-1)
REM options -cpp -mtune=generic -march=x86-64 -g -O0 -fpre-include=/usr/include/finclude/math-vector-fortran.h
REM seed 1082712515 772595420 -915158338 1664354809 1796682630 414154249 1597177609 713658327 1707154854 -1920741434 -241611116 -536648601 -737468853 366241784 1644265299 -607412400 1972797454 -1556662296 -378865333 -1709127733 460868035 -1125114502 -968391093 -1963480988 924982785 690499070 631189284 -770774595 1203346761 366904177 -41847015 349667880 -664799417
REM
CELL 1.54180   50.00000   50.00000   50.00000   90.00000   90.00000   90.00000
LATT -1
SFAC C  
C      1  0.4271820000000  0.4410250000000  0.5166880000000 1.0
C      1  0.5631290000000  0.5047210000000  0.5224020000000 1.0
C      1  0.4499520000000  0.4544260000000  0.5146530000000 1.0
C      1  0.5531070000000  0.5216750000000  0.4599120000000 1.0
C      1  0.5419250000000  0.5092170000000  0.5057080000000 1.0
C      1  0.5437440000000  0.5288440000000  0.4852270000000 1.0
C      1  0.3820040000000  0.4144360000000  0.5207260000000 1.0
C      1  0.5182270000000  0.4946590000000  0.5084960000000 1.0
C      1  0.4727220000000  0.4678280000000  0.5126180000000 1.0
C      1  0.5618330000000  0.5146480000000  0.4363820000000 1.0
C      1  0.5287230000000  0.5800270000000  0.4959780000000 1.0
C      1  0.4044050000000  0.4276200000000  0.5187240000000 1.0
C      1  0.5214330000000  0.6044660000000  0.5013820000000 1.0
C      1  0.4954920000000  0.4812290000000  0.5105820000000 1.0
C      1  0.5361220000000  0.5551800000000  0.4905240000000 1.0
END
