TITL C-627109-622-1417 212.719017284058 125000 -264.943279166566 0 0 45 (C1) n - 1
REM
REM in /home/nfs/bkarasulu/CARBON/AIRSS/Generating-Clusters/LCBOP/Only-C1/SD-CG/FIRE-CG
REM
REM
REM
REM
REM
REM ./C.cell (11c1c37f851c82e70ff6c80c92926a4b)
REM AIRSS Version 0.9.1 bugfix July 2018 build 013d7b7c2542+ Fri, 06 Jul 2018 19:26:36 +0100
REM compiler GCC version 9.2.1 20190827 (Red Hat 9.2.1-1)
REM options -cpp -mtune=generic -march=x86-64 -g -O0 -fpre-include=/usr/include/finclude/math-vector-fortran.h
REM seed 1685288488 -931609465 2077780109 -38080918 1579860747 849837736 -26877964 -273599191 -1973663002 -108077327 280883332 -197543239 265023832 -1207861011 1364585392 2147355970 1757275862 403647966 -2017632423 -817744811 -1328492941 881188469 835181929 -700538497 17111623 2102941442 -955148049 -1102954803 900224347 1580127468 -1168803903 571242261 1387748370
REM
CELL 1.54180   50.00000   50.00000   50.00000   90.00000   90.00000   90.00000
LATT -1
SFAC C  
C      1  0.4674530000000  0.5157540000000  0.4268300000000 1.0
C      1  0.5406900000000  0.3783180000000  0.5599250000000 1.0
C      1  0.6124020000000  0.5057940000000  0.5299310000000 1.0
C      1  0.4638190000000  0.5879800000000  0.4823900000000 1.0
C      1  0.4506270000000  0.5776020000000  0.4282150000000 1.0
C      1  0.5809960000000  0.4649140000000  0.5374460000000 1.0
C      1  0.5209740000000  0.2793840000000  0.5924680000000 1.0
C      1  0.4056230000000  0.5550270000000  0.4307000000000 1.0
C      1  0.4875290000000  0.6350410000000  0.4940030000000 1.0
C      1  0.5357900000000  0.3535770000000  0.5680570000000 1.0
C      1  0.6078740000000  0.5539260000000  0.5104180000000 1.0
C      1  0.5235680000000  0.5605570000000  0.4846100000000 1.0
C      1  0.5455610000000  0.4030640000000  0.5517950000000 1.0
C      1  0.5929440000000  0.5728210000000  0.4993430000000 1.0
C      1  0.4260560000000  0.5191980000000  0.4553060000000 1.0
C      1  0.4884190000000  0.5266400000000  0.4912880000000 1.0
C      1  0.5349350000000  0.4693950000000  0.5240700000000 1.0
C      1  0.6004960000000  0.4827870000000  0.5356360000000 1.0
C      1  0.4023280000000  0.5304630000000  0.4441100000000 1.0
C      1  0.4364140000000  0.5295090000000  0.4798730000000 1.0
C      1  0.3545800000000  0.5059890000000  0.4488420000000 1.0
C      1  0.4611080000000  0.5202060000000  0.4895930000000 1.0
C      1  0.5712260000000  0.5866490000000  0.4884120000000 1.0
C      1  0.5739660000000  0.6125450000000  0.4800860000000 1.0
C      1  0.4788250000000  0.5688650000000  0.4673490000000 1.0
C      1  0.4206860000000  0.6008510000000  0.5011440000000 1.0
C      1  0.4373450000000  0.5815960000000  0.4911740000000 1.0
C      1  0.4446320000000  0.5067700000000  0.4379530000000 1.0
C      1  0.4244230000000  0.5731440000000  0.4247860000000 1.0
C      1  0.4725080000000  0.5641650000000  0.4399150000000 1.0
C      1  0.3776180000000  0.5179280000000  0.4464200000000 1.0
C      1  0.5554170000000  0.4538830000000  0.5351140000000 1.0
C      1  0.4798890000000  0.5396090000000  0.4279740000000 1.0
C      1  0.5308660000000  0.3288430000000  0.5761920000000 1.0
C      1  0.4286850000000  0.5549470000000  0.4889570000000 1.0
C      1  0.4753230000000  0.6126820000000  0.4885080000000 1.0
C      1  0.5160180000000  0.2546490000000  0.6006060000000 1.0
C      1  0.5198510000000  0.4882700000000  0.5131780000000 1.0
C      1  0.5466240000000  0.5735020000000  0.4861710000000 1.0
C      1  0.4972500000000  0.5518830000000  0.4811070000000 1.0
C      1  0.5259250000000  0.3041120000000  0.5843290000000 1.0
C      1  0.5503920000000  0.4278080000000  0.5436710000000 1.0
C      1  0.5111420000000  0.2303220000000  0.6086090000000 1.0
C      1  0.6148840000000  0.5306800000000  0.5210880000000 1.0
C      1  0.5063200000000  0.5083500000000  0.5024070000000 1.0
END
