TITL C-627113-6568-213 -5.07052192666145e-07 125000 -328.088749739445 0 0 54 (C1) n - 1
REM
REM in /home/nfs/bkarasulu/CARBON/AIRSS/Generating-Clusters/LCBOP/Only-C1/SD-CG/FIRE-CG
REM
REM
REM
REM
REM
REM ./C.cell (11c1c37f851c82e70ff6c80c92926a4b)
REM AIRSS Version 0.9.1 bugfix July 2018 build 013d7b7c2542+ Fri, 06 Jul 2018 19:26:36 +0100
REM compiler GCC version 9.2.1 20190827 (Red Hat 9.2.1-1)
REM options -cpp -mtune=generic -march=x86-64 -g -O0 -fpre-include=/usr/include/finclude/math-vector-fortran.h
REM seed -1559278273 -1565712885 1831122807 2115017769 -1158842540 -111020672 -1175810044 446062706 -316162826 -176232727 292686426 -400503940 -1754600088 1134389742 -713658346 1673852250 -765282535 -1110606451 1653080287 238256005 554206681 1151217318 79604264 1290604620 -1195565740 -719068303 1179673883 -795302650 -994850509 -130257367 44992192 1431940825 -785200321
REM
CELL 1.54180   50.00000   50.00000   50.00000   90.00000   90.00000   90.00000
LATT -1
SFAC C  
C      1  0.5228020000000  0.5373560000000  0.4357820000000 1.0
C      1  0.4166040000000  0.5135910000000  0.5455750000000 1.0
C      1  0.5412610000000  0.4965830000000  0.5106560000000 1.0
C      1  0.4654850000000  0.5569510000000  0.5194360000000 1.0
C      1  0.5702460000000  0.5283690000000  0.5355500000000 1.0
C      1  0.5089380000000  0.4141590000000  0.5187360000000 1.0
C      1  0.4582650000000  0.5102140000000  0.5140290000000 1.0
C      1  0.4545720000000  0.5343600000000  0.4724340000000 1.0
C      1  0.5593330000000  0.5356140000000  0.4923490000000 1.0
C      1  0.4755860000000  0.5387910000000  0.4521980000000 1.0
C      1  0.4031190000000  0.5358280000000  0.5518360000000 1.0
C      1  0.5923100000000  0.5140380000000  0.5221910000000 1.0
C      1  0.4624610000000  0.4404120000000  0.4615630000000 1.0
C      1  0.5048130000000  0.5387640000000  0.4581900000000 1.0
C      1  0.5115490000000  0.5191450000000  0.4781600000000 1.0
C      1  0.4226960000000  0.5790210000000  0.5367940000000 1.0
C      1  0.5218150000000  0.4645320000000  0.4347100000000 1.0
C      1  0.5496520000000  0.5083590000000  0.5352970000000 1.0
C      1  0.5349270000000  0.4691430000000  0.5125220000000 1.0
C      1  0.5115060000000  0.4409860000000  0.4793200000000 1.0
C      1  0.5390140000000  0.4536220000000  0.5369770000000 1.0
C      1  0.4685730000000  0.4229770000000  0.4843750000000 1.0
C      1  0.4557490000000  0.4685850000000  0.4622900000000 1.0
C      1  0.5114710000000  0.5424820000000  0.5465170000000 1.0
C      1  0.5798330000000  0.4741180000000  0.5532350000000 1.0
C      1  0.5507170000000  0.4706660000000  0.5576070000000 1.0
C      1  0.4050630000000  0.5622990000000  0.5481260000000 1.0
C      1  0.4962070000000  0.4196630000000  0.4933740000000 1.0
C      1  0.4855360000000  0.4957170000000  0.4323990000000 1.0
C      1  0.5866380000000  0.5223490000000  0.4944160000000 1.0
C      1  0.5129710000000  0.4900620000000  0.4252740000000 1.0
C      1  0.4588830000000  0.5361770000000  0.5010720000000 1.0
C      1  0.4857650000000  0.5509350000000  0.5384020000000 1.0
C      1  0.4765110000000  0.4552720000000  0.5352140000000 1.0
C      1  0.4834250000000  0.4356250000000  0.4418630000000 1.0
C      1  0.5372860000000  0.4975300000000  0.5584990000000 1.0
C      1  0.4791310000000  0.4855060000000  0.4582580000000 1.0
C      1  0.5283270000000  0.5139310000000  0.4225990000000 1.0
C      1  0.4376530000000  0.5044190000000  0.5319640000000 1.0
C      1  0.5327350000000  0.5562000000000  0.5324340000000 1.0
C      1  0.4785910000000  0.4931390000000  0.5053460000000 1.0
C      1  0.4335450000000  0.4865150000000  0.4644110000000 1.0
C      1  0.5117410000000  0.4610910000000  0.4995000000000 1.0
C      1  0.5373900000000  0.5162120000000  0.4897300000000 1.0
C      1  0.4908910000000  0.4993380000000  0.4805500000000 1.0
C      1  0.5095310000000  0.4442690000000  0.4506860000000 1.0
C      1  0.5959250000000  0.4890750000000  0.5362790000000 1.0
C      1  0.5570090000000  0.5490970000000  0.5194790000000 1.0
C      1  0.4734020000000  0.5214490000000  0.4286530000000 1.0
C      1  0.5263100000000  0.4277740000000  0.5353800000000 1.0
C      1  0.4347890000000  0.5139570000000  0.4656120000000 1.0
C      1  0.4878920000000  0.4684760000000  0.5143030000000 1.0
C      1  0.5169190000000  0.5182490000000  0.5629430000000 1.0
C      1  0.4466330000000  0.5770090000000  0.5249060000000 1.0
END
