TITL C-627107-135-1352 0.192925068830468 125000 -425.610159103281 0 0 70 (C1) n - 1
REM
REM in /home/nfs/bkarasulu/CARBON/AIRSS/Generating-Clusters/LCBOP/Only-C1/SD-CG/FIRE-CG
REM
REM
REM
REM
REM
REM ./C.cell (11c1c37f851c82e70ff6c80c92926a4b)
REM AIRSS Version 0.9.1 bugfix July 2018 build 013d7b7c2542+ Fri, 06 Jul 2018 19:26:36 +0100
REM compiler GCC version 9.2.1 20190827 (Red Hat 9.2.1-1)
REM options -cpp -mtune=generic -march=x86-64 -g -O0 -fpre-include=/usr/include/finclude/math-vector-fortran.h
REM seed 194214087 125803893 1982497531 983431995 1063280765 -772275534 -233083756 1141108244 259790025 521828795 1620621172 -2145513289 873468431 1918690249 -1831260905 625526267 -1658120423 -1615507842 1269398036 -1859386773 1711427032 2012981851 29836114 -1183141621 -1005966658 -74870700 -2045093019 1405027065 189506327 1282444989 -1911487706 891130675 1883988351
REM
CELL 1.54180   50.00000   50.00000   50.00000   90.00000   90.00000   90.00000
LATT -1
SFAC C  
C      1  0.4175400000000  0.4880310000000  0.3840530000000 1.0
C      1  0.4707050000000  0.5638030000000  0.5275010000000 1.0
C      1  0.5193430000000  0.5678850000000  0.4706110000000 1.0
C      1  0.6198530000000  0.6009470000000  0.6379860000000 1.0
C      1  0.4836950000000  0.4305320000000  0.4946560000000 1.0
C      1  0.5016750000000  0.4702030000000  0.4737100000000 1.0
C      1  0.4707570000000  0.4533200000000  0.4437610000000 1.0
C      1  0.5596950000000  0.5307190000000  0.5204080000000 1.0
C      1  0.5066830000000  0.5141010000000  0.5224590000000 1.0
C      1  0.6341220000000  0.6108420000000  0.6580130000000 1.0
C      1  0.5211520000000  0.5608660000000  0.5329870000000 1.0
C      1  0.4973820000000  0.4208810000000  0.4701300000000 1.0
C      1  0.6055870000000  0.5910550000000  0.6179640000000 1.0
C      1  0.5702450000000  0.4762640000000  0.4390620000000 1.0
C      1  0.3792090000000  0.4914530000000  0.5226330000000 1.0
C      1  0.5268110000000  0.5051810000000  0.4002900000000 1.0
C      1  0.5161240000000  0.4830980000000  0.3897220000000 1.0
C      1  0.4708900000000  0.5159490000000  0.5613330000000 1.0
C      1  0.4158330000000  0.4932470000000  0.4095370000000 1.0
C      1  0.5449260000000  0.5158660000000  0.4189280000000 1.0
C      1  0.4431090000000  0.4989360000000  0.4763550000000 1.0
C      1  0.5416050000000  0.4353430000000  0.4480000000000 1.0
C      1  0.4228790000000  0.5124030000000  0.5185370000000 1.0
C      1  0.5406210000000  0.4763980000000  0.5273920000000 1.0
C      1  0.4371600000000  0.4810560000000  0.5612310000000 1.0
C      1  0.5423410000000  0.4350030000000  0.4931610000000 1.0
C      1  0.4940450000000  0.4196240000000  0.4195500000000 1.0
C      1  0.5333860000000  0.5445170000000  0.4624430000000 1.0
C      1  0.4474980000000  0.4388980000000  0.5325200000000 1.0
C      1  0.4904160000000  0.4726960000000  0.5197410000000 1.0
C      1  0.4843890000000  0.4278780000000  0.4447220000000 1.0
C      1  0.4152940000000  0.4980590000000  0.4355850000000 1.0
C      1  0.5541710000000  0.5128690000000  0.4986250000000 1.0
C      1  0.5913210000000  0.5811630000000  0.5979430000000 1.0
C      1  0.4442770000000  0.4981690000000  0.5050840000000 1.0
C      1  0.5034560000000  0.5753950000000  0.4912140000000 1.0
C      1  0.5627950000000  0.5613820000000  0.5579100000000 1.0
C      1  0.5333850000000  0.5239840000000  0.4823680000000 1.0
C      1  0.5099310000000  0.4571800000000  0.3884280000000 1.0
C      1  0.5457060000000  0.4505430000000  0.5378250000000 1.0
C      1  0.5557550000000  0.4610050000000  0.4845620000000 1.0
C      1  0.5032490000000  0.4332750000000  0.3983190000000 1.0
C      1  0.4623420000000  0.4264650000000  0.5131930000000 1.0
C      1  0.5770550000000  0.5712710000000  0.5779210000000 1.0
C      1  0.4858630000000  0.5196970000000  0.4761510000000 1.0
C      1  0.4023950000000  0.4531290000000  0.5441960000000 1.0
C      1  0.5442800000000  0.4294320000000  0.5207420000000 1.0
C      1  0.4303280000000  0.4566480000000  0.5473770000000 1.0
C      1  0.4319820000000  0.5273620000000  0.5409650000000 1.0
C      1  0.5267310000000  0.4239400000000  0.4705880000000 1.0
C      1  0.5476930000000  0.5508760000000  0.5368220000000 1.0
C      1  0.5393380000000  0.5374410000000  0.4360080000000 1.0
C      1  0.4429350000000  0.5092850000000  0.5618680000000 1.0
C      1  0.3818760000000  0.4681820000000  0.5357240000000 1.0
C      1  0.4180910000000  0.5016890000000  0.4629960000000 1.0
C      1  0.4810010000000  0.5141970000000  0.5350990000000 1.0
C      1  0.4943740000000  0.4568820000000  0.4974600000000 1.0
C      1  0.6481570000000  0.6205740000000  0.6777100000000 1.0
C      1  0.4683490000000  0.5009290000000  0.4639170000000 1.0
C      1  0.4976920000000  0.5682670000000  0.5182420000000 1.0
C      1  0.4808030000000  0.4768210000000  0.4557440000000 1.0
C      1  0.5076100000000  0.5206730000000  0.4942680000000 1.0
C      1  0.3968560000000  0.5076390000000  0.5080190000000 1.0
C      1  0.5580990000000  0.4578450000000  0.4557530000000 1.0
C      1  0.4474840000000  0.5514930000000  0.5351830000000 1.0
C      1  0.3961780000000  0.5080390000000  0.4797590000000 1.0
C      1  0.4679620000000  0.4917340000000  0.5200260000000 1.0
C      1  0.5146990000000  0.4866450000000  0.5284100000000 1.0
C      1  0.5544120000000  0.4837520000000  0.5027230000000 1.0
C      1  0.5663970000000  0.4990750000000  0.4258760000000 1.0
END
