TITL C-627111-6168-462 -1.4253397968712e-07 125000 -536.060940766985 0 0 90 (C1) n - 1
REM
REM in /home/nfs/bkarasulu/CARBON/AIRSS/Generating-Clusters/LCBOP/Only-C1/SD-CG/FIRE-CG
REM
REM
REM
REM
REM
REM ./C.cell (11c1c37f851c82e70ff6c80c92926a4b)
REM AIRSS Version 0.9.1 bugfix July 2018 build 013d7b7c2542+ Fri, 06 Jul 2018 19:26:36 +0100
REM compiler GCC version 9.2.1 20190827 (Red Hat 9.2.1-1)
REM options -cpp -mtune=generic -march=x86-64 -g -O0 -fpre-include=/usr/include/finclude/math-vector-fortran.h
REM seed 68475626 1827781743 1813245929 922860221 -1266402279 -1173727088 -873108313 1249839966 -1476093314 1447419563 975296850 -1235436995 -1073815492 1386307625 -389444241 -1279931157 -545659333 136568958 -2113690809 628529584 29145582 2018309332 -356372255 1383272792 -833635917 -283221299 1615809611 1562272470 -1624342839 -581206790 -1029864188 235233990 -989186057
REM
CELL 1.54180   50.00000   50.00000   50.00000   90.00000   90.00000   90.00000
LATT -1
SFAC C  
C      1  0.4295110000000  0.5221010000000  0.4476330000000 1.0
C      1  0.5172130000000  0.5297990000000  0.4365770000000 1.0
C      1  0.4902710000000  0.4721300000000  0.5617220000000 1.0
C      1  0.4376280000000  0.5264170000000  0.4204570000000 1.0
C      1  0.5288020000000  0.4712050000000  0.4250750000000 1.0
C      1  0.4642140000000  0.4331630000000  0.5571350000000 1.0
C      1  0.5523340000000  0.4705040000000  0.5024500000000 1.0
C      1  0.4995500000000  0.5270080000000  0.5067440000000 1.0
C      1  0.5048250000000  0.5172840000000  0.4598250000000 1.0
C      1  0.5478690000000  0.4952310000000  0.5101200000000 1.0
C      1  0.5045990000000  0.4735320000000  0.4727910000000 1.0
C      1  0.5474280000000  0.5057890000000  0.4587150000000 1.0
C      1  0.5459870000000  0.4470530000000  0.5471980000000 1.0
C      1  0.4601420000000  0.5233260000000  0.5927230000000 1.0
C      1  0.4676140000000  0.3941980000000  0.4768640000000 1.0
C      1  0.4370700000000  0.5443210000000  0.4637310000000 1.0
C      1  0.5218600000000  0.4953600000000  0.4676650000000 1.0
C      1  0.4743910000000  0.4941110000000  0.4153070000000 1.0
C      1  0.5641100000000  0.5744080000000  0.4720490000000 1.0
C      1  0.5096210000000  0.4209040000000  0.4717340000000 1.0
C      1  0.5054720000000  0.5550380000000  0.4325420000000 1.0
C      1  0.5177160000000  0.5739810000000  0.4501680000000 1.0
C      1  0.4394950000000  0.5396540000000  0.5447790000000 1.0
C      1  0.4781290000000  0.4664730000000  0.4644570000000 1.0
C      1  0.5417220000000  0.4306600000000  0.5240010000000 1.0
C      1  0.4632360000000  0.5501260000000  0.5294110000000 1.0
C      1  0.5425180000000  0.5189150000000  0.5241130000000 1.0
C      1  0.5424110000000  0.5170880000000  0.4318370000000 1.0
C      1  0.4767360000000  0.5488800000000  0.4339980000000 1.0
C      1  0.4769630000000  0.5719540000000  0.5135640000000 1.0
C      1  0.4114550000000  0.4974740000000  0.5205650000000 1.0
C      1  0.5485190000000  0.4695560000000  0.5618860000000 1.0
C      1  0.5429460000000  0.4444420000000  0.4988530000000 1.0
C      1  0.4176760000000  0.4527190000000  0.4490890000000 1.0
C      1  0.4450100000000  0.5345250000000  0.5728810000000 1.0
C      1  0.4667040000000  0.5237380000000  0.4184540000000 1.0
C      1  0.4928600000000  0.4605340000000  0.5349770000000 1.0
C      1  0.5149040000000  0.5459150000000  0.5668100000000 1.0
C      1  0.5313330000000  0.5814790000000  0.5372700000000 1.0
C      1  0.4621660000000  0.5577560000000  0.4596530000000 1.0
C      1  0.5729710000000  0.4965840000000  0.4661720000000 1.0
C      1  0.5321510000000  0.4385870000000  0.4721470000000 1.0
C      1  0.5436200000000  0.4556820000000  0.4490530000000 1.0
C      1  0.4839550000000  0.5077850000000  0.5955190000000 1.0
C      1  0.5867500000000  0.5168140000000  0.4818380000000 1.0
C      1  0.4661240000000  0.5044770000000  0.4891660000000 1.0
C      1  0.4577830000000  0.4864600000000  0.4702510000000 1.0
C      1  0.5278320000000  0.5690040000000  0.5622780000000 1.0
C      1  0.5467010000000  0.4969760000000  0.5702080000000 1.0
C      1  0.5567640000000  0.5775380000000  0.5217190000000 1.0
C      1  0.5371490000000  0.4038350000000  0.5259870000000 1.0
C      1  0.5949300000000  0.5343050000000  0.5272480000000 1.0
C      1  0.4604160000000  0.4354240000000  0.5049690000000 1.0
C      1  0.4278070000000  0.4729970000000  0.5174770000000 1.0
C      1  0.4740720000000  0.4518680000000  0.5752320000000 1.0
C      1  0.5551300000000  0.5172120000000  0.5505780000000 1.0
C      1  0.4791410000000  0.5259420000000  0.5261890000000 1.0
C      1  0.5008180000000  0.4803870000000  0.4181490000000 1.0
C      1  0.5458240000000  0.5784270000000  0.4523910000000 1.0
C      1  0.4730530000000  0.4392260000000  0.5301230000000 1.0
C      1  0.5208310000000  0.5638860000000  0.4978260000000 1.0
C      1  0.4353810000000  0.4950680000000  0.4547090000000 1.0
C      1  0.5858280000000  0.5394740000000  0.5006670000000 1.0
C      1  0.5076350000000  0.5787540000000  0.5203480000000 1.0
C      1  0.5704490000000  0.5647080000000  0.4982660000000 1.0
C      1  0.4646410000000  0.5028460000000  0.5177160000000 1.0
C      1  0.4341210000000  0.4495900000000  0.5001440000000 1.0
C      1  0.5253920000000  0.5372420000000  0.5093220000000 1.0
C      1  0.5048070000000  0.5221060000000  0.5589760000000 1.0
C      1  0.5330990000000  0.5029650000000  0.5951080000000 1.0
C      1  0.5707520000000  0.4685670000000  0.4566970000000 1.0
C      1  0.5446360000000  0.4941010000000  0.4149370000000 1.0
C      1  0.5055140000000  0.5729320000000  0.4755060000000 1.0
C      1  0.4880030000000  0.5210630000000  0.4814190000000 1.0
C      1  0.4294810000000  0.4750200000000  0.4353160000000 1.0
C      1  0.4767620000000  0.5706830000000  0.4817490000000 1.0
C      1  0.4758740000000  0.4195790000000  0.4867530000000 1.0
C      1  0.5098410000000  0.5154570000000  0.6640520000000 1.0
C      1  0.4204230000000  0.4454950000000  0.4752940000000 1.0
C      1  0.5094720000000  0.3958240000000  0.4582870000000 1.0
C      1  0.4927940000000  0.4987820000000  0.5692730000000 1.0
C      1  0.4746890000000  0.4451720000000  0.4458840000000 1.0
C      1  0.4194810000000  0.5221500000000  0.5314330000000 1.0
C      1  0.4521330000000  0.4730920000000  0.4164150000000 1.0
C      1  0.5089050000000  0.5075960000000  0.6107710000000 1.0
C      1  0.4516380000000  0.4821490000000  0.5301860000000 1.0
C      1  0.5095590000000  0.5115630000000  0.6382860000000 1.0
C      1  0.4862980000000  0.3814120000000  0.4613260000000 1.0
C      1  0.4638860000000  0.4472350000000  0.4210310000000 1.0
C      1  0.5816740000000  0.5272070000000  0.5497870000000 1.0
END
