TITL C-627110-360-1922 2.99060552867678e-06 125000 -1160.50552504859 0 0 190 (C1) n - 1
REM
REM in /home/nfs/bkarasulu/CARBON/AIRSS/Generating-Clusters/LCBOP/Only-C1/SD-CG/FIRE-CG
REM
REM
REM
REM
REM
REM ./C.cell (11c1c37f851c82e70ff6c80c92926a4b)
REM AIRSS Version 0.9.1 bugfix July 2018 build 013d7b7c2542+ Fri, 06 Jul 2018 19:26:36 +0100
REM compiler GCC version 9.2.1 20190827 (Red Hat 9.2.1-1)
REM options -cpp -mtune=generic -march=x86-64 -g -O0 -fpre-include=/usr/include/finclude/math-vector-fortran.h
REM seed 2141464565 -784379736 -1050265911 -1249709078 1773564430 -1256033585 1888113445 -1285875193 1075865422 -1354588647 964041848 130053880 -1669372570 727279108 1132993547 1257442506 -929794819 -1399202197 -1728456489 1750228953 -1032416447 -1225734888 1663967549 -938324345 -118617427 -465019702 -330550126 -1044543869 1485081773 93887843 1180781023 1299645295 -1225878370
REM
CELL 1.54180   50.00000   50.00000   50.00000   90.00000   90.00000   90.00000
LATT -1
SFAC C  
C      1  0.4617340000000  0.4032870000000  0.5072320000000 1.0
C      1  0.4579180000000  0.4763110000000  0.5860790000000 1.0
C      1  0.4391920000000  0.6088060000000  0.4630560000000 1.0
C      1  0.4396430000000  0.4861980000000  0.5656730000000 1.0
C      1  0.4256710000000  0.5653480000000  0.4690700000000 1.0
C      1  0.4707160000000  0.3882770000000  0.5521830000000 1.0
C      1  0.5130080000000  0.4912270000000  0.4982470000000 1.0
C      1  0.4966370000000  0.5841410000000  0.5666840000000 1.0
C      1  0.4515600000000  0.4227770000000  0.5869430000000 1.0
C      1  0.4829070000000  0.5010500000000  0.5044320000000 1.0
C      1  0.6109080000000  0.4423910000000  0.4741680000000 1.0
C      1  0.4933980000000  0.4899460000000  0.6207330000000 1.0
C      1  0.3911040000000  0.4584270000000  0.4720960000000 1.0
C      1  0.5110920000000  0.3862980000000  0.4645300000000 1.0
C      1  0.4923940000000  0.6102650000000  0.5216860000000 1.0
C      1  0.5059680000000  0.4865370000000  0.4527820000000 1.0
C      1  0.5533530000000  0.4484490000000  0.5013730000000 1.0
C      1  0.5517200000000  0.4110590000000  0.5474330000000 1.0
C      1  0.4116540000000  0.5511930000000  0.4269020000000 1.0
C      1  0.4873600000000  0.4118580000000  0.4294030000000 1.0
C      1  0.5860770000000  0.5506760000000  0.5455560000000 1.0
C      1  0.4845190000000  0.5744140000000  0.4923860000000 1.0
C      1  0.5016030000000  0.5429810000000  0.4269950000000 1.0
C      1  0.5058400000000  0.5293500000000  0.4758020000000 1.0
C      1  0.5097870000000  0.4700490000000  0.4779420000000 1.0
C      1  0.6160150000000  0.5441270000000  0.5069990000000 1.0
C      1  0.4121320000000  0.4918500000000  0.5694870000000 1.0
C      1  0.4590190000000  0.4321650000000  0.5181790000000 1.0
C      1  0.4890190000000  0.6213440000000  0.4650700000000 1.0
C      1  0.4774910000000  0.4930420000000  0.5329280000000 1.0
C      1  0.3888920000000  0.5340170000000  0.4706890000000 1.0
C      1  0.6057690000000  0.5339050000000  0.5323810000000 1.0
C      1  0.4770510000000  0.4357450000000  0.3876860000000 1.0
C      1  0.5543420000000  0.5058530000000  0.4471010000000 1.0
C      1  0.6289870000000  0.5266160000000  0.4880320000000 1.0
C      1  0.4871300000000  0.4413210000000  0.5664540000000 1.0
C      1  0.4851250000000  0.5460990000000  0.6007540000000 1.0
C      1  0.5506110000000  0.5317400000000  0.6655650000000 1.0
C      1  0.6120620000000  0.4833510000000  0.4286780000000 1.0
C      1  0.4416440000000  0.5434910000000  0.5045280000000 1.0
C      1  0.5923840000000  0.5329150000000  0.4552580000000 1.0
C      1  0.5207750000000  0.4976890000000  0.5647240000000 1.0
C      1  0.4703600000000  0.4622040000000  0.3964260000000 1.0
C      1  0.5018450000000  0.5012980000000  0.3958860000000 1.0
C      1  0.5562730000000  0.4685070000000  0.5846910000000 1.0
C      1  0.5600260000000  0.4693000000000  0.4843760000000 1.0
C      1  0.5660450000000  0.5905520000000  0.5168850000000 1.0
C      1  0.5449470000000  0.5105400000000  0.6042840000000 1.0
C      1  0.5655580000000  0.5313610000000  0.6434820000000 1.0
C      1  0.4523870000000  0.5054570000000  0.3860840000000 1.0
C      1  0.4932040000000  0.5687300000000  0.5884570000000 1.0
C      1  0.5653070000000  0.5265880000000  0.6160440000000 1.0
C      1  0.4964930000000  0.5031330000000  0.5521750000000 1.0
C      1  0.5270960000000  0.5708820000000  0.4689460000000 1.0
C      1  0.4246110000000  0.5208180000000  0.5024970000000 1.0
C      1  0.4325770000000  0.4973520000000  0.5178100000000 1.0
C      1  0.3525320000000  0.5362010000000  0.5048750000000 1.0
C      1  0.5012950000000  0.5882520000000  0.5392310000000 1.0
C      1  0.4977810000000  0.4455910000000  0.4886310000000 1.0
C      1  0.5099650000000  0.4262030000000  0.5761220000000 1.0
C      1  0.6183110000000  0.4892220000000  0.4557090000000 1.0
C      1  0.5104630000000  0.4299520000000  0.5081000000000 1.0
C      1  0.4458280000000  0.3726680000000  0.4140910000000 1.0
C      1  0.5032100000000  0.5148250000000  0.6663540000000 1.0
C      1  0.5805200000000  0.4560010000000  0.5737110000000 1.0
C      1  0.5522210000000  0.5330310000000  0.4821280000000 1.0
C      1  0.5203260000000  0.5456950000000  0.4520400000000 1.0
C      1  0.6181350000000  0.5172910000000  0.4628200000000 1.0
C      1  0.4562760000000  0.5477230000000  0.4150500000000 1.0
C      1  0.4611690000000  0.5545100000000  0.4605320000000 1.0
C      1  0.5542550000000  0.3986940000000  0.4927410000000 1.0
C      1  0.5458340000000  0.5893770000000  0.4597150000000 1.0
C      1  0.4209790000000  0.4757040000000  0.5042300000000 1.0
C      1  0.3638730000000  0.5419850000000  0.4810920000000 1.0
C      1  0.5730420000000  0.5452460000000  0.5706530000000 1.0
C      1  0.5617410000000  0.6067660000000  0.4485410000000 1.0
C      1  0.5707950000000  0.4232780000000  0.5014660000000 1.0
C      1  0.4404320000000  0.5364610000000  0.5896110000000 1.0
C      1  0.4045620000000  0.4365810000000  0.5352410000000 1.0
C      1  0.4870020000000  0.3932120000000  0.4513470000000 1.0
C      1  0.5339130000000  0.4298040000000  0.5614940000000 1.0
C      1  0.6045020000000  0.4775150000000  0.5296500000000 1.0
C      1  0.4461630000000  0.3703720000000  0.4409850000000 1.0
C      1  0.4652550000000  0.5255720000000  0.5987960000000 1.0
C      1  0.4588390000000  0.3893700000000  0.3973700000000 1.0
C      1  0.5647270000000  0.5652290000000  0.5307380000000 1.0
C      1  0.4062650000000  0.5506620000000  0.4551120000000 1.0
C      1  0.5449480000000  0.5320120000000  0.4398230000000 1.0
C      1  0.4654980000000  0.4667350000000  0.4687720000000 1.0
C      1  0.3768710000000  0.4771590000000  0.5176260000000 1.0
C      1  0.4280270000000  0.4620790000000  0.4200520000000 1.0
C      1  0.5423440000000  0.4820280000000  0.6066760000000 1.0
C      1  0.5179950000000  0.5694380000000  0.5240300000000 1.0
C      1  0.5170080000000  0.4489300000000  0.6313580000000 1.0
C      1  0.4596730000000  0.4485880000000  0.4926210000000 1.0
C      1  0.5441450000000  0.5412370000000  0.5654180000000 1.0
C      1  0.5130890000000  0.5722900000000  0.4948490000000 1.0
C      1  0.4498360000000  0.4918690000000  0.5394720000000 1.0
C      1  0.4720850000000  0.4967300000000  0.6018820000000 1.0
C      1  0.5685890000000  0.5435010000000  0.4288840000000 1.0
C      1  0.5377670000000  0.5226760000000  0.5217080000000 1.0
C      1  0.4348860000000  0.5685690000000  0.4212480000000 1.0
C      1  0.5620080000000  0.4621430000000  0.4572710000000 1.0
C      1  0.4108620000000  0.5289580000000  0.4089920000000 1.0
C      1  0.5491970000000  0.5020880000000  0.3890480000000 1.0
C      1  0.4307840000000  0.4315500000000  0.5319280000000 1.0
C      1  0.5743520000000  0.4939010000000  0.4941280000000 1.0
C      1  0.4570290000000  0.3997810000000  0.5728280000000 1.0
C      1  0.5409450000000  0.5302380000000  0.3929990000000 1.0
C      1  0.4858130000000  0.5101080000000  0.4569290000000 1.0
C      1  0.4387680000000  0.5974650000000  0.5105700000000 1.0
C      1  0.4008860000000  0.5130520000000  0.4859050000000 1.0
C      1  0.4761140000000  0.4898080000000  0.3897070000000 1.0
C      1  0.5280180000000  0.5188910000000  0.4935660000000 1.0
C      1  0.4474850000000  0.3976360000000  0.4824380000000 1.0
C      1  0.4279390000000  0.5908050000000  0.5359380000000 1.0
C      1  0.4631990000000  0.6209640000000  0.4781050000000 1.0
C      1  0.4905500000000  0.5305470000000  0.5540820000000 1.0
C      1  0.5344140000000  0.3881080000000  0.4778240000000 1.0
C      1  0.5513140000000  0.4798380000000  0.4387900000000 1.0
C      1  0.5450020000000  0.4253010000000  0.4368800000000 1.0
C      1  0.5080920000000  0.4032310000000  0.5209540000000 1.0
C      1  0.4957710000000  0.4382540000000  0.4363480000000 1.0
C      1  0.4245900000000  0.5768050000000  0.5588150000000 1.0
C      1  0.4785070000000  0.4408350000000  0.5393800000000 1.0
C      1  0.5911190000000  0.5901910000000  0.5032120000000 1.0
C      1  0.3720120000000  0.4989800000000  0.5356850000000 1.0
C      1  0.5759680000000  0.4934230000000  0.3915310000000 1.0
C      1  0.5625100000000  0.5478090000000  0.4015330000000 1.0
C      1  0.4767480000000  0.5434250000000  0.5353350000000 1.0
C      1  0.5763600000000  0.4237720000000  0.5331890000000 1.0
C      1  0.5865410000000  0.4275720000000  0.4744300000000 1.0
C      1  0.4762310000000  0.4108880000000  0.4025810000000 1.0
C      1  0.5324070000000  0.3937800000000  0.5336830000000 1.0
C      1  0.3847520000000  0.4626480000000  0.4451690000000 1.0
C      1  0.4219250000000  0.4108590000000  0.4764050000000 1.0
C      1  0.4814570000000  0.3923810000000  0.5257080000000 1.0
C      1  0.5108590000000  0.6297120000000  0.4810910000000 1.0
C      1  0.5326130000000  0.4531260000000  0.5453710000000 1.0
C      1  0.4018930000000  0.4637250000000  0.4246340000000 1.0
C      1  0.4506830000000  0.5492630000000  0.5309880000000 1.0
C      1  0.5327100000000  0.4687340000000  0.4198840000000 1.0
C      1  0.6096920000000  0.5053380000000  0.5396980000000 1.0
C      1  0.4310240000000  0.4535060000000  0.4918800000000 1.0
C      1  0.6146070000000  0.4703990000000  0.4776800000000 1.0
C      1  0.4669500000000  0.5504700000000  0.4879170000000 1.0
C      1  0.4646180000000  0.6126090000000  0.5074560000000 1.0
C      1  0.4282540000000  0.5568230000000  0.5766260000000 1.0
C      1  0.4608650000000  0.3849110000000  0.4603850000000 1.0
C      1  0.5898000000000  0.4500780000000  0.5457040000000 1.0
C      1  0.3828800000000  0.4515850000000  0.5293020000000 1.0
C      1  0.5381990000000  0.5499300000000  0.5356780000000 1.0
C      1  0.3935310000000  0.4828520000000  0.4926120000000 1.0
C      1  0.4280420000000  0.5145720000000  0.3936400000000 1.0
C      1  0.5067090000000  0.6041200000000  0.4225710000000 1.0
C      1  0.4733510000000  0.5348470000000  0.4384180000000 1.0
C      1  0.5629390000000  0.4901710000000  0.5439270000000 1.0
C      1  0.4911040000000  0.6012860000000  0.4447590000000 1.0
C      1  0.5972680000000  0.4865850000000  0.4064630000000 1.0
C      1  0.6012750000000  0.4809370000000  0.5010710000000 1.0
C      1  0.6040710000000  0.5670010000000  0.4931880000000 1.0
C      1  0.5412820000000  0.4771520000000  0.5590030000000 1.0
C      1  0.4726780000000  0.4554010000000  0.4434080000000 1.0
C      1  0.5977890000000  0.5600560000000  0.4663840000000 1.0
C      1  0.4119580000000  0.4376320000000  0.4779830000000 1.0
C      1  0.4444310000000  0.5921220000000  0.4382170000000 1.0
C      1  0.5267500000000  0.4853710000000  0.3976190000000 1.0
C      1  0.5441150000000  0.6097190000000  0.5138500000000 1.0
C      1  0.4911970000000  0.5022240000000  0.6461920000000 1.0
C      1  0.5118420000000  0.5294480000000  0.4026540000000 1.0
C      1  0.5171210000000  0.6200810000000  0.5072510000000 1.0
C      1  0.4652590000000  0.4482030000000  0.5843940000000 1.0
C      1  0.4557510000000  0.4608310000000  0.4211610000000 1.0
C      1  0.5313100000000  0.4468640000000  0.5183400000000 1.0
C      1  0.5608550000000  0.5049290000000  0.5208600000000 1.0
C      1  0.3566220000000  0.5205300000000  0.5262990000000 1.0
C      1  0.5261430000000  0.5258030000000  0.6744320000000 1.0
C      1  0.4850970000000  0.5310220000000  0.4995180000000 1.0
C      1  0.5086860000000  0.4082980000000  0.5967170000000 1.0
C      1  0.5719370000000  0.5142780000000  0.4706490000000 1.0
C      1  0.5326080000000  0.5195940000000  0.5798270000000 1.0
C      1  0.4279020000000  0.5901480000000  0.4836490000000 1.0
C      1  0.5232130000000  0.4431570000000  0.4287370000000 1.0
C      1  0.3885520000000  0.4991370000000  0.5587150000000 1.0
C      1  0.5747720000000  0.5658900000000  0.3853640000000 1.0
C      1  0.4682490000000  0.4942610000000  0.4768840000000 1.0
C      1  0.5672860000000  0.4342300000000  0.4527100000000 1.0
C      1  0.5811560000000  0.5403180000000  0.5970330000000 1.0
C      1  0.4707310000000  0.5814820000000  0.4466940000000 1.0
C      1  0.5171940000000  0.4730650000000  0.6180870000000 1.0
END
