TITL C-627113-6568-1340 -9.61338720403751e-07 125000 -670.558025117905 0 0 111 (C1) n - 1
REM
REM in /home/nfs/bkarasulu/CARBON/AIRSS/Generating-Clusters/LCBOP/Only-C1/SD-CG/FIRE-CG
REM
REM
REM
REM
REM
REM ./C.cell (11c1c37f851c82e70ff6c80c92926a4b)
REM AIRSS Version 0.9.1 bugfix July 2018 build 013d7b7c2542+ Fri, 06 Jul 2018 19:26:36 +0100
REM compiler GCC version 9.2.1 20190827 (Red Hat 9.2.1-1)
REM options -cpp -mtune=generic -march=x86-64 -g -O0 -fpre-include=/usr/include/finclude/math-vector-fortran.h
REM seed -1067506693 -1420309445 939825612 -1988946844 -588004158 634652948 645077475 -83401739 -251987312 1218927219 -723618722 -2064445849 -393238267 -1486287140 739485778 1468358739 -1637906332 1229498043 -6538162 169840708 363877738 1130161967 -593599717 -1682643200 384729152 -799767128 -1544619697 -124486191 49889119 -1884571757 1501760712 1053938820 1695072581
REM
CELL 1.54180   50.00000   50.00000   50.00000   90.00000   90.00000   90.00000
LATT -1
SFAC C  
C      1  0.4965360000000  0.5942790000000  0.4844580000000 1.0
C      1  0.5411610000000  0.5870640000000  0.4360960000000 1.0
C      1  0.3838930000000  0.5016800000000  0.5203050000000 1.0
C      1  0.4647790000000  0.5308590000000  0.4405510000000 1.0
C      1  0.5464310000000  0.5487690000000  0.5654900000000 1.0
C      1  0.4810340000000  0.4938570000000  0.4069200000000 1.0
C      1  0.3966210000000  0.5383960000000  0.5502520000000 1.0
C      1  0.5358990000000  0.4989700000000  0.4735820000000 1.0
C      1  0.4614050000000  0.4290620000000  0.4949880000000 1.0
C      1  0.4190690000000  0.5336850000000  0.5083200000000 1.0
C      1  0.4957370000000  0.4693630000000  0.4128740000000 1.0
C      1  0.4924080000000  0.4267170000000  0.4383290000000 1.0
C      1  0.5507360000000  0.5697650000000  0.4835000000000 1.0
C      1  0.5350300000000  0.4664740000000  0.5957830000000 1.0
C      1  0.5161890000000  0.4222630000000  0.4531820000000 1.0
C      1  0.5331760000000  0.5826860000000  0.5252770000000 1.0
C      1  0.5386500000000  0.4339780000000  0.4409620000000 1.0
C      1  0.4134190000000  0.5340050000000  0.5725000000000 1.0
C      1  0.4853050000000  0.5467100000000  0.4254050000000 1.0
C      1  0.5136950000000  0.5061340000000  0.5602760000000 1.0
C      1  0.4384520000000  0.5469510000000  0.5736570000000 1.0
C      1  0.6093580000000  0.4670090000000  0.5202970000000 1.0
C      1  0.4204660000000  0.4845780000000  0.5750600000000 1.0
C      1  0.4369380000000  0.4417790000000  0.5070420000000 1.0
C      1  0.4784610000000  0.4524430000000  0.4814010000000 1.0
C      1  0.4838040000000  0.5062320000000  0.3825730000000 1.0
C      1  0.4530180000000  0.4558660000000  0.4300540000000 1.0
C      1  0.5115090000000  0.5923080000000  0.5077810000000 1.0
C      1  0.4735400000000  0.5224070000000  0.4704150000000 1.0
C      1  0.5671520000000  0.4716090000000  0.4315690000000 1.0
C      1  0.4380410000000  0.4845080000000  0.4834140000000 1.0
C      1  0.5741830000000  0.5319140000000  0.4696730000000 1.0
C      1  0.5499580000000  0.5418310000000  0.4803510000000 1.0
C      1  0.4800200000000  0.4484710000000  0.4253130000000 1.0
C      1  0.5331440000000  0.5211390000000  0.4924420000000 1.0
C      1  0.5402320000000  0.4608210000000  0.5058040000000 1.0
C      1  0.4591590000000  0.5689710000000  0.5040960000000 1.0
C      1  0.4855910000000  0.4627790000000  0.5935420000000 1.0
C      1  0.5083570000000  0.4237500000000  0.5068400000000 1.0
C      1  0.6304680000000  0.4523130000000  0.5244870000000 1.0
C      1  0.5402230000000  0.5035760000000  0.5505600000000 1.0
C      1  0.6311720000000  0.4900400000000  0.4658370000000 1.0
C      1  0.5759250000000  0.5313320000000  0.5277140000000 1.0
C      1  0.3890360000000  0.4496280000000  0.5161580000000 1.0
C      1  0.5518990000000  0.4778980000000  0.5493750000000 1.0
C      1  0.5109340000000  0.5176940000000  0.5112260000000 1.0
C      1  0.5435110000000  0.4573890000000  0.4259940000000 1.0
C      1  0.4939140000000  0.5401800000000  0.5180570000000 1.0
C      1  0.5560350000000  0.5270360000000  0.5482480000000 1.0
C      1  0.4256810000000  0.4876200000000  0.4572380000000 1.0
C      1  0.5178780000000  0.4479750000000  0.5184970000000 1.0
C      1  0.4997160000000  0.4680640000000  0.5276610000000 1.0
C      1  0.4789500000000  0.5492670000000  0.4958780000000 1.0
C      1  0.6827110000000  0.4810610000000  0.4708570000000 1.0
C      1  0.4422930000000  0.5507760000000  0.4458050000000 1.0
C      1  0.5876360000000  0.4814180000000  0.4455800000000 1.0
C      1  0.4928540000000  0.4947310000000  0.5206860000000 1.0
C      1  0.5273920000000  0.5710020000000  0.4197400000000 1.0
C      1  0.5867000000000  0.5097610000000  0.5102910000000 1.0
C      1  0.4516730000000  0.5755510000000  0.4600040000000 1.0
C      1  0.5493510000000  0.5867980000000  0.4615240000000 1.0
C      1  0.5060560000000  0.5143410000000  0.5848800000000 1.0
C      1  0.5568820000000  0.5761190000000  0.5102420000000 1.0
C      1  0.4776400000000  0.4062520000000  0.5407520000000 1.0
C      1  0.4560110000000  0.3903700000000  0.5460440000000 1.0
C      1  0.6036990000000  0.4945670000000  0.4647080000000 1.0
C      1  0.4431680000000  0.4744470000000  0.5619520000000 1.0
C      1  0.3975220000000  0.5259740000000  0.5249270000000 1.0
C      1  0.4179160000000  0.5510790000000  0.4855080000000 1.0
C      1  0.4376540000000  0.5721260000000  0.4858090000000 1.0
C      1  0.4815290000000  0.4173030000000  0.5148230000000 1.0
C      1  0.4395750000000  0.4699440000000  0.5088650000000 1.0
C      1  0.5529060000000  0.4640250000000  0.5737280000000 1.0
C      1  0.5281460000000  0.5176440000000  0.6026800000000 1.0
C      1  0.6572170000000  0.4856940000000  0.4680010000000 1.0
C      1  0.4533390000000  0.4082580000000  0.4746020000000 1.0
C      1  0.5606750000000  0.4705240000000  0.5233730000000 1.0
C      1  0.4966480000000  0.4117460000000  0.5610860000000 1.0
C      1  0.4627400000000  0.5460430000000  0.5622610000000 1.0
C      1  0.4603080000000  0.5850160000000  0.5262180000000 1.0
C      1  0.4105950000000  0.5119870000000  0.4543180000000 1.0
C      1  0.4931970000000  0.4994070000000  0.4632970000000 1.0
C      1  0.5165130000000  0.4156680000000  0.4807560000000 1.0
C      1  0.4763460000000  0.5337020000000  0.5412490000000 1.0
C      1  0.5320930000000  0.4702070000000  0.3809530000000 1.0
C      1  0.4607900000000  0.5032780000000  0.4258770000000 1.0
C      1  0.5253900000000  0.5234520000000  0.4305360000000 1.0
C      1  0.5190130000000  0.5066640000000  0.4516080000000 1.0
C      1  0.4182800000000  0.5389960000000  0.4587250000000 1.0
C      1  0.4104160000000  0.4335750000000  0.5119090000000 1.0
C      1  0.4980100000000  0.4725580000000  0.4760370000000 1.0
C      1  0.5278770000000  0.4732620000000  0.4830130000000 1.0
C      1  0.5339910000000  0.5709830000000  0.5516680000000 1.0
C      1  0.3808840000000  0.4751150000000  0.5185140000000 1.0
C      1  0.5775730000000  0.5592770000000  0.5209060000000 1.0
C      1  0.5130370000000  0.5471600000000  0.4219340000000 1.0
C      1  0.4635470000000  0.4651680000000  0.5787640000000 1.0
C      1  0.4774450000000  0.5888640000000  0.4648760000000 1.0
C      1  0.4443140000000  0.5204010000000  0.5105180000000 1.0
C      1  0.4113460000000  0.5082410000000  0.5836930000000 1.0
C      1  0.5859820000000  0.4819040000000  0.5174290000000 1.0
C      1  0.5106040000000  0.4258190000000  0.5792250000000 1.0
C      1  0.4434050000000  0.4819410000000  0.4356510000000 1.0
C      1  0.5110140000000  0.4507740000000  0.5928130000000 1.0
C      1  0.4483070000000  0.4814330000000  0.5347070000000 1.0
C      1  0.5237410000000  0.4660070000000  0.4068360000000 1.0
C      1  0.4524060000000  0.5088310000000  0.4857520000000 1.0
C      1  0.4641360000000  0.5072730000000  0.5303860000000 1.0
C      1  0.5370030000000  0.4913710000000  0.6106270000000 1.0
C      1  0.5433330000000  0.5404660000000  0.5931970000000 1.0
C      1  0.5912740000000  0.5135520000000  0.4819760000000 1.0
END
