TITL C-627107-135-605 0.000629961021285442 125000 -236.122263122647 0 0 39 (C1) n - 1
REM
REM in /home/nfs/bkarasulu/CARBON/AIRSS/Generating-Clusters/LCBOP/Only-C1/SD-CG/FIRE-CG
REM
REM
REM
REM
REM
REM ./C.cell (11c1c37f851c82e70ff6c80c92926a4b)
REM AIRSS Version 0.9.1 bugfix July 2018 build 013d7b7c2542+ Fri, 06 Jul 2018 19:26:36 +0100
REM compiler GCC version 9.2.1 20190827 (Red Hat 9.2.1-1)
REM options -cpp -mtune=generic -march=x86-64 -g -O0 -fpre-include=/usr/include/finclude/math-vector-fortran.h
REM seed -399096391 1524572899 -1771988842 -2025329914 890223719 226527904 3565179 1797799363 -1125341974 1438243234 -813242612 568350834 -488605760 -1192822153 14775249 -1119665145 776780337 -1801430953 -305341668 -210742147 -865706080 -477856135 1888210445 1479651168 -481991159 -1803456699 1565712412 1412009253 -1404816384 -746077405 1642692541 -1740170076 -292325293
REM
CELL 1.54180   50.00000   50.00000   50.00000   90.00000   90.00000   90.00000
LATT -1
SFAC C  
C      1  0.4486490000000  0.5143290000000  0.4703420000000 1.0
C      1  0.4592440000000  0.4640330000000  0.5081310000000 1.0
C      1  0.6116200000000  0.4933130000000  0.5093230000000 1.0
C      1  0.5587350000000  0.5399960000000  0.5263330000000 1.0
C      1  0.4678320000000  0.5532370000000  0.4976360000000 1.0
C      1  0.5323300000000  0.5496060000000  0.5311240000000 1.0
C      1  0.5797450000000  0.5581240000000  0.5232610000000 1.0
C      1  0.5168240000000  0.4831340000000  0.5338390000000 1.0
C      1  0.4780450000000  0.4082420000000  0.4836500000000 1.0
C      1  0.5248240000000  0.5589730000000  0.4830990000000 1.0
C      1  0.4495410000000  0.4758740000000  0.4369350000000 1.0
C      1  0.5008580000000  0.4939860000000  0.5551140000000 1.0
C      1  0.4761830000000  0.4843450000000  0.5640500000000 1.0
C      1  0.4335310000000  0.4887380000000  0.5390660000000 1.0
C      1  0.5217060000000  0.4777230000000  0.4615980000000 1.0
C      1  0.5122700000000  0.5493980000000  0.4612940000000 1.0
C      1  0.4865680000000  0.5093250000000  0.4433960000000 1.0
C      1  0.4399390000000  0.4840390000000  0.5121000000000 1.0
C      1  0.4481300000000  0.4494470000000  0.4342970000000 1.0
C      1  0.5084780000000  0.4919370000000  0.4432000000000 1.0
C      1  0.5077880000000  0.4675280000000  0.5116680000000 1.0
C      1  0.5991800000000  0.5751490000000  0.5198600000000 1.0
C      1  0.5216420000000  0.4701260000000  0.4871530000000 1.0
C      1  0.5162960000000  0.5596930000000  0.5100650000000 1.0
C      1  0.5883620000000  0.5021060000000  0.5171310000000 1.0
C      1  0.4497480000000  0.4862570000000  0.5603640000000 1.0
C      1  0.4842450000000  0.4516050000000  0.5104350000000 1.0
C      1  0.4887980000000  0.5348830000000  0.4567580000000 1.0
C      1  0.4656580000000  0.5373780000000  0.4746590000000 1.0
C      1  0.4881810000000  0.5620880000000  0.5129040000000 1.0
C      1  0.5430920000000  0.4935330000000  0.5317470000000 1.0
C      1  0.5200250000000  0.5417990000000  0.5551600000000 1.0
C      1  0.4656150000000  0.4087230000000  0.4600260000000 1.0
C      1  0.4347640000000  0.5018050000000  0.4910910000000 1.0
C      1  0.5634050000000  0.5117830000000  0.5251860000000 1.0
C      1  0.5086170000000  0.5194860000000  0.5644280000000 1.0
C      1  0.4856580000000  0.4244070000000  0.5035330000000 1.0
C      1  0.4596970000000  0.4991690000000  0.4480590000000 1.0
C      1  0.4541810000000  0.4246830000000  0.4419850000000 1.0
END
