TITL C-627112-676-38 -4.51296820422134e-07 125000 -822.26309550821 0 0 135 (C1) n - 1
REM
REM in /home/nfs/bkarasulu/CARBON/AIRSS/Generating-Clusters/LCBOP/Only-C1/SD-CG/FIRE-CG
REM
REM
REM
REM
REM
REM ./C.cell (11c1c37f851c82e70ff6c80c92926a4b)
REM AIRSS Version 0.9.1 bugfix July 2018 build 013d7b7c2542+ Fri, 06 Jul 2018 19:26:36 +0100
REM compiler GCC version 9.2.1 20190827 (Red Hat 9.2.1-1)
REM options -cpp -mtune=generic -march=x86-64 -g -O0 -fpre-include=/usr/include/finclude/math-vector-fortran.h
REM seed -1559115809 1203974913 -752085661 -348564205 730977728 -1223572687 701111630 732747811 -1590138168 -429188034 1208437405 1513707563 672152455 -678343174 894895185 1952033336 1255089694 -704595495 -1386985309 1641329992 -500635856 142731855 -486789423 -483770798 455642581 -1573557386 1952410613 -1172480911 1171374523 353410558 -1930003999 185311234 -1948398677
REM
CELL 1.54180   50.00000   50.00000   50.00000   90.00000   90.00000   90.00000
LATT -1
SFAC C  
C      1  0.4215440000000  0.4952600000000  0.4459150000000 1.0
C      1  0.4987260000000  0.5957730000000  0.4919610000000 1.0
C      1  0.5464490000000  0.5588980000000  0.4617740000000 1.0
C      1  0.4750410000000  0.4015380000000  0.4863370000000 1.0
C      1  0.5741870000000  0.5630940000000  0.4601260000000 1.0
C      1  0.4234920000000  0.5809090000000  0.5202600000000 1.0
C      1  0.4891930000000  0.5506170000000  0.5090200000000 1.0
C      1  0.4622880000000  0.4251670000000  0.4204670000000 1.0
C      1  0.4743370000000  0.4649430000000  0.4992200000000 1.0
C      1  0.5146990000000  0.4101780000000  0.5174920000000 1.0
C      1  0.5539250000000  0.4941710000000  0.6091970000000 1.0
C      1  0.4657350000000  0.4897660000000  0.5121500000000 1.0
C      1  0.5995610000000  0.5325140000000  0.5199750000000 1.0
C      1  0.5191150000000  0.5766690000000  0.4209460000000 1.0
C      1  0.4222800000000  0.5729680000000  0.4924000000000 1.0
C      1  0.5415300000000  0.4919180000000  0.5849480000000 1.0
C      1  0.5506030000000  0.6175490000000  0.5102800000000 1.0
C      1  0.5011120000000  0.5282020000000  0.5208850000000 1.0
C      1  0.5075840000000  0.5720380000000  0.5057270000000 1.0
C      1  0.6015860000000  0.4625470000000  0.5459500000000 1.0
C      1  0.5790890000000  0.4395030000000  0.4534760000000 1.0
C      1  0.4957500000000  0.4070540000000  0.5407130000000 1.0
C      1  0.5665500000000  0.4873050000000  0.5154170000000 1.0
C      1  0.4902100000000  0.6148240000000  0.5370050000000 1.0
C      1  0.4428710000000  0.4036870000000  0.5548080000000 1.0
C      1  0.5108730000000  0.4468290000000  0.4617930000000 1.0
C      1  0.4984430000000  0.5488470000000  0.4536470000000 1.0
C      1  0.4411530000000  0.5430780000000  0.4238790000000 1.0
C      1  0.5484830000000  0.5257490000000  0.5493000000000 1.0
C      1  0.4553960000000  0.4542430000000  0.5503120000000 1.0
C      1  0.5602980000000  0.4308690000000  0.5459040000000 1.0
C      1  0.5888010000000  0.5417970000000  0.4484370000000 1.0
C      1  0.5893640000000  0.4302890000000  0.5095560000000 1.0
C      1  0.4861870000000  0.4497690000000  0.5967220000000 1.0
C      1  0.5257590000000  0.5407220000000  0.4559800000000 1.0
C      1  0.5631510000000  0.4217700000000  0.4993440000000 1.0
C      1  0.5338640000000  0.5704440000000  0.5173700000000 1.0
C      1  0.4686730000000  0.4763420000000  0.5602070000000 1.0
C      1  0.6064600000000  0.4390210000000  0.4624280000000 1.0
C      1  0.4664720000000  0.5829100000000  0.5639680000000 1.0
C      1  0.5873730000000  0.5776370000000  0.4803750000000 1.0
C      1  0.4441260000000  0.5660160000000  0.5644590000000 1.0
C      1  0.5434370000000  0.5153930000000  0.3962120000000 1.0
C      1  0.4911020000000  0.6160260000000  0.5100450000000 1.0
C      1  0.6098850000000  0.5148470000000  0.5405260000000 1.0
C      1  0.5426490000000  0.4884370000000  0.4064200000000 1.0
C      1  0.4060680000000  0.5202560000000  0.5656450000000 1.0
C      1  0.5367900000000  0.4665530000000  0.5726500000000 1.0
C      1  0.4261810000000  0.5243290000000  0.5851020000000 1.0
C      1  0.5326660000000  0.5151230000000  0.4486100000000 1.0
C      1  0.4404860000000  0.5009230000000  0.4668500000000 1.0
C      1  0.4639220000000  0.4592610000000  0.4516760000000 1.0
C      1  0.4670650000000  0.4018030000000  0.5418600000000 1.0
C      1  0.3828980000000  0.5183390000000  0.4669200000000 1.0
C      1  0.5422740000000  0.4755370000000  0.5076610000000 1.0
C      1  0.5292070000000  0.4925130000000  0.4900990000000 1.0
C      1  0.5484290000000  0.5542920000000  0.5404580000000 1.0
C      1  0.4973150000000  0.5954740000000  0.4635810000000 1.0
C      1  0.4298890000000  0.4511900000000  0.5395370000000 1.0
C      1  0.4177090000000  0.5446290000000  0.4947680000000 1.0
C      1  0.5557840000000  0.5383510000000  0.4085720000000 1.0
C      1  0.4745520000000  0.5105160000000  0.4030190000000 1.0
C      1  0.5171480000000  0.4780970000000  0.4144630000000 1.0
C      1  0.5049490000000  0.4052150000000  0.4385010000000 1.0
C      1  0.4371420000000  0.4685580000000  0.4060980000000 1.0
C      1  0.3916910000000  0.4888540000000  0.5116010000000 1.0
C      1  0.5250540000000  0.4634030000000  0.5257790000000 1.0
C      1  0.3801600000000  0.4936130000000  0.5353470000000 1.0
C      1  0.6040380000000  0.5278980000000  0.4679900000000 1.0
C      1  0.4946610000000  0.4925380000000  0.4043670000000 1.0
C      1  0.5717170000000  0.4560510000000  0.4319940000000 1.0
C      1  0.4351590000000  0.5629610000000  0.4417740000000 1.0
C      1  0.5364360000000  0.4938320000000  0.4636980000000 1.0
C      1  0.4512110000000  0.4480930000000  0.4982930000000 1.0
C      1  0.3934060000000  0.5344480000000  0.4855360000000 1.0
C      1  0.4279450000000  0.4562790000000  0.5121860000000 1.0
C      1  0.4227640000000  0.5650850000000  0.5448320000000 1.0
C      1  0.5116810000000  0.4179950000000  0.4635020000000 1.0
C      1  0.3944150000000  0.5005260000000  0.4504680000000 1.0
C      1  0.5156540000000  0.4595080000000  0.4363300000000 1.0
C      1  0.4916050000000  0.5170710000000  0.5446420000000 1.0
C      1  0.5631480000000  0.5061430000000  0.5359470000000 1.0
C      1  0.4114500000000  0.4438080000000  0.5598600000000 1.0
C      1  0.4676780000000  0.5427080000000  0.4918610000000 1.0
C      1  0.4180230000000  0.4822100000000  0.5050690000000 1.0
C      1  0.5525140000000  0.4430100000000  0.5705520000000 1.0
C      1  0.5399660000000  0.5622700000000  0.4105240000000 1.0
C      1  0.5792210000000  0.5775100000000  0.5072410000000 1.0
C      1  0.6099250000000  0.4883910000000  0.5474550000000 1.0
C      1  0.5857160000000  0.5021090000000  0.4208380000000 1.0
C      1  0.5868590000000  0.4930230000000  0.4967050000000 1.0
C      1  0.3756290000000  0.5511950000000  0.5423650000000 1.0
C      1  0.4206840000000  0.4166260000000  0.5654220000000 1.0
C      1  0.4735270000000  0.4957920000000  0.5399760000000 1.0
C      1  0.4490850000000  0.4440990000000  0.4034930000000 1.0
C      1  0.4419620000000  0.5311710000000  0.5006950000000 1.0
C      1  0.5868590000000  0.4401200000000  0.5362240000000 1.0
C      1  0.5386240000000  0.5715190000000  0.5637160000000 1.0
C      1  0.4297210000000  0.5771780000000  0.4647420000000 1.0
C      1  0.4860700000000  0.4093600000000  0.4189480000000 1.0
C      1  0.5325030000000  0.5153710000000  0.5704510000000 1.0
C      1  0.5610800000000  0.4263260000000  0.4713930000000 1.0
C      1  0.4983560000000  0.4274350000000  0.5883340000000 1.0
C      1  0.3989330000000  0.4675150000000  0.5706540000000 1.0
C      1  0.4908750000000  0.5956200000000  0.5578540000000 1.0
C      1  0.4423220000000  0.5460420000000  0.5845670000000 1.0
C      1  0.5006430000000  0.5758930000000  0.4431840000000 1.0
C      1  0.4014350000000  0.5449220000000  0.5498810000000 1.0
C      1  0.4971230000000  0.4590110000000  0.4837930000000 1.0
C      1  0.4673410000000  0.5081040000000  0.4579390000000 1.0
C      1  0.5156220000000  0.5129450000000  0.5028310000000 1.0
C      1  0.4402620000000  0.5014370000000  0.4976150000000 1.0
C      1  0.4760760000000  0.4744800000000  0.5878100000000 1.0
C      1  0.4780950000000  0.4981780000000  0.6026740000000 1.0
C      1  0.4575880000000  0.4321260000000  0.4479840000000 1.0
C      1  0.5157900000000  0.5857330000000  0.5673670000000 1.0
C      1  0.5794120000000  0.5300000000000  0.4242370000000 1.0
C      1  0.4772110000000  0.5338300000000  0.4655300000000 1.0
C      1  0.5047290000000  0.5213390000000  0.5696030000000 1.0
C      1  0.5437590000000  0.4186850000000  0.5220720000000 1.0
C      1  0.4765720000000  0.4830610000000  0.4491980000000 1.0
C      1  0.4326840000000  0.4936600000000  0.4193960000000 1.0
C      1  0.5031440000000  0.4073280000000  0.4899840000000 1.0
C      1  0.6092700000000  0.4345550000000  0.4902630000000 1.0
C      1  0.5822790000000  0.5550840000000  0.5242790000000 1.0
C      1  0.5990660000000  0.5186010000000  0.4941100000000 1.0
C      1  0.5540400000000  0.5905910000000  0.5109060000000 1.0
C      1  0.3936900000000  0.4943750000000  0.5603200000000 1.0
C      1  0.6277280000000  0.4423200000000  0.4457160000000 1.0
C      1  0.4903390000000  0.5204420000000  0.5937190000000 1.0
C      1  0.4485200000000  0.5173180000000  0.4124880000000 1.0
C      1  0.5054600000000  0.4131090000000  0.5667880000000 1.0
C      1  0.5676380000000  0.4801660000000  0.4181900000000 1.0
C      1  0.4578640000000  0.4122300000000  0.4681560000000 1.0
C      1  0.5184160000000  0.4666800000000  0.5513440000000 1.0
END
