TITL C-627107-135-1027 -9.38548201575595e-07 125000 -815.167421545037 0 0 132 (C1) n - 1
REM
REM in /home/nfs/bkarasulu/CARBON/AIRSS/Generating-Clusters/LCBOP/Only-C1/SD-CG/FIRE-CG
REM
REM
REM
REM
REM
REM ./C.cell (11c1c37f851c82e70ff6c80c92926a4b)
REM AIRSS Version 0.9.1 bugfix July 2018 build 013d7b7c2542+ Fri, 06 Jul 2018 19:26:36 +0100
REM compiler GCC version 9.2.1 20190827 (Red Hat 9.2.1-1)
REM options -cpp -mtune=generic -march=x86-64 -g -O0 -fpre-include=/usr/include/finclude/math-vector-fortran.h
REM seed -1290298777 852528400 459215473 873279410 -318436659 527073287 732023343 1365139998 2141307177 510030718 715458752 1362456399 1494904304 -321632269 -819737469 -775195905 -144564526 1368289812 -506044667 78596988 -1499016800 1731832164 -1891957990 300027069 -986876232 736922847 -1156965514 -1759690546 -1300206354 -1520944967 -852631529 -236236611 302310416
REM
CELL 1.54180   50.00000   50.00000   50.00000   90.00000   90.00000   90.00000
LATT -1
SFAC C  
C      1  0.4337050000000  0.5498350000000  0.4923600000000 1.0
C      1  0.4984390000000  0.5905550000000  0.5830870000000 1.0
C      1  0.4895070000000  0.6067280000000  0.5344200000000 1.0
C      1  0.4878540000000  0.5496860000000  0.6145900000000 1.0
C      1  0.4783910000000  0.4297500000000  0.5159450000000 1.0
C      1  0.5699970000000  0.5646280000000  0.4345850000000 1.0
C      1  0.5545150000000  0.4959680000000  0.5159230000000 1.0
C      1  0.3923780000000  0.4422760000000  0.4246400000000 1.0
C      1  0.4303050000000  0.5000340000000  0.5206440000000 1.0
C      1  0.4452120000000  0.4995520000000  0.5953230000000 1.0
C      1  0.5839950000000  0.5158150000000  0.5454250000000 1.0
C      1  0.4858490000000  0.4794890000000  0.3919150000000 1.0
C      1  0.4365920000000  0.5451670000000  0.5663090000000 1.0
C      1  0.5200930000000  0.5397840000000  0.5188170000000 1.0
C      1  0.6064230000000  0.5691140000000  0.5018980000000 1.0
C      1  0.4619630000000  0.5512010000000  0.4948790000000 1.0
C      1  0.4244890000000  0.4853120000000  0.5434870000000 1.0
C      1  0.4871530000000  0.4710870000000  0.4533380000000 1.0
C      1  0.4220750000000  0.4196860000000  0.4569060000000 1.0
C      1  0.5535870000000  0.5603000000000  0.5716680000000 1.0
C      1  0.5257820000000  0.5042320000000  0.3910330000000 1.0
C      1  0.4184160000000  0.4592430000000  0.5452390000000 1.0
C      1  0.5139020000000  0.5508070000000  0.4113470000000 1.0
C      1  0.4424450000000  0.4937620000000  0.3977270000000 1.0
C      1  0.5150800000000  0.4081070000000  0.4913500000000 1.0
C      1  0.5334350000000  0.4630640000000  0.4698400000000 1.0
C      1  0.5240730000000  0.5918180000000  0.4840110000000 1.0
C      1  0.5142040000000  0.4791470000000  0.3965710000000 1.0
C      1  0.4234760000000  0.4865680000000  0.4646270000000 1.0
C      1  0.5418310000000  0.5447180000000  0.4801070000000 1.0
C      1  0.5604360000000  0.5275040000000  0.4691730000000 1.0
C      1  0.5714460000000  0.5855540000000  0.5333440000000 1.0
C      1  0.4985090000000  0.6026790000000  0.5593120000000 1.0
C      1  0.5681370000000  0.4687580000000  0.4375600000000 1.0
C      1  0.3786290000000  0.4704780000000  0.5071060000000 1.0
C      1  0.5158720000000  0.5652250000000  0.4355380000000 1.0
C      1  0.5370670000000  0.4377620000000  0.4558880000000 1.0
C      1  0.4364760000000  0.5831610000000  0.4515710000000 1.0
C      1  0.5171410000000  0.4821400000000  0.6063240000000 1.0
C      1  0.4712290000000  0.4995840000000  0.6073480000000 1.0
C      1  0.4312210000000  0.4395050000000  0.5293920000000 1.0
C      1  0.5460750000000  0.4846000000000  0.4566250000000 1.0
C      1  0.4715500000000  0.4402980000000  0.4901710000000 1.0
C      1  0.5437010000000  0.5719820000000  0.4439940000000 1.0
C      1  0.4336080000000  0.4737640000000  0.5934370000000 1.0
C      1  0.5717140000000  0.5141980000000  0.5719410000000 1.0
C      1  0.4497240000000  0.5975700000000  0.4702540000000 1.0
C      1  0.4225660000000  0.4153420000000  0.4850190000000 1.0
C      1  0.4721720000000  0.5984870000000  0.4880790000000 1.0
C      1  0.5911990000000  0.5484140000000  0.4424380000000 1.0
C      1  0.5958100000000  0.4689400000000  0.5483780000000 1.0
C      1  0.5612650000000  0.4457850000000  0.5246280000000 1.0
C      1  0.5464490000000  0.4473510000000  0.4290470000000 1.0
C      1  0.4627260000000  0.4172650000000  0.4253480000000 1.0
C      1  0.5984550000000  0.4987390000000  0.4744630000000 1.0
C      1  0.5738100000000  0.4402310000000  0.5808530000000 1.0
C      1  0.6049280000000  0.4897210000000  0.5042180000000 1.0
C      1  0.4766950000000  0.4395060000000  0.4162800000000 1.0
C      1  0.5793840000000  0.4663870000000  0.5720900000000 1.0
C      1  0.4428730000000  0.4505070000000  0.5828120000000 1.0
C      1  0.4282670000000  0.5603130000000  0.4397180000000 1.0
C      1  0.4418790000000  0.4095460000000  0.4400370000000 1.0
C      1  0.4758090000000  0.5101600000000  0.5026270000000 1.0
C      1  0.4417180000000  0.4666400000000  0.3919660000000 1.0
C      1  0.4965810000000  0.4535190000000  0.4319890000000 1.0
C      1  0.5613300000000  0.5126060000000  0.4226300000000 1.0
C      1  0.5418920000000  0.5724920000000  0.4732160000000 1.0
C      1  0.5036390000000  0.4725620000000  0.5093120000000 1.0
C      1  0.5725840000000  0.4885680000000  0.4153800000000 1.0
C      1  0.4656010000000  0.4470160000000  0.5653670000000 1.0
C      1  0.5042020000000  0.4165920000000  0.5161750000000 1.0
C      1  0.5463550000000  0.5435680000000  0.5284290000000 1.0
C      1  0.4808330000000  0.5240790000000  0.6173950000000 1.0
C      1  0.6048340000000  0.5466710000000  0.4877470000000 1.0
C      1  0.3991710000000  0.4558880000000  0.4938660000000 1.0
C      1  0.4943580000000  0.5676790000000  0.4565790000000 1.0
C      1  0.5906320000000  0.5293230000000  0.4678090000000 1.0
C      1  0.4169440000000  0.4350210000000  0.5046220000000 1.0
C      1  0.4696700000000  0.5019230000000  0.4035750000000 1.0
C      1  0.4056580000000  0.4640270000000  0.4665320000000 1.0
C      1  0.4151320000000  0.5290960000000  0.4870800000000 1.0
C      1  0.5212870000000  0.5303690000000  0.3956530000000 1.0
C      1  0.4076300000000  0.5126930000000  0.5086000000000 1.0
C      1  0.4368180000000  0.5229040000000  0.5814740000000 1.0
C      1  0.4063200000000  0.4422140000000  0.4480760000000 1.0
C      1  0.5500510000000  0.5110530000000  0.4489820000000 1.0
C      1  0.4523780000000  0.4949360000000  0.5029370000000 1.0
C      1  0.6026790000000  0.4593630000000  0.5025760000000 1.0
C      1  0.5897550000000  0.4501780000000  0.5265810000000 1.0
C      1  0.5267160000000  0.4648850000000  0.4963440000000 1.0
C      1  0.4896560000000  0.5004560000000  0.4526240000000 1.0
C      1  0.5095620000000  0.4741320000000  0.5610340000000 1.0
C      1  0.6012250000000  0.4949840000000  0.5346810000000 1.0
C      1  0.5487090000000  0.4685800000000  0.5131230000000 1.0
C      1  0.5602680000000  0.4220830000000  0.5662320000000 1.0
C      1  0.3835390000000  0.4982260000000  0.5100710000000 1.0
C      1  0.4933400000000  0.5194730000000  0.4767230000000 1.0
C      1  0.5547590000000  0.5659990000000  0.5440700000000 1.0
C      1  0.5507650000000  0.5332980000000  0.5787720000000 1.0
C      1  0.6001260000000  0.4512190000000  0.4754790000000 1.0
C      1  0.5474440000000  0.4263740000000  0.5411230000000 1.0
C      1  0.4483460000000  0.5837690000000  0.5311170000000 1.0
C      1  0.4740940000000  0.5355260000000  0.5169510000000 1.0
C      1  0.4177690000000  0.5152530000000  0.4616380000000 1.0
C      1  0.4938290000000  0.5725580000000  0.6022240000000 1.0
C      1  0.4597550000000  0.4362060000000  0.5376040000000 1.0
C      1  0.5118960000000  0.3998340000000  0.5601490000000 1.0
C      1  0.4887140000000  0.4773160000000  0.6022650000000 1.0
C      1  0.5189990000000  0.5320470000000  0.4912380000000 1.0
C      1  0.4683660000000  0.4554020000000  0.3941740000000 1.0
C      1  0.3557830000000  0.4586370000000  0.5161050000000 1.0
C      1  0.4477270000000  0.4805610000000  0.4789280000000 1.0
C      1  0.5922380000000  0.4728500000000  0.4575920000000 1.0
C      1  0.5609960000000  0.4874300000000  0.5776200000000 1.0
C      1  0.4790460000000  0.5116190000000  0.4283700000000 1.0
C      1  0.5932110000000  0.5858780000000  0.5178640000000 1.0
C      1  0.4966080000000  0.5384440000000  0.5344240000000 1.0
C      1  0.5217350000000  0.4591550000000  0.4165950000000 1.0
C      1  0.4690170000000  0.5978590000000  0.5170700000000 1.0
C      1  0.5628970000000  0.5205030000000  0.5267520000000 1.0
C      1  0.5211920000000  0.4147230000000  0.5388950000000 1.0
C      1  0.5029340000000  0.4797480000000  0.5348660000000 1.0
C      1  0.5249410000000  0.5198570000000  0.5757090000000 1.0
C      1  0.5280810000000  0.4147920000000  0.4688430000000 1.0
C      1  0.4396560000000  0.5660130000000  0.5495210000000 1.0
C      1  0.4678530000000  0.4616620000000  0.4722390000000 1.0
C      1  0.5298920000000  0.4890450000000  0.5795730000000 1.0
C      1  0.4789790000000  0.5470000000000  0.4702440000000 1.0
C      1  0.4969800000000  0.5902610000000  0.4755950000000 1.0
C      1  0.4877540000000  0.4622600000000  0.5762210000000 1.0
C      1  0.4220100000000  0.5339180000000  0.4406760000000 1.0
C      1  0.5025500000000  0.5302970000000  0.5610910000000 1.0
END
