TITL C-627111-6168-878 -18662.0549543538 125000 -1152.91688860254 0 0 190 (C1) n - 1
REM
REM in /home/nfs/bkarasulu/CARBON/AIRSS/Generating-Clusters/LCBOP/Only-C1/SD-CG/FIRE-CG
REM
REM
REM
REM
REM
REM ./C.cell (11c1c37f851c82e70ff6c80c92926a4b)
REM AIRSS Version 0.9.1 bugfix July 2018 build 013d7b7c2542+ Fri, 06 Jul 2018 19:26:36 +0100
REM compiler GCC version 9.2.1 20190827 (Red Hat 9.2.1-1)
REM options -cpp -mtune=generic -march=x86-64 -g -O0 -fpre-include=/usr/include/finclude/math-vector-fortran.h
REM seed 735965317 -767497635 459834886 -1487390964 990867903 -917478939 186637042 630677879 1672081038 -1000985160 -1711183087 -125200892 1019319555 -1519848760 1981201736 -671712232 -388225649 -835559362 1841876660 1192793826 660933412 198501557 -1245176027 -1737432896 -2078276065 994194278 -1101279277 -1044047233 -30499533 -203350842 -115981694 281170938 549128196
REM
CELL 1.54180   50.00000   50.00000   50.00000   90.00000   90.00000   90.00000
LATT -1
SFAC C  
C      1  0.5162380000000  0.4955150000000  0.5019040000000 1.0
C      1  0.4708530000000  0.3941040000000  0.4921100000000 1.0
C      1  0.3816980000000  0.4464580000000  0.4686430000000 1.0
C      1  0.5614250000000  0.5949390000000  0.4697330000000 1.0
C      1  0.5424440000000  0.4375320000000  0.5663880000000 1.0
C      1  0.4302190000000  0.5383450000000  0.4441360000000 1.0
C      1  0.4706580000000  0.4922800000000  0.6026670000000 1.0
C      1  0.4621950000000  0.4929130000000  0.5508360000000 1.0
C      1  0.6469250000000  0.5323270000000  0.5650540000000 1.0
C      1  0.5648280000000  0.5602720000000  0.4066090000000 1.0
C      1  0.5166610000000  0.5740680000000  0.4745300000000 1.0
C      1  0.4743280000000  0.5369460000000  0.5090510000000 1.0
C      1  0.4990890000000  0.5228060000000  0.4730180000000 1.0
C      1  0.4186700000000  0.5056560000000  0.5625700000000 1.0
C      1  0.4556360000000  0.5833840000000  0.4300830000000 1.0
C      1  0.4753920000000  0.6012380000000  0.4415300000000 1.0
C      1  0.4115930000000  0.5601520000000  0.5864210000000 1.0
C      1  0.4740740000000  0.4431060000000  0.4673320000000 1.0
C      1  0.4312480000000  0.4600250000000  0.5301230000000 1.0
C      1  0.6177430000000  0.4629730000000  0.4732900000000 1.0
C      1  0.5126910000000  0.4473960000000  0.5288650000000 1.0
C      1  0.5259770000000  0.5103560000000  0.4248740000000 1.0
C      1  0.4097610000000  0.4455200000000  0.4302720000000 1.0
C      1  0.4773870000000  0.4709340000000  0.5617150000000 1.0
C      1  0.4727440000000  0.5514780000000  0.5525970000000 1.0
C      1  0.5691090000000  0.5679640000000  0.4627160000000 1.0
C      1  0.4505950000000  0.4183720000000  0.5499140000000 1.0
C      1  0.5672980000000  0.5084990000000  0.4818940000000 1.0
C      1  0.5967330000000  0.4452750000000  0.5180570000000 1.0
C      1  0.6122140000000  0.5378600000000  0.5168830000000 1.0
C      1  0.3659020000000  0.5052800000000  0.5034400000000 1.0
C      1  0.5890060000000  0.4211890000000  0.4018100000000 1.0
C      1  0.4366920000000  0.4942650000000  0.4628900000000 1.0
C      1  0.4674910000000  0.4356310000000  0.5350290000000 1.0
C      1  0.6303550000000  0.5119770000000  0.5553470000000 1.0
C      1  0.4660270000000  0.4137230000000  0.4330540000000 1.0
C      1  0.4831730000000  0.5450060000000  0.4792580000000 1.0
C      1  0.4376670000000  0.4098140000000  0.4411630000000 1.0
C      1  0.4833030000000  0.5011560000000  0.4664290000000 1.0
C      1  0.4976680000000  0.4467730000000  0.5920980000000 1.0
C      1  0.5304320000000  0.4097750000000  0.5634250000000 1.0
C      1  0.4551620000000  0.4225270000000  0.5778750000000 1.0
C      1  0.5274800000000  0.5652390000000  0.5236820000000 1.0
C      1  0.5391840000000  0.5459340000000  0.5407380000000 1.0
C      1  0.4586640000000  0.4987840000000  0.3863250000000 1.0
C      1  0.4458120000000  0.5115500000000  0.4377640000000 1.0
C      1  0.4753290000000  0.5037170000000  0.4391750000000 1.0
C      1  0.5391910000000  0.3946750000000  0.5402570000000 1.0
C      1  0.5311680000000  0.5997520000000  0.4286940000000 1.0
C      1  0.4772950000000  0.5631530000000  0.5255780000000 1.0
C      1  0.4026000000000  0.5328310000000  0.4507460000000 1.0
C      1  0.4330510000000  0.4149230000000  0.4701150000000 1.0
C      1  0.4446170000000  0.4562130000000  0.4034720000000 1.0
C      1  0.5295480000000  0.4062340000000  0.4734500000000 1.0
C      1  0.4742900000000  0.5194540000000  0.3734660000000 1.0
C      1  0.4792940000000  0.6036270000000  0.4952960000000 1.0
C      1  0.4333410000000  0.5435290000000  0.5961580000000 1.0
C      1  0.4685390000000  0.3897100000000  0.5205610000000 1.0
C      1  0.5755860000000  0.4260750000000  0.4236080000000 1.0
C      1  0.5043200000000  0.6049030000000  0.5096930000000 1.0
C      1  0.6207180000000  0.4885020000000  0.5144240000000 1.0
C      1  0.5911530000000  0.5573920000000  0.5971620000000 1.0
C      1  0.3688510000000  0.4795330000000  0.5099340000000 1.0
C      1  0.4613300000000  0.5547870000000  0.5973170000000 1.0
C      1  0.5862450000000  0.5037270000000  0.5984880000000 1.0
C      1  0.5495790000000  0.5505920000000  0.4504450000000 1.0
C      1  0.4493690000000  0.4809370000000  0.5285810000000 1.0
C      1  0.5652260000000  0.5015110000000  0.4551460000000 1.0
C      1  0.5884100000000  0.4931180000000  0.4401660000000 1.0
C      1  0.4293120000000  0.5152920000000  0.5893050000000 1.0
C      1  0.5349470000000  0.4185930000000  0.4487060000000 1.0
C      1  0.5492450000000  0.5273190000000  0.4947780000000 1.0
C      1  0.4356110000000  0.5886950000000  0.4961780000000 1.0
C      1  0.5412800000000  0.4928860000000  0.4437400000000 1.0
C      1  0.6255500000000  0.4890160000000  0.5717270000000 1.0
C      1  0.4008030000000  0.5465460000000  0.5432310000000 1.0
C      1  0.6039490000000  0.5595310000000  0.5330980000000 1.0
C      1  0.4373270000000  0.5056190000000  0.4906820000000 1.0
C      1  0.5433310000000  0.6106820000000  0.4523240000000 1.0
C      1  0.5796720000000  0.6078050000000  0.6063310000000 1.0
C      1  0.5732520000000  0.5985910000000  0.5190760000000 1.0
C      1  0.4605520000000  0.5841220000000  0.5098050000000 1.0
C      1  0.6425880000000  0.4572240000000  0.4631930000000 1.0
C      1  0.4869390000000  0.4269650000000  0.3845440000000 1.0
C      1  0.5664470000000  0.4960640000000  0.6167480000000 1.0
C      1  0.5398690000000  0.5199880000000  0.3995290000000 1.0
C      1  0.4927370000000  0.4569790000000  0.4858550000000 1.0
C      1  0.6135420000000  0.4638670000000  0.5023240000000 1.0
C      1  0.5865600000000  0.5831650000000  0.6013220000000 1.0
C      1  0.5440450000000  0.4503770000000  0.5371400000000 1.0
C      1  0.5284790000000  0.6164030000000  0.4981570000000 1.0
C      1  0.4794140000000  0.4687120000000  0.5902240000000 1.0
C      1  0.4882360000000  0.4527120000000  0.5429730000000 1.0
C      1  0.4348230000000  0.4391120000000  0.5895600000000 1.0
C      1  0.4551980000000  0.4870410000000  0.5028020000000 1.0
C      1  0.4790200000000  0.5168310000000  0.5607000000000 1.0
C      1  0.4044520000000  0.4635610000000  0.5373510000000 1.0
C      1  0.5934200000000  0.5566910000000  0.4716960000000 1.0
C      1  0.3895140000000  0.5406800000000  0.4743670000000 1.0
C      1  0.4170410000000  0.4589880000000  0.5835390000000 1.0
C      1  0.4347110000000  0.4611390000000  0.4300110000000 1.0
C      1  0.4436650000000  0.5138670000000  0.4065880000000 1.0
C      1  0.3828360000000  0.4848010000000  0.4377340000000 1.0
C      1  0.5485050000000  0.5821510000000  0.4125070000000 1.0
C      1  0.5176120000000  0.4104430000000  0.4982780000000 1.0
C      1  0.4979270000000  0.4936660000000  0.4238750000000 1.0
C      1  0.4455360000000  0.5893800000000  0.5676250000000 1.0
C      1  0.5462650000000  0.4888970000000  0.6323430000000 1.0
C      1  0.5040480000000  0.5803940000000  0.5270220000000 1.0
C      1  0.4927210000000  0.3920840000000  0.5369650000000 1.0
C      1  0.4468150000000  0.4662990000000  0.4555370000000 1.0
C      1  0.4202500000000  0.4024590000000  0.5152650000000 1.0
C      1  0.5525180000000  0.5257180000000  0.5248290000000 1.0
C      1  0.5677950000000  0.4873020000000  0.5009750000000 1.0
C      1  0.5890180000000  0.4579030000000  0.5825540000000 1.0
C      1  0.4489570000000  0.5434960000000  0.4029930000000 1.0
C      1  0.5913830000000  0.5309700000000  0.5951680000000 1.0
C      1  0.3742230000000  0.5282070000000  0.4925470000000 1.0
C      1  0.4825490000000  0.5152490000000  0.5907230000000 1.0
C      1  0.5236790000000  0.5186930000000  0.4858130000000 1.0
C      1  0.6210140000000  0.5130130000000  0.5282940000000 1.0
C      1  0.6002960000000  0.4837150000000  0.5838400000000 1.0
C      1  0.4879090000000  0.5414920000000  0.6004130000000 1.0
C      1  0.5559130000000  0.6039920000000  0.4978320000000 1.0
C      1  0.5219000000000  0.4575200000000  0.5794150000000 1.0
C      1  0.5315610000000  0.5658350000000  0.4956440000000 1.0
C      1  0.4205040000000  0.5250490000000  0.5370390000000 1.0
C      1  0.5265550000000  0.4805960000000  0.6472480000000 1.0
C      1  0.4421380000000  0.5588160000000  0.4263710000000 1.0
C      1  0.3934400000000  0.5927870000000  0.5245750000000 1.0
C      1  0.5715620000000  0.4521100000000  0.4645670000000 1.0
C      1  0.5080880000000  0.4172710000000  0.4015300000000 1.0
C      1  0.3883160000000  0.4576720000000  0.4437640000000 1.0
C      1  0.5049110000000  0.5073760000000  0.5483560000000 1.0
C      1  0.4640860000000  0.5687300000000  0.5721370000000 1.0
C      1  0.6083310000000  0.5428640000000  0.4892680000000 1.0
C      1  0.5005730000000  0.4049140000000  0.5644800000000 1.0
C      1  0.4981920000000  0.5504360000000  0.4030400000000 1.0
C      1  0.5274850000000  0.6269420000000  0.4707820000000 1.0
C      1  0.5668640000000  0.5305590000000  0.4049500000000 1.0
C      1  0.4389710000000  0.6051280000000  0.4741460000000 1.0
C      1  0.5128330000000  0.4202480000000  0.4300620000000 1.0
C      1  0.4675580000000  0.6095080000000  0.4683970000000 1.0
C      1  0.3935200000000  0.4395980000000  0.4936160000000 1.0
C      1  0.5058910000000  0.4360370000000  0.5035580000000 1.0
C      1  0.4382060000000  0.4278870000000  0.3967590000000 1.0
C      1  0.5262580000000  0.5378940000000  0.4393140000000 1.0
C      1  0.5025240000000  0.4659100000000  0.4354770000000 1.0
C      1  0.5311000000000  0.5477780000000  0.5686130000000 1.0
C      1  0.4983050000000  0.5099000000000  0.5205250000000 1.0
C      1  0.4605860000000  0.4147480000000  0.3846080000000 1.0
C      1  0.4184230000000  0.5818140000000  0.5669550000000 1.0
C      1  0.5599720000000  0.4975980000000  0.5274470000000 1.0
C      1  0.4765080000000  0.4821720000000  0.4869930000000 1.0
C      1  0.3868700000000  0.4584150000000  0.5155480000000 1.0
C      1  0.5231650000000  0.4871710000000  0.5605490000000 1.0
C      1  0.4795060000000  0.3734260000000  0.4761950000000 1.0
C      1  0.4057860000000  0.5753460000000  0.5413160000000 1.0
C      1  0.4741650000000  0.5443770000000  0.3890960000000 1.0
C      1  0.4135470000000  0.4180620000000  0.4920270000000 1.0
C      1  0.5134860000000  0.5506690000000  0.5896560000000 1.0
C      1  0.6463160000000  0.4716020000000  0.5762430000000 1.0
C      1  0.5672910000000  0.4446060000000  0.5165770000000 1.0
C      1  0.4605650000000  0.4183290000000  0.4798870000000 1.0
C      1  0.5954660000000  0.4678740000000  0.4553310000000 1.0
C      1  0.4848420000000  0.4551690000000  0.3787130000000 1.0
C      1  0.4880820000000  0.4361380000000  0.4406200000000 1.0
C      1  0.4205610000000  0.4200860000000  0.4202140000000 1.0
C      1  0.5250100000000  0.4722030000000  0.4540110000000 1.0
C      1  0.4847770000000  0.4214570000000  0.5831320000000 1.0
C      1  0.5867470000000  0.5114330000000  0.4165760000000 1.0
C      1  0.5180570000000  0.3928840000000  0.5208710000000 1.0
C      1  0.3911400000000  0.5449680000000  0.5714130000000 1.0
C      1  0.3899830000000  0.5107010000000  0.4376660000000 1.0
C      1  0.4428050000000  0.3977690000000  0.5319650000000 1.0
C      1  0.6648860000000  0.5498960000000  0.5719770000000 1.0
C      1  0.4389920000000  0.5267580000000  0.5114420000000 1.0
C      1  0.5212310000000  0.5394830000000  0.3888770000000 1.0
C      1  0.5899270000000  0.5823050000000  0.5321040000000 1.0
C      1  0.5021590000000  0.5534110000000  0.4327840000000 1.0
C      1  0.4429410000000  0.4968610000000  0.6064820000000 1.0
C      1  0.5602150000000  0.4324990000000  0.4462790000000 1.0
C      1  0.5691920000000  0.4403010000000  0.5790540000000 1.0
C      1  0.4076840000000  0.4773710000000  0.5629860000000 1.0
C      1  0.5453300000000  0.4804460000000  0.5439180000000 1.0
C      1  0.5185480000000  0.4725910000000  0.4816960000000 1.0
C      1  0.5637910000000  0.4598220000000  0.4916690000000 1.0
C      1  0.4942730000000  0.5639280000000  0.4599110000000 1.0
C      1  0.4628140000000  0.4710790000000  0.3877480000000 1.0
C      1  0.5018930000000  0.6032650000000  0.4290260000000 1.0
END
