TITL C-627107-135-2035 1.85132144439025 125000 -328.09778740947 0 0 55 (C1) n - 1
REM
REM in /home/nfs/bkarasulu/CARBON/AIRSS/Generating-Clusters/LCBOP/Only-C1/SD-CG/FIRE-CG
REM
REM
REM
REM
REM
REM ./C.cell (11c1c37f851c82e70ff6c80c92926a4b)
REM AIRSS Version 0.9.1 bugfix July 2018 build 013d7b7c2542+ Fri, 06 Jul 2018 19:26:36 +0100
REM compiler GCC version 9.2.1 20190827 (Red Hat 9.2.1-1)
REM options -cpp -mtune=generic -march=x86-64 -g -O0 -fpre-include=/usr/include/finclude/math-vector-fortran.h
REM seed -1137115980 2023951790 1336395862 1823155660 -834281601 -170014936 -385454813 -283955096 1340564768 -736428238 1378332379 -981409692 166872691 14116103 -1152342797 -1349011957 1700169817 -1086494818 1998444026 -663850495 -715102461 -898328096 1075323273 -1469888378 -1708964743 -1074574027 455280341 1284181409 -1240239295 -2098516272 -1211545657 -1671489095 -795392719
REM
CELL 1.54180   50.00000   50.00000   50.00000   90.00000   90.00000   90.00000
LATT -1
SFAC C  
C      1  0.5170030000000  0.5171340000000  0.4450250000000 1.0
C      1  0.3829890000000  0.5051800000000  0.6243130000000 1.0
C      1  0.6449560000000  0.4830670000000  0.4202790000000 1.0
C      1  0.4160610000000  0.4773510000000  0.5056630000000 1.0
C      1  0.4658290000000  0.5084850000000  0.4371060000000 1.0
C      1  0.4420670000000  0.4990790000000  0.4442380000000 1.0
C      1  0.5695640000000  0.4484900000000  0.5088560000000 1.0
C      1  0.3902280000000  0.4973030000000  0.6005390000000 1.0
C      1  0.4133910000000  0.4405560000000  0.4745080000000 1.0
C      1  0.3961060000000  0.4301930000000  0.4553530000000 1.0
C      1  0.4611790000000  0.4406340000000  0.5293880000000 1.0
C      1  0.5725180000000  0.6086160000000  0.4833300000000 1.0
C      1  0.5515870000000  0.6054420000000  0.5033320000000 1.0
C      1  0.5365320000000  0.5818990000000  0.5036150000000 1.0
C      1  0.4840610000000  0.4812650000000  0.5717830000000 1.0
C      1  0.4463540000000  0.4252770000000  0.5113040000000 1.0
C      1  0.5655370000000  0.5635170000000  0.4608720000000 1.0
C      1  0.6875180000000  0.4838750000000  0.3894230000000 1.0
C      1  0.3632300000000  0.4116840000000  0.4181410000000 1.0
C      1  0.4710610000000  0.4861840000000  0.5468490000000 1.0
C      1  0.3984560000000  0.4894430000000  0.5766000000000 1.0
C      1  0.4094330000000  0.4821130000000  0.5536340000000 1.0
C      1  0.4921230000000  0.5260640000000  0.5172370000000 1.0
C      1  0.5033700000000  0.4607930000000  0.5716880000000 1.0
C      1  0.4256640000000  0.4755620000000  0.5319100000000 1.0
C      1  0.5771810000000  0.4636160000000  0.4884550000000 1.0
C      1  0.5630410000000  0.6500190000000  0.5207800000000 1.0
C      1  0.5482180000000  0.6271860000000  0.5213060000000 1.0
C      1  0.4292380000000  0.4242210000000  0.4909210000000 1.0
C      1  0.4241730000000  0.4856440000000  0.4585020000000 1.0
C      1  0.4525410000000  0.4671280000000  0.5363670000000 1.0
C      1  0.6664130000000  0.4834740000000  0.4047230000000 1.0
C      1  0.6020550000000  0.4822690000000  0.4513680000000 1.0
C      1  0.6235030000000  0.4826600000000  0.4358310000000 1.0
C      1  0.5550830000000  0.4379260000000  0.5284220000000 1.0
C      1  0.5302420000000  0.5564870000000  0.4933380000000 1.0
C      1  0.3470580000000  0.4026070000000  0.3998170000000 1.0
C      1  0.4786270000000  0.5082910000000  0.5315310000000 1.0
C      1  0.5793660000000  0.4821550000000  0.4676520000000 1.0
C      1  0.5826050000000  0.6529300000000  0.5020410000000 1.0
C      1  0.4670890000000  0.5082770000000  0.6155510000000 1.0
C      1  0.4856900000000  0.4312250000000  0.5393090000000 1.0
C      1  0.4559570000000  0.5208210000000  0.6355090000000 1.0
C      1  0.5870710000000  0.6329560000000  0.4840850000000 1.0
C      1  0.3796720000000  0.4209120000000  0.4367700000000 1.0
C      1  0.5588760000000  0.5006180000000  0.4631550000000 1.0
C      1  0.5763600000000  0.5875620000000  0.4653350000000 1.0
C      1  0.4772210000000  0.4953010000000  0.5947920000000 1.0
C      1  0.5341500000000  0.4343520000000  0.5443490000000 1.0
C      1  0.5454260000000  0.5467380000000  0.4710890000000 1.0
C      1  0.4917780000000  0.5139630000000  0.4375190000000 1.0
C      1  0.5096880000000  0.5413970000000  0.5046470000000 1.0
C      1  0.5404710000000  0.5213210000000  0.4596040000000 1.0
C      1  0.5084140000000  0.4401320000000  0.5532340000000 1.0
C      1  0.4159790000000  0.4686050000000  0.4790130000000 1.0
END
