TITL C-627109-622-742 -1652.15589186509 125000 -941.577826009023 0 0 156 (C1) n - 1
REM
REM in /home/nfs/bkarasulu/CARBON/AIRSS/Generating-Clusters/LCBOP/Only-C1/SD-CG/FIRE-CG
REM
REM
REM
REM
REM
REM ./C.cell (11c1c37f851c82e70ff6c80c92926a4b)
REM AIRSS Version 0.9.1 bugfix July 2018 build 013d7b7c2542+ Fri, 06 Jul 2018 19:26:36 +0100
REM compiler GCC version 9.2.1 20190827 (Red Hat 9.2.1-1)
REM options -cpp -mtune=generic -march=x86-64 -g -O0 -fpre-include=/usr/include/finclude/math-vector-fortran.h
REM seed 178155135 -1634227889 567906145 -1728673955 1551602736 -1522274513 -1013670977 -14738088 1754802582 -1821930966 809273720 -120331432 -960170899 1384107715 1756958430 1756132060 417892621 1928415746 -1847862531 -1810752039 1887171955 768907996 582957825 1166236355 -1600917619 362775156 -248138524 -1245145757 -63099445 1017434986 87307287 46538614 -1431099818
REM
CELL 1.54180   50.00000   50.00000   50.00000   90.00000   90.00000   90.00000
LATT -1
SFAC C  
C      1  0.3932680000000  0.5739680000000  0.4914890000000 1.0
C      1  0.5456860000000  0.4315950000000  0.4286700000000 1.0
C      1  0.5728320000000  0.5127350000000  0.4800080000000 1.0
C      1  0.5827320000000  0.4523170000000  0.5387450000000 1.0
C      1  0.4949830000000  0.4482400000000  0.5128080000000 1.0
C      1  0.5392530000000  0.4225070000000  0.5200350000000 1.0
C      1  0.4508700000000  0.4161320000000  0.4474920000000 1.0
C      1  0.4858870000000  0.4603700000000  0.5546780000000 1.0
C      1  0.5992400000000  0.5085540000000  0.5332020000000 1.0
C      1  0.5489030000000  0.5206860000000  0.6228480000000 1.0
C      1  0.5507220000000  0.4771030000000  0.4506400000000 1.0
C      1  0.5773740000000  0.5018230000000  0.4051440000000 1.0
C      1  0.5602930000000  0.5268720000000  0.5565040000000 1.0
C      1  0.3802620000000  0.5305820000000  0.5246510000000 1.0
C      1  0.4979660000000  0.5736730000000  0.4926740000000 1.0
C      1  0.6490150000000  0.4906810000000  0.4582110000000 1.0
C      1  0.5200050000000  0.5213760000000  0.4257080000000 1.0
C      1  0.4045480000000  0.4930670000000  0.5582780000000 1.0
C      1  0.5636960000000  0.5315340000000  0.4379030000000 1.0
C      1  0.5061300000000  0.5011800000000  0.6145720000000 1.0
C      1  0.4725640000000  0.4928090000000  0.5132640000000 1.0
C      1  0.5435990000000  0.5882520000000  0.5484240000000 1.0
C      1  0.4526300000000  0.5880600000000  0.5201320000000 1.0
C      1  0.4523050000000  0.5081160000000  0.5565970000000 1.0
C      1  0.5352510000000  0.4894510000000  0.5210490000000 1.0
C      1  0.5437070000000  0.5343580000000  0.4150620000000 1.0
C      1  0.5509930000000  0.5456620000000  0.6135110000000 1.0
C      1  0.5234140000000  0.4837600000000  0.5477830000000 1.0
C      1  0.4061520000000  0.4507620000000  0.5413000000000 1.0
C      1  0.5104200000000  0.3393900000000  0.5478430000000 1.0
C      1  0.5850040000000  0.4815730000000  0.5348970000000 1.0
C      1  0.4939750000000  0.5743750000000  0.6045830000000 1.0
C      1  0.5581810000000  0.5323380000000  0.4660660000000 1.0
C      1  0.6390940000000  0.4965850000000  0.5063770000000 1.0
C      1  0.4040340000000  0.4367410000000  0.4931030000000 1.0
C      1  0.5058050000000  0.4364560000000  0.6141460000000 1.0
C      1  0.6095500000000  0.5430280000000  0.4630640000000 1.0
C      1  0.4144840000000  0.4515720000000  0.4711710000000 1.0
C      1  0.4238140000000  0.5323170000000  0.4339440000000 1.0
C      1  0.4678570000000  0.5133600000000  0.5321150000000 1.0
C      1  0.4577860000000  0.4959290000000  0.6039740000000 1.0
C      1  0.4809850000000  0.5582120000000  0.4093420000000 1.0
C      1  0.6332580000000  0.5049550000000  0.4419570000000 1.0
C      1  0.5183590000000  0.5898050000000  0.5620930000000 1.0
C      1  0.4973220000000  0.4499870000000  0.4855310000000 1.0
C      1  0.4739520000000  0.5784160000000  0.4794810000000 1.0
C      1  0.5152020000000  0.4567910000000  0.5517910000000 1.0
C      1  0.4730740000000  0.5119020000000  0.4281010000000 1.0
C      1  0.4645980000000  0.5327120000000  0.4083240000000 1.0
C      1  0.5068500000000  0.5020970000000  0.5642050000000 1.0
C      1  0.4758960000000  0.5971220000000  0.5315790000000 1.0
C      1  0.5007230000000  0.4059400000000  0.4296340000000 1.0
C      1  0.4112500000000  0.5070120000000  0.4318800000000 1.0
C      1  0.4659600000000  0.4181340000000  0.4721420000000 1.0
C      1  0.4387730000000  0.5195800000000  0.6080990000000 1.0
C      1  0.4648670000000  0.3942760000000  0.5363690000000 1.0
C      1  0.5873740000000  0.5174750000000  0.4278110000000 1.0
C      1  0.3866570000000  0.5090220000000  0.5074470000000 1.0
C      1  0.5558690000000  0.5802830000000  0.4228310000000 1.0
C      1  0.5393040000000  0.4715420000000  0.6299700000000 1.0
C      1  0.4633500000000  0.5600550000000  0.4578240000000 1.0
C      1  0.4881860000000  0.3831270000000  0.5252510000000 1.0
C      1  0.5000420000000  0.4616120000000  0.4335270000000 1.0
C      1  0.4962200000000  0.5244520000000  0.4377410000000 1.0
C      1  0.5405110000000  0.5664050000000  0.6002880000000 1.0
C      1  0.6140080000000  0.5346860000000  0.4905280000000 1.0
C      1  0.5250420000000  0.4668480000000  0.3929090000000 1.0
C      1  0.3849190000000  0.5384450000000  0.5500280000000 1.0
C      1  0.5075420000000  0.3964020000000  0.4559330000000 1.0
C      1  0.4964800000000  0.6051720000000  0.5501700000000 1.0
C      1  0.4958140000000  0.6831310000000  0.5711020000000 1.0
C      1  0.5356240000000  0.5364640000000  0.5526770000000 1.0
C      1  0.5082790000000  0.5657470000000  0.4038300000000 1.0
C      1  0.4724960000000  0.4449240000000  0.5737590000000 1.0
C      1  0.4613350000000  0.5317020000000  0.5731320000000 1.0
C      1  0.4870170000000  0.3991780000000  0.4773190000000 1.0
C      1  0.3895280000000  0.4743610000000  0.5420840000000 1.0
C      1  0.4767510000000  0.5034330000000  0.4860510000000 1.0
C      1  0.5506870000000  0.4198050000000  0.4556610000000 1.0
C      1  0.4925850000000  0.4768170000000  0.3639660000000 1.0
C      1  0.5173650000000  0.5781820000000  0.5889890000000 1.0
C      1  0.5867160000000  0.5596080000000  0.5382450000000 1.0
C      1  0.4861080000000  0.5367990000000  0.5378660000000 1.0
C      1  0.6177720000000  0.5144740000000  0.5112690000000 1.0
C      1  0.4861950000000  0.5394730000000  0.4588250000000 1.0
C      1  0.4824540000000  0.4538170000000  0.3804050000000 1.0
C      1  0.4150830000000  0.5294590000000  0.5908490000000 1.0
C      1  0.5242510000000  0.4933520000000  0.4940150000000 1.0
C      1  0.4993070000000  0.3603040000000  0.5369690000000 1.0
C      1  0.5094320000000  0.5278070000000  0.5517910000000 1.0
C      1  0.4140180000000  0.4814190000000  0.4758950000000 1.0
C      1  0.5550940000000  0.5167390000000  0.3925100000000 1.0
C      1  0.4667190000000  0.5672730000000  0.6051860000000 1.0
C      1  0.5679810000000  0.5792280000000  0.5409690000000 1.0
C      1  0.4597640000000  0.4677120000000  0.4547140000000 1.0
C      1  0.4295230000000  0.5702190000000  0.5222500000000 1.0
C      1  0.4638290000000  0.4571800000000  0.4034840000000 1.0
C      1  0.5375720000000  0.5071960000000  0.3720300000000 1.0
C      1  0.5968230000000  0.5673520000000  0.4542190000000 1.0
C      1  0.5195650000000  0.4854560000000  0.3715880000000 1.0
C      1  0.3781190000000  0.4843510000000  0.5185100000000 1.0
C      1  0.4217440000000  0.5359380000000  0.4834660000000 1.0
C      1  0.5323810000000  0.4981180000000  0.6240450000000 1.0
C      1  0.4925060000000  0.5284000000000  0.4842760000000 1.0
C      1  0.5296680000000  0.4023970000000  0.4997070000000 1.0
C      1  0.4875580000000  0.4975870000000  0.5939370000000 1.0
C      1  0.5737790000000  0.4736290000000  0.4085250000000 1.0
C      1  0.4493280000000  0.4106750000000  0.5506370000000 1.0
C      1  0.5666660000000  0.4652330000000  0.4725250000000 1.0
C      1  0.4310320000000  0.4567060000000  0.5550690000000 1.0
C      1  0.4512750000000  0.5840400000000  0.5879520000000 1.0
C      1  0.4783350000000  0.4671630000000  0.5264180000000 1.0
C      1  0.6515420000000  0.4869780000000  0.4846460000000 1.0
C      1  0.4368750000000  0.5385670000000  0.4095640000000 1.0
C      1  0.4851800000000  0.4366390000000  0.5972080000000 1.0
C      1  0.4151390000000  0.5592620000000  0.5000230000000 1.0
C      1  0.5175230000000  0.4390880000000  0.5292270000000 1.0
C      1  0.5099940000000  0.4410310000000  0.3905820000000 1.0
C      1  0.5382290000000  0.5459980000000  0.4811680000000 1.0
C      1  0.5269490000000  0.4480870000000  0.6256480000000 1.0
C      1  0.5006750000000  0.3944260000000  0.5025270000000 1.0
C      1  0.6111990000000  0.5221920000000  0.4424430000000 1.0
C      1  0.4954270000000  0.6322140000000  0.5580750000000 1.0
C      1  0.4084710000000  0.5088320000000  0.4878120000000 1.0
C      1  0.4954440000000  0.6578200000000  0.5648680000000 1.0
C      1  0.5205200000000  0.4221690000000  0.4132250000000 1.0
C      1  0.5569150000000  0.4599670000000  0.4271250000000 1.0
C      1  0.5236560000000  0.4473760000000  0.4778950000000 1.0
C      1  0.5298010000000  0.4909000000000  0.4666570000000 1.0
C      1  0.5518830000000  0.4413130000000  0.4753730000000 1.0
C      1  0.4077880000000  0.5453070000000  0.5655590000000 1.0
C      1  0.4355280000000  0.5432990000000  0.4586930000000 1.0
C      1  0.4245730000000  0.5642900000000  0.5506610000000 1.0
C      1  0.5631960000000  0.4857590000000  0.5167390000000 1.0
C      1  0.4443470000000  0.4693630000000  0.4209390000000 1.0
C      1  0.5122860000000  0.5484050000000  0.4928610000000 1.0
C      1  0.5850600000000  0.5316290000000  0.5440750000000 1.0
C      1  0.4735640000000  0.4175210000000  0.4284780000000 1.0
C      1  0.5337380000000  0.4002410000000  0.4689470000000 1.0
C      1  0.4268990000000  0.4333280000000  0.4510880000000 1.0
C      1  0.5655180000000  0.4321810000000  0.5295500000000 1.0
C      1  0.4580510000000  0.5402600000000  0.6006830000000 1.0
C      1  0.4696210000000  0.5529480000000  0.5555820000000 1.0
C      1  0.4680210000000  0.5732550000000  0.4307540000000 1.0
C      1  0.4492120000000  0.5726940000000  0.5623180000000 1.0
C      1  0.4329600000000  0.4865860000000  0.5593770000000 1.0
C      1  0.5174230000000  0.4758830000000  0.4188010000000 1.0
C      1  0.4210410000000  0.4840340000000  0.4215540000000 1.0
C      1  0.5722810000000  0.4866600000000  0.4900980000000 1.0
C      1  0.5779310000000  0.5797110000000  0.4389210000000 1.0
C      1  0.4728020000000  0.4469500000000  0.4717650000000 1.0
C      1  0.4661230000000  0.4944180000000  0.4591110000000 1.0
C      1  0.4033730000000  0.4336380000000  0.5195580000000 1.0
C      1  0.4800010000000  0.4446540000000  0.4235390000000 1.0
C      1  0.5362320000000  0.5631180000000  0.4108590000000 1.0
C      1  0.4480770000000  0.4358060000000  0.5632530000000 1.0
END
