TITL C-627106-156-1026 -2.64846237752802e-05 125000 -539.189330972184 0 0 90 (C1) n - 1
REM
REM in /home/nfs/bkarasulu/CARBON/AIRSS/Generating-Clusters/LCBOP/Only-C1/SD-CG/FIRE-CG
REM
REM
REM
REM
REM
REM ./C.cell (11c1c37f851c82e70ff6c80c92926a4b)
REM AIRSS Version 0.9.1 bugfix July 2018 build 013d7b7c2542+ Fri, 06 Jul 2018 19:26:36 +0100
REM compiler GCC version 9.2.1 20190827 (Red Hat 9.2.1-1)
REM options -cpp -mtune=generic -march=x86-64 -g -O0 -fpre-include=/usr/include/finclude/math-vector-fortran.h
REM seed -880399476 -301892265 -342566158 -1880060773 -666981732 -1363939583 -989810502 721747340 -93966404 959541548 -1088968377 -500872517 -1064148105 -1883384187 -685406045 -1455015876 178914644 -1021784734 1754925531 -24664322 85674291 939069889 431158457 -1180934186 -676941828 1816264153 -1438823599 73418651 1180436517 -1202448039 77551421 2117067934 503197695
REM
CELL 1.54180   50.00000   50.00000   50.00000   90.00000   90.00000   90.00000
LATT -1
SFAC C  
C      1  0.5637090000000  0.5496000000000  0.5444870000000 1.0
C      1  0.4535230000000  0.4624370000000  0.5387520000000 1.0
C      1  0.5041500000000  0.5474260000000  0.4710060000000 1.0
C      1  0.4192060000000  0.5542880000000  0.4058360000000 1.0
C      1  0.4908630000000  0.4570070000000  0.4717660000000 1.0
C      1  0.4538140000000  0.5875030000000  0.4884830000000 1.0
C      1  0.5291550000000  0.5016070000000  0.4261210000000 1.0
C      1  0.4468720000000  0.5460810000000  0.3624730000000 1.0
C      1  0.5258290000000  0.5186940000000  0.5305010000000 1.0
C      1  0.4297310000000  0.4944700000000  0.4774400000000 1.0
C      1  0.4494550000000  0.4862880000000  0.4105940000000 1.0
C      1  0.4312000000000  0.5240680000000  0.4765920000000 1.0
C      1  0.5252280000000  0.4576930000000  0.5014960000000 1.0
C      1  0.5030830000000  0.4712960000000  0.5419060000000 1.0
C      1  0.4370210000000  0.4858120000000  0.3865930000000 1.0
C      1  0.6030870000000  0.4714760000000  0.5447570000000 1.0
C      1  0.5379690000000  0.4522800000000  0.4747190000000 1.0
C      1  0.4385590000000  0.4574970000000  0.5136500000000 1.0
C      1  0.4397320000000  0.4951190000000  0.5763130000000 1.0
C      1  0.5049850000000  0.4585120000000  0.4277620000000 1.0
C      1  0.4853590000000  0.5129660000000  0.3521190000000 1.0
C      1  0.5427450000000  0.5638800000000  0.5302220000000 1.0
C      1  0.5680190000000  0.4371400000000  0.5541080000000 1.0
C      1  0.4707130000000  0.4483360000000  0.4328570000000 1.0
C      1  0.4302990000000  0.5538870000000  0.3817110000000 1.0
C      1  0.5562550000000  0.4304390000000  0.4794900000000 1.0
C      1  0.5156980000000  0.4801180000000  0.4127270000000 1.0
C      1  0.4874800000000  0.4864080000000  0.4680460000000 1.0
C      1  0.4663320000000  0.5315190000000  0.3517330000000 1.0
C      1  0.5237290000000  0.4025970000000  0.5011610000000 1.0
C      1  0.5026910000000  0.4586370000000  0.5668210000000 1.0
C      1  0.4713660000000  0.5343680000000  0.5892180000000 1.0
C      1  0.4933510000000  0.5781490000000  0.5298150000000 1.0
C      1  0.4284380000000  0.4833450000000  0.5036810000000 1.0
C      1  0.4817360000000  0.5917090000000  0.4835300000000 1.0
C      1  0.5417140000000  0.4966710000000  0.5265780000000 1.0
C      1  0.4984020000000  0.4152590000000  0.4956410000000 1.0
C      1  0.4740450000000  0.6054010000000  0.6027990000000 1.0
C      1  0.4708000000000  0.5258360000000  0.5046240000000 1.0
C      1  0.5891600000000  0.4805510000000  0.5219240000000 1.0
C      1  0.4360790000000  0.4835960000000  0.5512100000000 1.0
C      1  0.4776690000000  0.4798650000000  0.5328010000000 1.0
C      1  0.4930660000000  0.5727290000000  0.4660820000000 1.0
C      1  0.4352410000000  0.5009520000000  0.5273220000000 1.0
C      1  0.5161240000000  0.5665070000000  0.5434400000000 1.0
C      1  0.5404290000000  0.4886400000000  0.5981300000000 1.0
C      1  0.5122150000000  0.5539610000000  0.5698600000000 1.0
C      1  0.5109680000000  0.4825890000000  0.3852840000000 1.0
C      1  0.4943940000000  0.5279230000000  0.4894550000000 1.0
C      1  0.4338030000000  0.4763190000000  0.4550470000000 1.0
C      1  0.4662210000000  0.5061210000000  0.4219860000000 1.0
C      1  0.5700180000000  0.5014320000000  0.5251600000000 1.0
C      1  0.5339910000000  0.5391790000000  0.5817530000000 1.0
C      1  0.5593670000000  0.5474320000000  0.5722590000000 1.0
C      1  0.4806610000000  0.5815590000000  0.5946180000000 1.0
C      1  0.5324900000000  0.5139690000000  0.5942750000000 1.0
C      1  0.5428700000000  0.4050950000000  0.4794830000000 1.0
C      1  0.5347850000000  0.5229970000000  0.4415160000000 1.0
C      1  0.4477550000000  0.4662120000000  0.4311770000000 1.0
C      1  0.4539900000000  0.5142240000000  0.5883760000000 1.0
C      1  0.5170570000000  0.4537340000000  0.4540510000000 1.0
C      1  0.4968540000000  0.5960650000000  0.5076120000000 1.0
C      1  0.4658160000000  0.5685790000000  0.5304540000000 1.0
C      1  0.5616150000000  0.4252690000000  0.5287720000000 1.0
C      1  0.5478620000000  0.5669350000000  0.5025400000000 1.0
C      1  0.4653770000000  0.5054330000000  0.5233490000000 1.0
C      1  0.5836970000000  0.4658050000000  0.5887460000000 1.0
C      1  0.4484380000000  0.5661480000000  0.5067210000000 1.0
C      1  0.4776410000000  0.5014160000000  0.4460050000000 1.0
C      1  0.4998230000000  0.4443780000000  0.4977050000000 1.0
C      1  0.5040140000000  0.5021400000000  0.4843260000000 1.0
C      1  0.4473670000000  0.5395480000000  0.4954510000000 1.0
C      1  0.5909240000000  0.4541980000000  0.5632450000000 1.0
C      1  0.5308840000000  0.5426000000000  0.4615440000000 1.0
C      1  0.4736180000000  0.4357100000000  0.4582150000000 1.0
C      1  0.5773490000000  0.5281770000000  0.5316760000000 1.0
C      1  0.4831720000000  0.4380530000000  0.6111000000000 1.0
C      1  0.4151340000000  0.5482220000000  0.4313610000000 1.0
C      1  0.5863690000000  0.4602010000000  0.5027690000000 1.0
C      1  0.5008460000000  0.4949690000000  0.3640610000000 1.0
C      1  0.4187480000000  0.5375400000000  0.4553810000000 1.0
C      1  0.5264630000000  0.4730390000000  0.5248410000000 1.0
C      1  0.5496160000000  0.5559020000000  0.4779720000000 1.0
C      1  0.5549560000000  0.4654470000000  0.5923130000000 1.0
C      1  0.4932610000000  0.4476220000000  0.5890530000000 1.0
C      1  0.5722270000000  0.4357680000000  0.5031920000000 1.0
C      1  0.4878770000000  0.5565430000000  0.5844280000000 1.0
C      1  0.5476860000000  0.4433660000000  0.5744530000000 1.0
C      1  0.5385510000000  0.4077560000000  0.5256520000000 1.0
C      1  0.4791180000000  0.4117640000000  0.4737190000000 1.0
END
