TITL C-627110-360-2111 -8991.33365673277 125000 -587.008385903594 0 0 97 (C1) n - 1
REM
REM in /home/nfs/bkarasulu/CARBON/AIRSS/Generating-Clusters/LCBOP/Only-C1/SD-CG/FIRE-CG
REM
REM
REM
REM
REM
REM ./C.cell (11c1c37f851c82e70ff6c80c92926a4b)
REM AIRSS Version 0.9.1 bugfix July 2018 build 013d7b7c2542+ Fri, 06 Jul 2018 19:26:36 +0100
REM compiler GCC version 9.2.1 20190827 (Red Hat 9.2.1-1)
REM options -cpp -mtune=generic -march=x86-64 -g -O0 -fpre-include=/usr/include/finclude/math-vector-fortran.h
REM seed -409680217 1440561624 -1820593792 -1122926894 -181386191 -282941497 303962767 -11057172 -1528823677 -1184351378 -1863819158 -1691158657 392054905 -22699680 1487084687 1517738202 -1241371644 -2037167607 -1906663444 -343157788 -828568579 -1600727616 650555707 -1750879115 1020521893 -525386723 -1147646399 969669866 -158088233 -644048027 1133329586 -1290406394 1603000352
REM
CELL 1.54180   50.00000   50.00000   50.00000   90.00000   90.00000   90.00000
LATT -1
SFAC C  
C      1  0.4697100000000  0.5997800000000  0.5766280000000 1.0
C      1  0.5301000000000  0.5562180000000  0.4253940000000 1.0
C      1  0.5534570000000  0.5183150000000  0.4030160000000 1.0
C      1  0.5741790000000  0.4341310000000  0.4922700000000 1.0
C      1  0.4786090000000  0.3573660000000  0.5409020000000 1.0
C      1  0.4512190000000  0.4896400000000  0.4294960000000 1.0
C      1  0.4491750000000  0.5918950000000  0.4843570000000 1.0
C      1  0.4730050000000  0.4129460000000  0.4652140000000 1.0
C      1  0.4294990000000  0.4618230000000  0.4973000000000 1.0
C      1  0.4228380000000  0.5951980000000  0.4751400000000 1.0
C      1  0.5725420000000  0.5664900000000  0.5737340000000 1.0
C      1  0.5876030000000  0.5256880000000  0.5535750000000 1.0
C      1  0.4723130000000  0.4367680000000  0.5581300000000 1.0
C      1  0.4699070000000  0.5313970000000  0.5639430000000 1.0
C      1  0.4848260000000  0.4445420000000  0.4286080000000 1.0
C      1  0.5074420000000  0.5489940000000  0.4651380000000 1.0
C      1  0.5500170000000  0.5506470000000  0.5339160000000 1.0
C      1  0.4930700000000  0.4035520000000  0.5165310000000 1.0
C      1  0.4620500000000  0.5599530000000  0.5216650000000 1.0
C      1  0.5332440000000  0.4824330000000  0.4288820000000 1.0
C      1  0.4074640000000  0.4819280000000  0.4494070000000 1.0
C      1  0.5078290000000  0.4869980000000  0.4150180000000 1.0
C      1  0.5224370000000  0.5211540000000  0.5876000000000 1.0
C      1  0.5068290000000  0.5670830000000  0.4414270000000 1.0
C      1  0.4864270000000  0.5238630000000  0.4253770000000 1.0
C      1  0.4817090000000  0.5469680000000  0.4785570000000 1.0
C      1  0.5530910000000  0.4433720000000  0.5391380000000 1.0
C      1  0.5866400000000  0.4577830000000  0.4914470000000 1.0
C      1  0.4521830000000  0.5403140000000  0.5414750000000 1.0
C      1  0.5026630000000  0.4558540000000  0.4879990000000 1.0
C      1  0.4486150000000  0.6054510000000  0.5319320000000 1.0
C      1  0.3982650000000  0.5979980000000  0.4669280000000 1.0
C      1  0.5374560000000  0.4259280000000  0.5225950000000 1.0
C      1  0.5677950000000  0.5673890000000  0.4612340000000 1.0
C      1  0.5784030000000  0.4381150000000  0.5498220000000 1.0
C      1  0.5839980000000  0.4843720000000  0.4909860000000 1.0
C      1  0.5341450000000  0.4843570000000  0.4576040000000 1.0
C      1  0.4632470000000  0.5306160000000  0.4624280000000 1.0
C      1  0.5426000000000  0.4690480000000  0.5428890000000 1.0
C      1  0.4506330000000  0.4567190000000  0.4799450000000 1.0
C      1  0.5436900000000  0.5084880000000  0.4702880000000 1.0
C      1  0.5094980000000  0.4707150000000  0.5935280000000 1.0
C      1  0.5329430000000  0.5342730000000  0.4653650000000 1.0
C      1  0.5261680000000  0.4184170000000  0.4479340000000 1.0
C      1  0.5212240000000  0.4838360000000  0.5475620000000 1.0
C      1  0.4825210000000  0.5769180000000  0.5815280000000 1.0
C      1  0.5292940000000  0.5333200000000  0.4068310000000 1.0
C      1  0.4786150000000  0.4898890000000  0.5274080000000 1.0
C      1  0.4940090000000  0.4895960000000  0.5505900000000 1.0
C      1  0.4540540000000  0.4769930000000  0.5325660000000 1.0
C      1  0.5036430000000  0.5337470000000  0.5189020000000 1.0
C      1  0.4829670000000  0.4080200000000  0.4900390000000 1.0
C      1  0.5249630000000  0.4644070000000  0.4752740000000 1.0
C      1  0.4700050000000  0.5947830000000  0.4649170000000 1.0
C      1  0.5684690000000  0.5719910000000  0.4877330000000 1.0
C      1  0.6020190000000  0.5038420000000  0.5580180000000 1.0
C      1  0.4880840000000  0.5878970000000  0.4457810000000 1.0
C      1  0.4186260000000  0.5063600000000  0.5156980000000 1.0
C      1  0.5494570000000  0.5514420000000  0.4473640000000 1.0
C      1  0.4827240000000  0.5049800000000  0.5719450000000 1.0
C      1  0.4545380000000  0.4548030000000  0.5498440000000 1.0
C      1  0.4644970000000  0.4317230000000  0.4447230000000 1.0
C      1  0.4557790000000  0.6113620000000  0.5569820000000 1.0
C      1  0.5004260000000  0.4331020000000  0.5577360000000 1.0
C      1  0.4413730000000  0.5224720000000  0.4449660000000 1.0
C      1  0.4840050000000  0.5507650000000  0.5065110000000 1.0
C      1  0.4318780000000  0.4713910000000  0.4393530000000 1.0
C      1  0.5155900000000  0.5413250000000  0.5676790000000 1.0
C      1  0.4436850000000  0.4493180000000  0.4531650000000 1.0
C      1  0.3975530000000  0.4971860000000  0.4693320000000 1.0
C      1  0.4312710000000  0.4810760000000  0.5173190000000 1.0
C      1  0.5575730000000  0.5651750000000  0.5111360000000 1.0
C      1  0.4831620000000  0.5126500000000  0.4513250000000 1.0
C      1  0.5310850000000  0.4272980000000  0.5951830000000 1.0
C      1  0.4891880000000  0.5516830000000  0.5721300000000 1.0
C      1  0.5106780000000  0.4207590000000  0.5323740000000 1.0
C      1  0.4938490000000  0.5075810000000  0.5110750000000 1.0
C      1  0.4819500000000  0.4731560000000  0.4209970000000 1.0
C      1  0.5489590000000  0.4215270000000  0.4962310000000 1.0
C      1  0.4017510000000  0.5091220000000  0.4931710000000 1.0
C      1  0.5137930000000  0.4441380000000  0.5817080000000 1.0
C      1  0.5673820000000  0.5045350000000  0.4851080000000 1.0
C      1  0.5100270000000  0.4313330000000  0.4305900000000 1.0
C      1  0.4289190000000  0.5262490000000  0.5329880000000 1.0
C      1  0.4207860000000  0.5358000000000  0.4343070000000 1.0
C      1  0.4855320000000  0.3793310000000  0.5287070000000 1.0
C      1  0.4774170000000  0.4666960000000  0.4815350000000 1.0
C      1  0.4522170000000  0.5854930000000  0.5125100000000 1.0
C      1  0.6074320000000  0.4779110000000  0.5604300000000 1.0
C      1  0.4832150000000  0.4892400000000  0.4655620000000 1.0
C      1  0.5234180000000  0.5412950000000  0.5393160000000 1.0
C      1  0.5063700000000  0.5155520000000  0.4079980000000 1.0
C      1  0.5035490000000  0.4993130000000  0.5924530000000 1.0
C      1  0.5993640000000  0.4526190000000  0.5579060000000 1.0
C      1  0.5553850000000  0.4933540000000  0.4142000000000 1.0
C      1  0.5361090000000  0.4131700000000  0.4724160000000 1.0
C      1  0.5700850000000  0.5474940000000  0.5541200000000 1.0
END
