TITL C-627110-360-1371 15498.3150004238 125000 -893.931513494367 0 0 146 (C1) n - 1
REM
REM in /home/nfs/bkarasulu/CARBON/AIRSS/Generating-Clusters/LCBOP/Only-C1/SD-CG/FIRE-CG
REM
REM
REM
REM
REM
REM ./C.cell (11c1c37f851c82e70ff6c80c92926a4b)
REM AIRSS Version 0.9.1 bugfix July 2018 build 013d7b7c2542+ Fri, 06 Jul 2018 19:26:36 +0100
REM compiler GCC version 9.2.1 20190827 (Red Hat 9.2.1-1)
REM options -cpp -mtune=generic -march=x86-64 -g -O0 -fpre-include=/usr/include/finclude/math-vector-fortran.h
REM seed 1348679904 -1107419425 -1239049220 -1477954165 -1867273713 -715164957 -344483163 1942197119 -2068104447 927894987 173478149 -2011456586 1783922912 -753959025 -1746900270 236743899 586227336 1573153927 359276144 -991294539 -512403017 1236430648 1407476930 -1770825688 -195423803 1711350424 -1451438871 -1426738860 -884788950 -1375145595 -481290446 1830516408 1268674858
REM
CELL 1.54180   50.00000   50.00000   50.00000   90.00000   90.00000   90.00000
LATT -1
SFAC C  
C      1  0.4462500000000  0.5397310000000  0.4364430000000 1.0
C      1  0.5071710000000  0.5812930000000  0.4310070000000 1.0
C      1  0.4999260000000  0.4828540000000  0.4007600000000 1.0
C      1  0.5188710000000  0.4844430000000  0.5896040000000 1.0
C      1  0.4412770000000  0.5940620000000  0.5226060000000 1.0
C      1  0.6041520000000  0.4574690000000  0.5082220000000 1.0
C      1  0.5159280000000  0.4255640000000  0.3883290000000 1.0
C      1  0.4932320000000  0.4950780000000  0.4740440000000 1.0
C      1  0.4559800000000  0.4260020000000  0.5112730000000 1.0
C      1  0.4648190000000  0.4935720000000  0.5952700000000 1.0
C      1  0.4730380000000  0.4706340000000  0.4764850000000 1.0
C      1  0.4309620000000  0.4364910000000  0.4513860000000 1.0
C      1  0.4891160000000  0.4450900000000  0.4790450000000 1.0
C      1  0.6014860000000  0.5200400000000  0.5323800000000 1.0
C      1  0.4444480000000  0.5345160000000  0.4647360000000 1.0
C      1  0.5099380000000  0.4474840000000  0.5289370000000 1.0
C      1  0.4608100000000  0.4526260000000  0.5227140000000 1.0
C      1  0.5088430000000  0.5926270000000  0.4929340000000 1.0
C      1  0.4682990000000  0.6053130000000  0.5175830000000 1.0
C      1  0.5561480000000  0.4015930000000  0.4971170000000 1.0
C      1  0.4102660000000  0.4830960000000  0.4429410000000 1.0
C      1  0.4768760000000  0.5917090000000  0.4908440000000 1.0
C      1  0.5432320000000  0.5067650000000  0.4738040000000 1.0
C      1  0.4736290000000  0.4045990000000  0.5176460000000 1.0
C      1  0.5188970000000  0.6088160000000  0.4690000000000 1.0
C      1  0.4821940000000  0.5876220000000  0.5613350000000 1.0
C      1  0.4593280000000  0.5027030000000  0.5124430000000 1.0
C      1  0.5825320000000  0.4521960000000  0.4655490000000 1.0
C      1  0.5619880000000  0.5017850000000  0.5690330000000 1.0
C      1  0.5956990000000  0.5510040000000  0.4632440000000 1.0
C      1  0.4489720000000  0.4224600000000  0.4324550000000 1.0
C      1  0.5396280000000  0.5117380000000  0.3964800000000 1.0
C      1  0.5619830000000  0.5838530000000  0.4991760000000 1.0
C      1  0.4567190000000  0.5848270000000  0.4428180000000 1.0
C      1  0.4672480000000  0.5627580000000  0.4989300000000 1.0
C      1  0.5214170000000  0.5112330000000  0.6042120000000 1.0
C      1  0.5422870000000  0.5246330000000  0.5584250000000 1.0
C      1  0.5529160000000  0.5535550000000  0.5968060000000 1.0
C      1  0.3960270000000  0.4583320000000  0.5133950000000 1.0
C      1  0.4815960000000  0.3862700000000  0.4980470000000 1.0
C      1  0.5216110000000  0.5406660000000  0.4997620000000 1.0
C      1  0.4996270000000  0.6026230000000  0.4488640000000 1.0
C      1  0.5713880000000  0.5050220000000  0.4953370000000 1.0
C      1  0.5415080000000  0.4047960000000  0.4729550000000 1.0
C      1  0.5728180000000  0.4219970000000  0.5114780000000 1.0
C      1  0.4272680000000  0.5406790000000  0.5148090000000 1.0
C      1  0.5295990000000  0.4614800000000  0.4867150000000 1.0
C      1  0.4056600000000  0.4903160000000  0.5512420000000 1.0
C      1  0.5831740000000  0.5010230000000  0.5461590000000 1.0
C      1  0.4216570000000  0.4742690000000  0.6090230000000 1.0
C      1  0.5464770000000  0.4762870000000  0.5757610000000 1.0
C      1  0.4179730000000  0.4315840000000  0.4772600000000 1.0
C      1  0.4807620000000  0.5150990000000  0.4941420000000 1.0
C      1  0.6032720000000  0.5465120000000  0.5433840000000 1.0
C      1  0.5534630000000  0.4606530000000  0.5006870000000 1.0
C      1  0.5539150000000  0.4604610000000  0.4044710000000 1.0
C      1  0.4898630000000  0.4177710000000  0.3940480000000 1.0
C      1  0.4973730000000  0.3858070000000  0.4763480000000 1.0
C      1  0.5413930000000  0.3896620000000  0.5188990000000 1.0
C      1  0.4259110000000  0.4428150000000  0.5504320000000 1.0
C      1  0.5381740000000  0.4083470000000  0.5398770000000 1.0
C      1  0.4183250000000  0.5234990000000  0.4706720000000 1.0
C      1  0.5183030000000  0.4261380000000  0.5773400000000 1.0
C      1  0.4737930000000  0.4270320000000  0.5853980000000 1.0
C      1  0.4426190000000  0.5227140000000  0.5572970000000 1.0
C      1  0.4853160000000  0.4753580000000  0.5853790000000 1.0
C      1  0.4996890000000  0.4297180000000  0.4577300000000 1.0
C      1  0.4981910000000  0.5280040000000  0.6020640000000 1.0
C      1  0.5578000000000  0.5344120000000  0.4370510000000 1.0
C      1  0.4662900000000  0.5385580000000  0.4820480000000 1.0
C      1  0.5148140000000  0.5637850000000  0.4862770000000 1.0
C      1  0.4741300000000  0.4931190000000  0.4064140000000 1.0
C      1  0.5964860000000  0.5196080000000  0.5020580000000 1.0
C      1  0.4102940000000  0.5112610000000  0.4452010000000 1.0
C      1  0.4567210000000  0.4761890000000  0.4512440000000 1.0
C      1  0.5628090000000  0.4987100000000  0.5237760000000 1.0
C      1  0.4842880000000  0.5565680000000  0.5238430000000 1.0
C      1  0.4650380000000  0.5596370000000  0.4313920000000 1.0
C      1  0.4862920000000  0.4060160000000  0.5432820000000 1.0
C      1  0.5792520000000  0.4470820000000  0.4955540000000 1.0
C      1  0.4137940000000  0.5251260000000  0.3714650000000 1.0
C      1  0.5610550000000  0.4276410000000  0.5404040000000 1.0
C      1  0.3922920000000  0.5071550000000  0.5083440000000 1.0
C      1  0.5623720000000  0.5806760000000  0.5505510000000 1.0
C      1  0.3958390000000  0.4502440000000  0.4852110000000 1.0
C      1  0.4696800000000  0.4056300000000  0.5667900000000 1.0
C      1  0.4603670000000  0.4747860000000  0.5047790000000 1.0
C      1  0.5446590000000  0.5291080000000  0.6068990000000 1.0
C      1  0.4714240000000  0.5207190000000  0.5964890000000 1.0
C      1  0.4943500000000  0.4397980000000  0.4324700000000 1.0
C      1  0.5785060000000  0.4694130000000  0.4451240000000 1.0
C      1  0.5887220000000  0.5692750000000  0.5457700000000 1.0
C      1  0.4212120000000  0.6072740000000  0.5354280000000 1.0
C      1  0.4169410000000  0.5271810000000  0.3972540000000 1.0
C      1  0.4529550000000  0.4534210000000  0.5505580000000 1.0
C      1  0.5689070000000  0.5565120000000  0.5023490000000 1.0
C      1  0.5719580000000  0.5579820000000  0.4493360000000 1.0
C      1  0.4444240000000  0.5216860000000  0.5289040000000 1.0
C      1  0.4591460000000  0.5382940000000  0.5757020000000 1.0
C      1  0.5351570000000  0.5268570000000  0.4535420000000 1.0
C      1  0.4943380000000  0.5556550000000  0.4319100000000 1.0
C      1  0.5578590000000  0.4502880000000  0.5615400000000 1.0
C      1  0.5146020000000  0.4985620000000  0.3574160000000 1.0
C      1  0.5179570000000  0.5986790000000  0.5223950000000 1.0
C      1  0.4778450000000  0.5625010000000  0.5748400000000 1.0
C      1  0.5457940000000  0.6077240000000  0.4612130000000 1.0
C      1  0.4392930000000  0.5669130000000  0.5118320000000 1.0
C      1  0.4995580000000  0.4250620000000  0.5967600000000 1.0
C      1  0.4314780000000  0.4648650000000  0.4465620000000 1.0
C      1  0.5048140000000  0.5198510000000  0.5104000000000 1.0
C      1  0.4090390000000  0.5268250000000  0.4970470000000 1.0
C      1  0.5196090000000  0.5422850000000  0.5621610000000 1.0
C      1  0.4744110000000  0.4247140000000  0.4178280000000 1.0
C      1  0.5058400000000  0.4618850000000  0.4191210000000 1.0
C      1  0.5485470000000  0.5232130000000  0.5309420000000 1.0
C      1  0.4898550000000  0.5093590000000  0.4478360000000 1.0
C      1  0.4238200000000  0.5266380000000  0.4240200000000 1.0
C      1  0.5225460000000  0.4871080000000  0.4769740000000 1.0
C      1  0.4733690000000  0.5985300000000  0.4610140000000 1.0
C      1  0.4703790000000  0.4530290000000  0.5732780000000 1.0
C      1  0.5050870000000  0.5509390000000  0.5393300000000 1.0
C      1  0.3954290000000  0.4845250000000  0.5250610000000 1.0
C      1  0.5030790000000  0.5498960000000  0.5842070000000 1.0
C      1  0.4367330000000  0.4885780000000  0.5913780000000 1.0
C      1  0.5213990000000  0.4738170000000  0.5338290000000 1.0
C      1  0.5589430000000  0.5101210000000  0.4179310000000 1.0
C      1  0.5140130000000  0.4058280000000  0.4651180000000 1.0
C      1  0.5653330000000  0.4808080000000  0.4225700000000 1.0
C      1  0.5383240000000  0.4406860000000  0.3935190000000 1.0
C      1  0.4690900000000  0.4956340000000  0.4338890000000 1.0
C      1  0.4259970000000  0.5012250000000  0.5679890000000 1.0
C      1  0.6272410000000  0.4611970000000  0.5197020000000 1.0
C      1  0.4284900000000  0.4242150000000  0.5039140000000 1.0
C      1  0.5082580000000  0.4986740000000  0.5297480000000 1.0
C      1  0.5536790000000  0.5730160000000  0.5772740000000 1.0
C      1  0.5926210000000  0.5453400000000  0.4906230000000 1.0
C      1  0.5617170000000  0.5865930000000  0.4696550000000 1.0
C      1  0.5475170000000  0.5918450000000  0.5257870000000 1.0
C      1  0.5180520000000  0.4977540000000  0.3845650000000 1.0
C      1  0.5484700000000  0.4744850000000  0.5245280000000 1.0
C      1  0.4124490000000  0.4375340000000  0.5256840000000 1.0
C      1  0.5125380000000  0.4218810000000  0.5470150000000 1.0
C      1  0.4907570000000  0.6016780000000  0.5371720000000 1.0
C      1  0.5073480000000  0.5315780000000  0.4431670000000 1.0
C      1  0.5469970000000  0.5413080000000  0.5108810000000 1.0
C      1  0.5082610000000  0.4466670000000  0.4998740000000 1.0
END
