TITL C-627106-156-1161 -5747.39733236849 125000 -981.06210712394 0 0 161 (C1) n - 1
REM
REM in /home/nfs/bkarasulu/CARBON/AIRSS/Generating-Clusters/LCBOP/Only-C1/SD-CG/FIRE-CG
REM
REM
REM
REM
REM
REM ./C.cell (11c1c37f851c82e70ff6c80c92926a4b)
REM AIRSS Version 0.9.1 bugfix July 2018 build 013d7b7c2542+ Fri, 06 Jul 2018 19:26:36 +0100
REM compiler GCC version 9.2.1 20190827 (Red Hat 9.2.1-1)
REM options -cpp -mtune=generic -march=x86-64 -g -O0 -fpre-include=/usr/include/finclude/math-vector-fortran.h
REM seed -1285108945 578743932 134446323 1896465710 1133825670 -216699396 -1063896022 -1202505201 1651186371 2094469335 441165621 -1089236659 -1618796535 -325374313 1577436001 -1794708696 1468765779 -568261740 -1542693584 -1045421307 -332445537 399335531 -1912026013 -265214242 887148715 1238162468 289339971 -138578963 -1241004653 -35683698 1554581624 -601106639 -514528437
REM
CELL 1.54180   50.00000   50.00000   50.00000   90.00000   90.00000   90.00000
LATT -1
SFAC C  
C      1  0.4701500000000  0.4089160000000  0.5560670000000 1.0
C      1  0.5135850000000  0.4865680000000  0.4558800000000 1.0
C      1  0.4226090000000  0.5276770000000  0.5291740000000 1.0
C      1  0.3654360000000  0.6898860000000  0.4659440000000 1.0
C      1  0.5350960000000  0.5818060000000  0.4323610000000 1.0
C      1  0.5301480000000  0.4378790000000  0.6069110000000 1.0
C      1  0.5571780000000  0.4529480000000  0.4745020000000 1.0
C      1  0.4804800000000  0.5673320000000  0.5062080000000 1.0
C      1  0.5089620000000  0.4452550000000  0.6556070000000 1.0
C      1  0.5269240000000  0.5407340000000  0.6013080000000 1.0
C      1  0.3100470000000  0.5121690000000  0.4442890000000 1.0
C      1  0.3949360000000  0.4670270000000  0.4494490000000 1.0
C      1  0.5666860000000  0.4463390000000  0.4209000000000 1.0
C      1  0.5104970000000  0.5737250000000  0.4210910000000 1.0
C      1  0.4928590000000  0.3682240000000  0.5429470000000 1.0
C      1  0.5545180000000  0.4637820000000  0.4016750000000 1.0
C      1  0.4348470000000  0.6086430000000  0.4697000000000 1.0
C      1  0.5072740000000  0.4465810000000  0.5110570000000 1.0
C      1  0.5235560000000  0.5032580000000  0.4087030000000 1.0
C      1  0.4626740000000  0.5017330000000  0.6149320000000 1.0
C      1  0.5367190000000  0.4568420000000  0.3808290000000 1.0
C      1  0.5385610000000  0.4842020000000  0.5588990000000 1.0
C      1  0.5882820000000  0.4777180000000  0.5511630000000 1.0
C      1  0.4161400000000  0.4786300000000  0.4352290000000 1.0
C      1  0.4170410000000  0.6300320000000  0.4683460000000 1.0
C      1  0.4657690000000  0.3891850000000  0.4849530000000 1.0
C      1  0.5175530000000  0.5176090000000  0.4560780000000 1.0
C      1  0.5567530000000  0.4788310000000  0.4857790000000 1.0
C      1  0.6108650000000  0.5429490000000  0.4725090000000 1.0
C      1  0.5756870000000  0.5980520000000  0.5028470000000 1.0
C      1  0.5580280000000  0.4391680000000  0.5693080000000 1.0
C      1  0.4330110000000  0.5018060000000  0.5198560000000 1.0
C      1  0.4389740000000  0.4414070000000  0.5200910000000 1.0
C      1  0.5015440000000  0.4946930000000  0.5888480000000 1.0
C      1  0.4456240000000  0.4882650000000  0.3962990000000 1.0
C      1  0.5128990000000  0.5818170000000  0.5473240000000 1.0
C      1  0.4153570000000  0.4573020000000  0.5197120000000 1.0
C      1  0.4357150000000  0.4168310000000  0.5072660000000 1.0
C      1  0.4377570000000  0.4140890000000  0.4336130000000 1.0
C      1  0.4822000000000  0.4268710000000  0.4403180000000 1.0
C      1  0.5374130000000  0.4435930000000  0.4569100000000 1.0
C      1  0.4828700000000  0.5202040000000  0.5489030000000 1.0
C      1  0.4766240000000  0.5540070000000  0.5996550000000 1.0
C      1  0.4993150000000  0.5830440000000  0.4894700000000 1.0
C      1  0.5479810000000  0.5243630000000  0.4600640000000 1.0
C      1  0.4261690000000  0.5366520000000  0.4058580000000 1.0
C      1  0.5281750000000  0.5328370000000  0.5516910000000 1.0
C      1  0.6199720000000  0.5088680000000  0.5320670000000 1.0
C      1  0.4412410000000  0.5007130000000  0.5964850000000 1.0
C      1  0.4487570000000  0.4248930000000  0.5656050000000 1.0
C      1  0.4527130000000  0.5746720000000  0.5107990000000 1.0
C      1  0.4184720000000  0.4812260000000  0.5329210000000 1.0
C      1  0.4871930000000  0.6042440000000  0.4755240000000 1.0
C      1  0.5024350000000  0.5481820000000  0.4186010000000 1.0
C      1  0.5472600000000  0.4297420000000  0.4341230000000 1.0
C      1  0.4195330000000  0.5209460000000  0.5585560000000 1.0
C      1  0.5600000000000  0.4875040000000  0.5116880000000 1.0
C      1  0.4892010000000  0.5095820000000  0.6090190000000 1.0
C      1  0.5500500000000  0.5128710000000  0.5516180000000 1.0
C      1  0.3961100000000  0.4543620000000  0.4994590000000 1.0
C      1  0.5581750000000  0.5733900000000  0.4177320000000 1.0
C      1  0.4733500000000  0.4552110000000  0.5868630000000 1.0
C      1  0.4937940000000  0.4453690000000  0.5704850000000 1.0
C      1  0.5340950000000  0.4231300000000  0.5632010000000 1.0
C      1  0.5590530000000  0.5000760000000  0.4681460000000 1.0
C      1  0.5135980000000  0.4583360000000  0.4570560000000 1.0
C      1  0.4962340000000  0.5645200000000  0.5318550000000 1.0
C      1  0.5888980000000  0.4256980000000  0.5097950000000 1.0
C      1  0.5258990000000  0.5716560000000  0.4854130000000 1.0
C      1  0.4402980000000  0.4018190000000  0.4840860000000 1.0
C      1  0.4768050000000  0.5385220000000  0.4841300000000 1.0
C      1  0.5712810000000  0.5499190000000  0.4258740000000 1.0
C      1  0.6056720000000  0.4841200000000  0.5269280000000 1.0
C      1  0.4521090000000  0.5483270000000  0.5891640000000 1.0
C      1  0.5297840000000  0.4919800000000  0.5889600000000 1.0
C      1  0.3824510000000  0.6701450000000  0.4666440000000 1.0
C      1  0.4195370000000  0.5680410000000  0.4481770000000 1.0
C      1  0.5669420000000  0.5452430000000  0.4538990000000 1.0
C      1  0.4411580000000  0.4398430000000  0.4175830000000 1.0
C      1  0.5446100000000  0.5168890000000  0.5970080000000 1.0
C      1  0.5775990000000  0.5009230000000  0.4218130000000 1.0
C      1  0.5669380000000  0.5164420000000  0.5772960000000 1.0
C      1  0.4251250000000  0.5817050000000  0.4722560000000 1.0
C      1  0.4894120000000  0.4005130000000  0.4918000000000 1.0
C      1  0.5199000000000  0.4405950000000  0.6324190000000 1.0
C      1  0.4313760000000  0.4772280000000  0.5808270000000 1.0
C      1  0.5616750000000  0.5378650000000  0.5118950000000 1.0
C      1  0.4157700000000  0.4901680000000  0.5597690000000 1.0
C      1  0.4283520000000  0.5687020000000  0.4980010000000 1.0
C      1  0.5842300000000  0.4450620000000  0.4668330000000 1.0
C      1  0.4739230000000  0.4731220000000  0.4269920000000 1.0
C      1  0.4944220000000  0.4529700000000  0.5394640000000 1.0
C      1  0.5367180000000  0.5815340000000  0.4608150000000 1.0
C      1  0.5872650000000  0.5581680000000  0.4695760000000 1.0
C      1  0.4267380000000  0.4076550000000  0.4593750000000 1.0
C      1  0.5342160000000  0.5653000000000  0.5883820000000 1.0
C      1  0.4606050000000  0.4805660000000  0.4511320000000 1.0
C      1  0.5621570000000  0.4642030000000  0.5559730000000 1.0
C      1  0.4981860000000  0.5370110000000  0.6077350000000 1.0
C      1  0.5892720000000  0.4984370000000  0.5728710000000 1.0
C      1  0.5366410000000  0.5796800000000  0.5637030000000 1.0
C      1  0.5112640000000  0.4819410000000  0.5436510000000 1.0
C      1  0.5022560000000  0.4743180000000  0.5002360000000 1.0
C      1  0.5664690000000  0.5985370000000  0.5281240000000 1.0
C      1  0.5153450000000  0.4325940000000  0.5827390000000 1.0
C      1  0.5834760000000  0.5276440000000  0.4140270000000 1.0
C      1  0.3889210000000  0.4581760000000  0.4740010000000 1.0
C      1  0.4982080000000  0.4273250000000  0.4910530000000 1.0
C      1  0.6179730000000  0.5171900000000  0.4735600000000 1.0
C      1  0.4320260000000  0.5165980000000  0.4679340000000 1.0
C      1  0.5677990000000  0.4097360000000  0.5157420000000 1.0
C      1  0.5235690000000  0.4058060000000  0.5435340000000 1.0
C      1  0.4354910000000  0.5262810000000  0.5824090000000 1.0
C      1  0.5935340000000  0.4839140000000  0.4411850000000 1.0
C      1  0.5137140000000  0.4948940000000  0.5157110000000 1.0
C      1  0.4556510000000  0.5001730000000  0.5035130000000 1.0
C      1  0.3826190000000  0.5242090000000  0.4731070000000 1.0
C      1  0.4710550000000  0.4748230000000  0.4999550000000 1.0
C      1  0.4955480000000  0.3956520000000  0.5472650000000 1.0
C      1  0.5984160000000  0.4458010000000  0.4919050000000 1.0
C      1  0.5035190000000  0.5364230000000  0.5348880000000 1.0
C      1  0.6065010000000  0.5528790000000  0.5575890000000 1.0
C      1  0.5839650000000  0.5835860000000  0.4816830000000 1.0
C      1  0.6191810000000  0.5323310000000  0.5454970000000 1.0
C      1  0.5859580000000  0.5699310000000  0.5615510000000 1.0
C      1  0.4158290000000  0.5437270000000  0.5052450000000 1.0
C      1  0.5517660000000  0.4912200000000  0.4108010000000 1.0
C      1  0.5629670000000  0.5842870000000  0.5524640000000 1.0
C      1  0.5134370000000  0.5236510000000  0.4265990000000 1.0
C      1  0.4627030000000  0.6127100000000  0.4688250000000 1.0
C      1  0.4557250000000  0.5208000000000  0.4837010000000 1.0
C      1  0.6080450000000  0.4910810000000  0.4720080000000 1.0
C      1  0.4657590000000  0.4039180000000  0.4358490000000 1.0
C      1  0.4214720000000  0.5545840000000  0.4251430000000 1.0
C      1  0.4895510000000  0.4419110000000  0.4655330000000 1.0
C      1  0.4089240000000  0.5277160000000  0.4813540000000 1.0
C      1  0.5008570000000  0.5271980000000  0.4801470000000 1.0
C      1  0.5581150000000  0.4401420000000  0.5988970000000 1.0
C      1  0.5402870000000  0.4046600000000  0.4264240000000 1.0
C      1  0.5143450000000  0.5250090000000  0.5075370000000 1.0
C      1  0.5609390000000  0.5123770000000  0.5244680000000 1.0
C      1  0.3579720000000  0.5213960000000  0.4638360000000 1.0
C      1  0.4702110000000  0.4455940000000  0.4218790000000 1.0
C      1  0.5850620000000  0.5511750000000  0.5142920000000 1.0
C      1  0.5365590000000  0.5476660000000  0.5017520000000 1.0
C      1  0.6066030000000  0.4735060000000  0.4980890000000 1.0
C      1  0.3337750000000  0.5169100000000  0.4539910000000 1.0
C      1  0.4349260000000  0.4939940000000  0.4506910000000 1.0
C      1  0.4675240000000  0.4629920000000  0.4726320000000 1.0
C      1  0.4640050000000  0.4559490000000  0.5251980000000 1.0
C      1  0.5022350000000  0.4897830000000  0.3927380000000 1.0
C      1  0.4462100000000  0.4517590000000  0.5788060000000 1.0
C      1  0.4337530000000  0.5139810000000  0.3937380000000 1.0
C      1  0.4748120000000  0.4877350000000  0.4025810000000 1.0
C      1  0.4292420000000  0.4668870000000  0.4116790000000 1.0
C      1  0.5431330000000  0.4011940000000  0.5231980000000 1.0
C      1  0.4920920000000  0.4968760000000  0.5618400000000 1.0
C      1  0.5798840000000  0.4424540000000  0.6149310000000 1.0
C      1  0.3997590000000  0.6500830000000  0.4674120000000 1.0
C      1  0.5873610000000  0.4556520000000  0.4398590000000 1.0
C      1  0.5130110000000  0.4692940000000  0.3760890000000 1.0
END
