TITL C-627107-135-378 0.199318260483459 125000 -516.473002797024 0 0 87 (C1) n - 1
REM
REM in /home/nfs/bkarasulu/CARBON/AIRSS/Generating-Clusters/LCBOP/Only-C1/SD-CG/FIRE-CG
REM
REM
REM
REM
REM
REM ./C.cell (11c1c37f851c82e70ff6c80c92926a4b)
REM AIRSS Version 0.9.1 bugfix July 2018 build 013d7b7c2542+ Fri, 06 Jul 2018 19:26:36 +0100
REM compiler GCC version 9.2.1 20190827 (Red Hat 9.2.1-1)
REM options -cpp -mtune=generic -march=x86-64 -g -O0 -fpre-include=/usr/include/finclude/math-vector-fortran.h
REM seed 961594687 -149288562 -612315366 1359966897 -1862620626 -2006745204 1615018732 586711549 2038778460 -2076372295 -1269949195 1826231325 2103184143 -1550927113 1295978106 -510803687 497570001 1473807594 -1191005709 105780046 -904441257 -1581256830 -1231378093 -984272089 751979918 -1130174233 -1541558300 1486878972 1499193206 -1562919278 -87734555 43789224 862045317
REM
CELL 1.54180   50.00000   50.00000   50.00000   90.00000   90.00000   90.00000
LATT -1
SFAC C  
C      1  0.5100760000000  0.4109460000000  0.4923450000000 1.0
C      1  0.5367730000000  0.5903130000000  0.5040700000000 1.0
C      1  0.4941160000000  0.5520240000000  0.4141670000000 1.0
C      1  0.5275000000000  0.6046220000000  0.4832920000000 1.0
C      1  0.5588460000000  0.5674410000000  0.4486740000000 1.0
C      1  0.5353920000000  0.5655200000000  0.6829680000000 1.0
C      1  0.4672570000000  0.5175000000000  0.4352870000000 1.0
C      1  0.4897940000000  0.5111400000000  0.5580790000000 1.0
C      1  0.4895700000000  0.4950200000000  0.6050320000000 1.0
C      1  0.5844080000000  0.5087910000000  0.4807510000000 1.0
C      1  0.3971490000000  0.5158930000000  0.4124410000000 1.0
C      1  0.4693380000000  0.4545150000000  0.4843260000000 1.0
C      1  0.5531870000000  0.4351950000000  0.4791470000000 1.0
C      1  0.4223410000000  0.4880470000000  0.5187130000000 1.0
C      1  0.4970840000000  0.4865760000000  0.5502650000000 1.0
C      1  0.4408440000000  0.4392110000000  0.5150940000000 1.0
C      1  0.4469670000000  0.5235650000000  0.4997630000000 1.0
C      1  0.5171010000000  0.4731390000000  0.4691780000000 1.0
C      1  0.5801500000000  0.5380810000000  0.4882620000000 1.0
C      1  0.4350140000000  0.5138260000000  0.5247540000000 1.0
C      1  0.5790100000000  0.4825350000000  0.4715510000000 1.0
C      1  0.4130980000000  0.4927340000000  0.4908470000000 1.0
C      1  0.5317940000000  0.5753760000000  0.4433570000000 1.0
C      1  0.4270420000000  0.4569120000000  0.4650330000000 1.0
C      1  0.5511120000000  0.5123810000000  0.4405630000000 1.0
C      1  0.5614430000000  0.4594110000000  0.4624170000000 1.0
C      1  0.4926560000000  0.4893610000000  0.4660580000000 1.0
C      1  0.5608310000000  0.5516480000000  0.5681710000000 1.0
C      1  0.5690450000000  0.4847660000000  0.5218160000000 1.0
C      1  0.4848120000000  0.4964520000000  0.4947680000000 1.0
C      1  0.5256730000000  0.4982710000000  0.4029400000000 1.0
C      1  0.5115270000000  0.5328780000000  0.4534730000000 1.0
C      1  0.5237970000000  0.5986780000000  0.4572580000000 1.0
C      1  0.5361370000000  0.5214800000000  0.4633710000000 1.0
C      1  0.5388900000000  0.3937830000000  0.4557430000000 1.0
C      1  0.4434530000000  0.5249370000000  0.5488650000000 1.0
C      1  0.4047240000000  0.4711200000000  0.4748180000000 1.0
C      1  0.5282380000000  0.5340580000000  0.6090800000000 1.0
C      1  0.5359400000000  0.5189170000000  0.4924380000000 1.0
C      1  0.4322840000000  0.4499240000000  0.6042120000000 1.0
C      1  0.5918910000000  0.4958060000000  0.5344800000000 1.0
C      1  0.4898300000000  0.5149490000000  0.4528230000000 1.0
C      1  0.4042540000000  0.4214620000000  0.6383760000000 1.0
C      1  0.5685590000000  0.5508860000000  0.5137890000000 1.0
C      1  0.4875840000000  0.4125570000000  0.5081220000000 1.0
C      1  0.5929390000000  0.5208920000000  0.5450230000000 1.0
C      1  0.5308150000000  0.5450750000000  0.6347600000000 1.0
C      1  0.5441310000000  0.5453750000000  0.5885000000000 1.0
C      1  0.5455360000000  0.5189190000000  0.5391820000000 1.0
C      1  0.4946380000000  0.5423210000000  0.5051700000000 1.0
C      1  0.4984460000000  0.5060060000000  0.3991680000000 1.0
C      1  0.4455810000000  0.4743590000000  0.4492280000000 1.0
C      1  0.5226930000000  0.5432990000000  0.5031100000000 1.0
C      1  0.5627790000000  0.4576800000000  0.5221980000000 1.0
C      1  0.5691140000000  0.5387390000000  0.5426060000000 1.0
C      1  0.3761260000000  0.5201590000000  0.3968730000000 1.0
C      1  0.5228090000000  0.4635170000000  0.4953420000000 1.0
C      1  0.4405610000000  0.5052200000000  0.4465190000000 1.0
C      1  0.5608170000000  0.5257180000000  0.4167130000000 1.0
C      1  0.5422370000000  0.5633670000000  0.5091250000000 1.0
C      1  0.5463000000000  0.5173580000000  0.3945700000000 1.0
C      1  0.4423570000000  0.4443240000000  0.4865360000000 1.0
C      1  0.4809590000000  0.5261360000000  0.4105530000000 1.0
C      1  0.5369670000000  0.4690600000000  0.4492960000000 1.0
C      1  0.5099530000000  0.5125840000000  0.6059970000000 1.0
C      1  0.4689860000000  0.4800680000000  0.5962040000000 1.0
C      1  0.5341420000000  0.4129860000000  0.4754820000000 1.0
C      1  0.3554400000000  0.5243470000000  0.3815680000000 1.0
C      1  0.4636570000000  0.4205600000000  0.5196720000000 1.0
C      1  0.5373560000000  0.4882800000000  0.4286700000000 1.0
C      1  0.4392290000000  0.4639040000000  0.5586750000000 1.0
C      1  0.4893750000000  0.4679590000000  0.5325960000000 1.0
C      1  0.4720150000000  0.4685830000000  0.4590580000000 1.0
C      1  0.5331320000000  0.5553890000000  0.6590540000000 1.0
C      1  0.5765710000000  0.5555320000000  0.4652820000000 1.0
C      1  0.4676660000000  0.5260840000000  0.5603340000000 1.0
C      1  0.4472160000000  0.4650300000000  0.5858790000000 1.0
C      1  0.4320310000000  0.5122030000000  0.4769890000000 1.0
C      1  0.4797270000000  0.4705680000000  0.5065530000000 1.0
C      1  0.5475420000000  0.5036300000000  0.5147090000000 1.0
C      1  0.5447040000000  0.4477750000000  0.5039440000000 1.0
C      1  0.5434090000000  0.3762870000000  0.4369660000000 1.0
C      1  0.4319140000000  0.4627230000000  0.5310680000000 1.0
C      1  0.4180060000000  0.5114560000000  0.4281250000000 1.0
C      1  0.4181550000000  0.4355780000000  0.6214310000000 1.0
C      1  0.4752660000000  0.5225570000000  0.5000990000000 1.0
C      1  0.5121680000000  0.5557480000000  0.4361970000000 1.0
END
