TITL C-627106-156-1283 -2.81016103956938e-08 125000 -132.039873429408 0 0 23 (C1) n - 1
REM
REM in /home/nfs/bkarasulu/CARBON/AIRSS/Generating-Clusters/LCBOP/Only-C1/SD-CG/FIRE-CG
REM
REM
REM
REM
REM
REM ./C.cell (11c1c37f851c82e70ff6c80c92926a4b)
REM AIRSS Version 0.9.1 bugfix July 2018 build 013d7b7c2542+ Fri, 06 Jul 2018 19:26:36 +0100
REM compiler GCC version 9.2.1 20190827 (Red Hat 9.2.1-1)
REM options -cpp -mtune=generic -march=x86-64 -g -O0 -fpre-include=/usr/include/finclude/math-vector-fortran.h
REM seed -625046221 -1196327377 1350688002 552954884 249706287 1355229481 -852143765 171161775 -792453994 -1559908812 -1102294127 -816476652 -2084443294 -753738300 1243110850 -1702031634 -37835651 1560455370 -1849428604 -850490579 1974893211 -40053720 506653792 -286489756 -196077748 1480852874 649378952 -1264783100 -2077198646 -509078022 2027031048 1485675133 2008602096
REM
CELL 1.54180   50.00000   50.00000   50.00000   90.00000   90.00000   90.00000
LATT -1
SFAC C  
C      1  0.5424070000000  0.4692610000000  0.5549930000000 1.0
C      1  0.4660460000000  0.5655850000000  0.4565700000000 1.0
C      1  0.4491340000000  0.5839780000000  0.4454480000000 1.0
C      1  0.4738220000000  0.5006370000000  0.4719570000000 1.0
C      1  0.4793870000000  0.5710020000000  0.4805390000000 1.0
C      1  0.4855110000000  0.5384760000000  0.4214110000000 1.0
C      1  0.4702240000000  0.5403810000000  0.4440390000000 1.0
C      1  0.4322370000000  0.5110980000000  0.4502540000000 1.0
C      1  0.4997590000000  0.4655200000000  0.5044080000000 1.0
C      1  0.5549270000000  0.4197990000000  0.5121770000000 1.0
C      1  0.5142100000000  0.4437180000000  0.4943130000000 1.0
C      1  0.4989600000000  0.4697890000000  0.5326140000000 1.0
C      1  0.4924350000000  0.5677530000000  0.5033770000000 1.0
C      1  0.5203720000000  0.4836630000000  0.5454090000000 1.0
C      1  0.5196380000000  0.5115410000000  0.5465960000000 1.0
C      1  0.5045370000000  0.5558620000000  0.5237550000000 1.0
C      1  0.5653910000000  0.4291560000000  0.5350030000000 1.0
C      1  0.4778000000000  0.4605540000000  0.5473450000000 1.0
C      1  0.4584120000000  0.5171570000000  0.4554590000000 1.0
C      1  0.4866970000000  0.4832280000000  0.4872220000000 1.0
C      1  0.5343110000000  0.4263310000000  0.4964300000000 1.0
C      1  0.5597090000000  0.4492160000000  0.5517780000000 1.0
C      1  0.5140770000000  0.5362960000000  0.5389040000000 1.0
END
