TITL C-627110-360-1534 11.9588768279423 125000 -1036.04218939418 0 0 169 (C1) n - 1
REM
REM in /home/nfs/bkarasulu/CARBON/AIRSS/Generating-Clusters/LCBOP/Only-C1/SD-CG/FIRE-CG
REM
REM
REM
REM
REM
REM ./C.cell (11c1c37f851c82e70ff6c80c92926a4b)
REM AIRSS Version 0.9.1 bugfix July 2018 build 013d7b7c2542+ Fri, 06 Jul 2018 19:26:36 +0100
REM compiler GCC version 9.2.1 20190827 (Red Hat 9.2.1-1)
REM options -cpp -mtune=generic -march=x86-64 -g -O0 -fpre-include=/usr/include/finclude/math-vector-fortran.h
REM seed 810767288 1138197952 1534514040 -714370561 -115169660 -1302559664 -964692174 320682798 1335579326 1876523933 -1034368642 -1190774696 -1787619261 -1277999833 -831808247 -669135744 201161016 -1446371342 847703070 1016227154 -1328706052 -450598608 2018691922 -1146296287 2114253915 670823807 1916643874 -370723584 -1848409375 2144328719 -851465143 863630012 -2121089062
REM
CELL 1.54180   50.00000   50.00000   50.00000   90.00000   90.00000   90.00000
LATT -1
SFAC C  
C      1  0.5491580000000  0.5162560000000  0.6134140000000 1.0
C      1  0.6194870000000  0.4832200000000  0.5172400000000 1.0
C      1  0.4971750000000  0.5240700000000  0.4457870000000 1.0
C      1  0.4357280000000  0.4736830000000  0.5293680000000 1.0
C      1  0.4991190000000  0.4948970000000  0.5950760000000 1.0
C      1  0.5437650000000  0.5100400000000  0.4485220000000 1.0
C      1  0.5494580000000  0.4633310000000  0.4373260000000 1.0
C      1  0.4795380000000  0.5083670000000  0.4598820000000 1.0
C      1  0.5203500000000  0.5756160000000  0.4621630000000 1.0
C      1  0.5527150000000  0.4133960000000  0.5032840000000 1.0
C      1  0.4677650000000  0.3814870000000  0.5453440000000 1.0
C      1  0.4790930000000  0.4076580000000  0.4289570000000 1.0
C      1  0.5132270000000  0.4513020000000  0.4832270000000 1.0
C      1  0.5058650000000  0.4035500000000  0.4208460000000 1.0
C      1  0.4793070000000  0.5528850000000  0.5558580000000 1.0
C      1  0.6014090000000  0.5040030000000  0.4198780000000 1.0
C      1  0.3836160000000  0.3832720000000  0.4405020000000 1.0
C      1  0.4925120000000  0.4485590000000  0.5024490000000 1.0
C      1  0.4569800000000  0.4724350000000  0.4768140000000 1.0
C      1  0.5781250000000  0.6767720000000  0.5420660000000 1.0
C      1  0.5770490000000  0.4519470000000  0.5303480000000 1.0
C      1  0.4836950000000  0.5852430000000  0.5930750000000 1.0
C      1  0.4123570000000  0.5642540000000  0.4686730000000 1.0
C      1  0.5695940000000  0.4803870000000  0.4967790000000 1.0
C      1  0.4743970000000  0.5600840000000  0.4770400000000 1.0
C      1  0.6170920000000  0.5082510000000  0.5322420000000 1.0
C      1  0.5376040000000  0.5544900000000  0.5789000000000 1.0
C      1  0.6197380000000  0.5043790000000  0.4698710000000 1.0
C      1  0.5389770000000  0.4507170000000  0.5780450000000 1.0
C      1  0.5600160000000  0.5678810000000  0.4304950000000 1.0
C      1  0.5140540000000  0.4465910000000  0.5935110000000 1.0
C      1  0.5743120000000  0.5160390000000  0.5586530000000 1.0
C      1  0.5243670000000  0.5721590000000  0.5322880000000 1.0
C      1  0.6011510000000  0.5063810000000  0.5563710000000 1.0
C      1  0.4045920000000  0.4591610000000  0.5668430000000 1.0
C      1  0.5628320000000  0.5549380000000  0.4774230000000 1.0
C      1  0.4811650000000  0.3627930000000  0.5017770000000 1.0
C      1  0.4822120000000  0.5478320000000  0.5280510000000 1.0
C      1  0.4582430000000  0.4312940000000  0.5289300000000 1.0
C      1  0.4297700000000  0.5839610000000  0.4811500000000 1.0
C      1  0.4649700000000  0.5542370000000  0.4231020000000 1.0
C      1  0.4313240000000  0.4752440000000  0.4644710000000 1.0
C      1  0.5082650000000  0.5853140000000  0.4380440000000 1.0
C      1  0.5016360000000  0.4327480000000  0.5521180000000 1.0
C      1  0.5767900000000  0.4587950000000  0.4293510000000 1.0
C      1  0.5323530000000  0.4122870000000  0.5242550000000 1.0
C      1  0.5139070000000  0.5998840000000  0.5328990000000 1.0
C      1  0.5268180000000  0.4769340000000  0.4803040000000 1.0
C      1  0.4444480000000  0.4175460000000  0.5774090000000 1.0
C      1  0.4691810000000  0.4352220000000  0.4328690000000 1.0
C      1  0.6244100000000  0.4557240000000  0.4745960000000 1.0
C      1  0.5125760000000  0.6277010000000  0.5989760000000 1.0
C      1  0.4428390000000  0.5994610000000  0.5562360000000 1.0
C      1  0.4507020000000  0.3934000000000  0.5628990000000 1.0
C      1  0.5740120000000  0.4543040000000  0.4861690000000 1.0
C      1  0.5412310000000  0.5420290000000  0.3934940000000 1.0
C      1  0.5438140000000  0.5575200000000  0.5507810000000 1.0
C      1  0.5404110000000  0.6407610000000  0.5572710000000 1.0
C      1  0.5220210000000  0.5246380000000  0.4589280000000 1.0
C      1  0.4855220000000  0.6048300000000  0.5262850000000 1.0
C      1  0.5070470000000  0.5010490000000  0.3914540000000 1.0
C      1  0.3854780000000  0.5016920000000  0.5847610000000 1.0
C      1  0.4630610000000  0.5319530000000  0.4833670000000 1.0
C      1  0.5819560000000  0.5045880000000  0.4965780000000 1.0
C      1  0.4387460000000  0.4231860000000  0.5095570000000 1.0
C      1  0.6212350000000  0.5053210000000  0.4411460000000 1.0
C      1  0.4741420000000  0.4710230000000  0.5001870000000 1.0
C      1  0.4988360000000  0.4725240000000  0.3903320000000 1.0
C      1  0.4768590000000  0.5391980000000  0.6025260000000 1.0
C      1  0.5648200000000  0.5472140000000  0.4094410000000 1.0
C      1  0.5113910000000  0.5806520000000  0.4115690000000 1.0
C      1  0.5153160000000  0.4227200000000  0.4016540000000 1.0
C      1  0.5296010000000  0.6406510000000  0.5831300000000 1.0
C      1  0.4853300000000  0.5189700000000  0.3985310000000 1.0
C      1  0.4699740000000  0.4685580000000  0.3908530000000 1.0
C      1  0.4207430000000  0.5854360000000  0.5499990000000 1.0
C      1  0.4030800000000  0.5167070000000  0.5994190000000 1.0
C      1  0.4261200000000  0.4384460000000  0.5655930000000 1.0
C      1  0.4090070000000  0.5276720000000  0.5277450000000 1.0
C      1  0.5459970000000  0.5422220000000  0.4965410000000 1.0
C      1  0.4092370000000  0.5781240000000  0.5254700000000 1.0
C      1  0.4788010000000  0.5594950000000  0.5833370000000 1.0
C      1  0.4471430000000  0.4525670000000  0.5477470000000 1.0
C      1  0.5916480000000  0.5506420000000  0.5300120000000 1.0
C      1  0.5423860000000  0.5393330000000  0.6008850000000 1.0
C      1  0.4175780000000  0.4388990000000  0.5024390000000 1.0
C      1  0.4867860000000  0.4545170000000  0.4441250000000 1.0
C      1  0.4359360000000  0.5229610000000  0.4773650000000 1.0
C      1  0.6099260000000  0.4385940000000  0.4593560000000 1.0
C      1  0.5411290000000  0.4832330000000  0.4553020000000 1.0
C      1  0.4954090000000  0.4270810000000  0.5796420000000 1.0
C      1  0.4950840000000  0.4676410000000  0.6013780000000 1.0
C      1  0.5489510000000  0.5705120000000  0.4577200000000 1.0
C      1  0.5080770000000  0.5007930000000  0.5688100000000 1.0
C      1  0.5686310000000  0.5218910000000  0.4450240000000 1.0
C      1  0.3944390000000  0.5022110000000  0.5355770000000 1.0
C      1  0.5314470000000  0.5155200000000  0.3880590000000 1.0
C      1  0.5538770000000  0.4752810000000  0.5851870000000 1.0
C      1  0.5596920000000  0.4226230000000  0.4547980000000 1.0
C      1  0.4593850000000  0.5129220000000  0.3887870000000 1.0
C      1  0.5509280000000  0.4040400000000  0.4753760000000 1.0
C      1  0.4001510000000  0.5523230000000  0.5158760000000 1.0
C      1  0.6047130000000  0.4613440000000  0.5304930000000 1.0
C      1  0.5033300000000  0.4030870000000  0.5184490000000 1.0
C      1  0.5721550000000  0.4339960000000  0.5070900000000 1.0
C      1  0.3949400000000  0.4873300000000  0.5618940000000 1.0
C      1  0.4870200000000  0.5155630000000  0.6093940000000 1.0
C      1  0.4387660000000  0.5582340000000  0.4273780000000 1.0
C      1  0.4378030000000  0.5234700000000  0.5266270000000 1.0
C      1  0.4593290000000  0.4708380000000  0.5704950000000 1.0
C      1  0.5337430000000  0.3852120000000  0.4625240000000 1.0
C      1  0.4667150000000  0.6078970000000  0.5473170000000 1.0
C      1  0.4729160000000  0.6017040000000  0.5005270000000 1.0
C      1  0.3927390000000  0.5529170000000  0.4875560000000 1.0
C      1  0.4223310000000  0.5205200000000  0.4525530000000 1.0
C      1  0.5299980000000  0.4986070000000  0.5520000000000 1.0
C      1  0.4235400000000  0.4935670000000  0.4432540000000 1.0
C      1  0.4635620000000  0.3673300000000  0.4534220000000 1.0
C      1  0.6140390000000  0.5357500000000  0.5239600000000 1.0
C      1  0.5813100000000  0.5367030000000  0.4656890000000 1.0
C      1  0.4297050000000  0.4867550000000  0.4164570000000 1.0
C      1  0.6254480000000  0.4812930000000  0.4876490000000 1.0
C      1  0.5580220000000  0.4743100000000  0.5226960000000 1.0
C      1  0.5981880000000  0.5200050000000  0.4802530000000 1.0
C      1  0.4439740000000  0.4993380000000  0.5384770000000 1.0
C      1  0.5309170000000  0.4319170000000  0.5488040000000 1.0
C      1  0.5366670000000  0.4385460000000  0.4444280000000 1.0
C      1  0.5806870000000  0.5248130000000  0.4193050000000 1.0
C      1  0.5306800000000  0.6212320000000  0.5396930000000 1.0
C      1  0.5257960000000  0.5240200000000  0.4882030000000 1.0
C      1  0.5687740000000  0.5422080000000  0.5452660000000 1.0
C      1  0.5546790000000  0.4969350000000  0.5658080000000 1.0
C      1  0.4893040000000  0.4943160000000  0.5074080000000 1.0
C      1  0.4765050000000  0.4798150000000  0.4558060000000 1.0
C      1  0.5028050000000  0.5648000000000  0.4842160000000 1.0
C      1  0.5137310000000  0.4483010000000  0.3925330000000 1.0
C      1  0.5597260000000  0.6592130000000  0.5494930000000 1.0
C      1  0.4584930000000  0.5835120000000  0.4830840000000 1.0
C      1  0.4722880000000  0.3585510000000  0.4770210000000 1.0
C      1  0.4682800000000  0.4296580000000  0.5896080000000 1.0
C      1  0.4564620000000  0.4974950000000  0.5633290000000 1.0
C      1  0.5540870000000  0.4894850000000  0.6103780000000 1.0
C      1  0.4492100000000  0.4874140000000  0.3960890000000 1.0
C      1  0.5962290000000  0.6940490000000  0.5347590000000 1.0
C      1  0.4957140000000  0.6073230000000  0.6015560000000 1.0
C      1  0.4860450000000  0.3803670000000  0.5230410000000 1.0
C      1  0.3454440000000  0.5332240000000  0.4707900000000 1.0
C      1  0.4167450000000  0.5953500000000  0.5038300000000 1.0
C      1  0.4194070000000  0.5484960000000  0.4453810000000 1.0
C      1  0.3678780000000  0.5436650000000  0.4789560000000 1.0
C      1  0.4858570000000  0.5350740000000  0.4219630000000 1.0
C      1  0.4405930000000  0.4314150000000  0.4341820000000 1.0
C      1  0.5213080000000  0.3871710000000  0.4383470000000 1.0
C      1  0.4075980000000  0.3931910000000  0.4381380000000 1.0
C      1  0.4143080000000  0.4652920000000  0.5121180000000 1.0
C      1  0.3926410000000  0.4832470000000  0.5137750000000 1.0
C      1  0.5851490000000  0.4355140000000  0.4457320000000 1.0
C      1  0.5339420000000  0.4892530000000  0.5262010000000 1.0
C      1  0.5186940000000  0.4978220000000  0.5018040000000 1.0
C      1  0.4583720000000  0.3891220000000  0.4368820000000 1.0
C      1  0.5228470000000  0.5639220000000  0.3936990000000 1.0
C      1  0.4330880000000  0.4036230000000  0.4364920000000 1.0
C      1  0.3589870000000  0.5002030000000  0.5915340000000 1.0
C      1  0.5107830000000  0.4427740000000  0.4560780000000 1.0
C      1  0.5919790000000  0.4775260000000  0.4151130000000 1.0
C      1  0.4609220000000  0.5348860000000  0.5139120000000 1.0
C      1  0.4683030000000  0.4584010000000  0.5940070000000 1.0
C      1  0.4879960000000  0.4291310000000  0.5255240000000 1.0
C      1  0.5055760000000  0.5588100000000  0.5139840000000 1.0
END
