TITL C-627106-156-86 10.9160139819594 125000 -1097.25260038076 0 0 178 (C1) n - 1
REM
REM in /home/nfs/bkarasulu/CARBON/AIRSS/Generating-Clusters/LCBOP/Only-C1/SD-CG/FIRE-CG
REM
REM
REM
REM
REM
REM ./C.cell (11c1c37f851c82e70ff6c80c92926a4b)
REM AIRSS Version 0.9.1 bugfix July 2018 build 013d7b7c2542+ Fri, 06 Jul 2018 19:26:36 +0100
REM compiler GCC version 9.2.1 20190827 (Red Hat 9.2.1-1)
REM options -cpp -mtune=generic -march=x86-64 -g -O0 -fpre-include=/usr/include/finclude/math-vector-fortran.h
REM seed -85878548 229849326 -713393282 815819294 -1977191586 7428731 -246248052 -674277026 -1988585207 1145379195 1062636635 -1147482569 1026086388 1133505664 -1113505662 1762960332 -253135601 742838598 -1772784535 544294912 -1162984142 -546968467 2035623152 1674871555 -1609379914 -1758097636 588963052 -1405757660 621157170 -1318907432 962839881 -269894260 -1547509594
REM
CELL 1.54180   50.00000   50.00000   50.00000   90.00000   90.00000   90.00000
LATT -1
SFAC C  
C      1  0.5667660000000  0.4976440000000  0.5440470000000 1.0
C      1  0.3987220000000  0.4873640000000  0.5868420000000 1.0
C      1  0.4681410000000  0.5624930000000  0.4199160000000 1.0
C      1  0.4374670000000  0.4955540000000  0.4987840000000 1.0
C      1  0.6036630000000  0.4616900000000  0.4469640000000 1.0
C      1  0.4488840000000  0.4335290000000  0.4054060000000 1.0
C      1  0.4965990000000  0.4375330000000  0.3936590000000 1.0
C      1  0.6150870000000  0.4180100000000  0.5145150000000 1.0
C      1  0.6404470000000  0.4009030000000  0.5994760000000 1.0
C      1  0.5047810000000  0.3969660000000  0.5355040000000 1.0
C      1  0.5390290000000  0.4431110000000  0.5446910000000 1.0
C      1  0.4622180000000  0.4584580000000  0.5631830000000 1.0
C      1  0.5329310000000  0.6156360000000  0.5237680000000 1.0
C      1  0.4536280000000  0.5173870000000  0.5065690000000 1.0
C      1  0.4966840000000  0.5335630000000  0.6483360000000 1.0
C      1  0.4690660000000  0.4494190000000  0.3932520000000 1.0
C      1  0.6184450000000  0.4873540000000  0.4500070000000 1.0
C      1  0.5022660000000  0.4362360000000  0.5753950000000 1.0
C      1  0.6128350000000  0.5216840000000  0.4956470000000 1.0
C      1  0.5055860000000  0.6225110000000  0.4541200000000 1.0
C      1  0.4508650000000  0.5308630000000  0.5545380000000 1.0
C      1  0.4045230000000  0.5502420000000  0.4278460000000 1.0
C      1  0.5069060000000  0.4940530000000  0.4987480000000 1.0
C      1  0.5252390000000  0.5020170000000  0.5191470000000 1.0
C      1  0.4222220000000  0.5298940000000  0.5450520000000 1.0
C      1  0.5004180000000  0.4142020000000  0.4101980000000 1.0
C      1  0.5172930000000  0.4941950000000  0.4315100000000 1.0
C      1  0.5628760000000  0.4816940000000  0.5672320000000 1.0
C      1  0.3788130000000  0.5426300000000  0.4334150000000 1.0
C      1  0.4622090000000  0.3878260000000  0.4732480000000 1.0
C      1  0.4601530000000  0.6013450000000  0.4542240000000 1.0
C      1  0.5077410000000  0.5711750000000  0.4980340000000 1.0
C      1  0.5055140000000  0.5269540000000  0.6232490000000 1.0
C      1  0.5000930000000  0.6261840000000  0.4264910000000 1.0
C      1  0.4991420000000  0.4504380000000  0.4769110000000 1.0
C      1  0.5095810000000  0.4786870000000  0.6194530000000 1.0
C      1  0.5293570000000  0.4608520000000  0.6238720000000 1.0
C      1  0.4414450000000  0.4884030000000  0.4718920000000 1.0
C      1  0.5314230000000  0.5806660000000  0.4111440000000 1.0
C      1  0.5719140000000  0.4125720000000  0.5281250000000 1.0
C      1  0.5120480000000  0.6037720000000  0.5645310000000 1.0
C      1  0.5835200000000  0.4167410000000  0.4436650000000 1.0
C      1  0.4963870000000  0.5023470000000  0.6105770000000 1.0
C      1  0.4050550000000  0.5668020000000  0.4716450000000 1.0
C      1  0.5063170000000  0.5370120000000  0.4775440000000 1.0
C      1  0.4153470000000  0.4835040000000  0.5654920000000 1.0
C      1  0.5527160000000  0.5782950000000  0.5621230000000 1.0
C      1  0.5398010000000  0.4581460000000  0.4085820000000 1.0
C      1  0.5270600000000  0.3861810000000  0.4843950000000 1.0
C      1  0.4974970000000  0.4041840000000  0.6183010000000 1.0
C      1  0.6112510000000  0.5108960000000  0.4680350000000 1.0
C      1  0.5119340000000  0.5627590000000  0.5899650000000 1.0
C      1  0.3782220000000  0.4702090000000  0.4923640000000 1.0
C      1  0.5638650000000  0.4288880000000  0.5999980000000 1.0
C      1  0.5883110000000  0.5231170000000  0.4536820000000 1.0
C      1  0.5482590000000  0.5734000000000  0.4306250000000 1.0
C      1  0.5424170000000  0.4665110000000  0.4580400000000 1.0
C      1  0.5754650000000  0.5929870000000  0.5194290000000 1.0
C      1  0.5080010000000  0.3811600000000  0.4644610000000 1.0
C      1  0.5899260000000  0.5345560000000  0.5102720000000 1.0
C      1  0.5994660000000  0.4111250000000  0.5662190000000 1.0
C      1  0.4753980000000  0.5133230000000  0.4331760000000 1.0
C      1  0.4947300000000  0.6211490000000  0.6060650000000 1.0
C      1  0.5589360000000  0.5619650000000  0.4522960000000 1.0
C      1  0.4867070000000  0.4809900000000  0.5146690000000 1.0
C      1  0.3805270000000  0.4296960000000  0.5502150000000 1.0
C      1  0.4789840000000  0.4349540000000  0.5582310000000 1.0
C      1  0.5489000000000  0.4434300000000  0.6171250000000 1.0
C      1  0.5779650000000  0.4990070000000  0.4147950000000 1.0
C      1  0.6015940000000  0.5974470000000  0.5121880000000 1.0
C      1  0.4208260000000  0.5553430000000  0.4505860000000 1.0
C      1  0.4702090000000  0.5427960000000  0.4426950000000 1.0
C      1  0.5860420000000  0.4428440000000  0.4327810000000 1.0
C      1  0.5792440000000  0.5451880000000  0.5349790000000 1.0
C      1  0.4799350000000  0.4120950000000  0.5392820000000 1.0
C      1  0.5721170000000  0.5023150000000  0.4424150000000 1.0
C      1  0.5008080000000  0.6248990000000  0.5796080000000 1.0
C      1  0.5617640000000  0.4997060000000  0.4916130000000 1.0
C      1  0.5164270000000  0.4590860000000  0.3910130000000 1.0
C      1  0.6037370000000  0.4991600000000  0.4055290000000 1.0
C      1  0.4961550000000  0.6491540000000  0.5677240000000 1.0
C      1  0.5473200000000  0.4425320000000  0.4980360000000 1.0
C      1  0.4973510000000  0.5364460000000  0.3855740000000 1.0
C      1  0.5175750000000  0.3934050000000  0.5102290000000 1.0
C      1  0.3843480000000  0.5492890000000  0.4813840000000 1.0
C      1  0.5240480000000  0.4520810000000  0.5668790000000 1.0
C      1  0.4614430000000  0.4256270000000  0.4312810000000 1.0
C      1  0.4830090000000  0.4079860000000  0.4320780000000 1.0
C      1  0.3917650000000  0.4464050000000  0.5336760000000 1.0
C      1  0.4778790000000  0.5034510000000  0.5878600000000 1.0
C      1  0.3723320000000  0.5337010000000  0.4599450000000 1.0
C      1  0.5178940000000  0.5294890000000  0.5595810000000 1.0
C      1  0.5549020000000  0.6092080000000  0.5077010000000 1.0
C      1  0.3690090000000  0.5060320000000  0.4631310000000 1.0
C      1  0.3638730000000  0.4945740000000  0.4890840000000 1.0
C      1  0.5519300000000  0.4886770000000  0.5188530000000 1.0
C      1  0.4055030000000  0.4432880000000  0.4657800000000 1.0
C      1  0.4534560000000  0.5643490000000  0.5091210000000 1.0
C      1  0.5702950000000  0.5269700000000  0.6126040000000 1.0
C      1  0.5660850000000  0.5254490000000  0.5508450000000 1.0
C      1  0.5444150000000  0.4588350000000  0.5213020000000 1.0
C      1  0.5983910000000  0.4279370000000  0.4946660000000 1.0
C      1  0.5569620000000  0.4221260000000  0.5504040000000 1.0
C      1  0.4762610000000  0.4391430000000  0.4926130000000 1.0
C      1  0.5236570000000  0.5442750000000  0.6092010000000 1.0
C      1  0.5712820000000  0.3973940000000  0.4574650000000 1.0
C      1  0.4191610000000  0.5851320000000  0.4877140000000 1.0
C      1  0.4015850000000  0.4621460000000  0.5107110000000 1.0
C      1  0.4879950000000  0.6044100000000  0.4128850000000 1.0
C      1  0.5323860000000  0.4710380000000  0.4325120000000 1.0
C      1  0.4966400000000  0.5450600000000  0.5724870000000 1.0
C      1  0.5514600000000  0.6174610000000  0.4809680000000 1.0
C      1  0.4641620000000  0.5171800000000  0.5325900000000 1.0
C      1  0.4868350000000  0.6039710000000  0.4657130000000 1.0
C      1  0.5601330000000  0.4875060000000  0.4652420000000 1.0
C      1  0.4145320000000  0.5010250000000  0.5426050000000 1.0
C      1  0.4571100000000  0.4672570000000  0.4603580000000 1.0
C      1  0.5451640000000  0.5308640000000  0.5694430000000 1.0
C      1  0.5714030000000  0.5418980000000  0.4669000000000 1.0
C      1  0.5697940000000  0.5726210000000  0.5392850000000 1.0
C      1  0.4574430000000  0.4972390000000  0.4148600000000 1.0
C      1  0.4259900000000  0.5718100000000  0.5129200000000 1.0
C      1  0.6247950000000  0.4958720000000  0.4228590000000 1.0
C      1  0.4448580000000  0.5958360000000  0.5708820000000 1.0
C      1  0.4710910000000  0.4785680000000  0.3966700000000 1.0
C      1  0.5314190000000  0.6253110000000  0.4648570000000 1.0
C      1  0.4212770000000  0.4362280000000  0.4139480000000 1.0
C      1  0.4343390000000  0.4621500000000  0.5651520000000 1.0
C      1  0.5679770000000  0.5286450000000  0.4921260000000 1.0
C      1  0.5911220000000  0.5186290000000  0.6258580000000 1.0
C      1  0.4197140000000  0.4442070000000  0.4919780000000 1.0
C      1  0.3847890000000  0.4622750000000  0.4648140000000 1.0
C      1  0.6002500000000  0.4088990000000  0.5374130000000 1.0
C      1  0.4709010000000  0.5769690000000  0.5275590000000 1.0
C      1  0.5728420000000  0.4199170000000  0.5748440000000 1.0
C      1  0.4889980000000  0.5592450000000  0.3993500000000 1.0
C      1  0.5534800000000  0.3874320000000  0.4748000000000 1.0
C      1  0.4951880000000  0.4975120000000  0.4503200000000 1.0
C      1  0.5046250000000  0.5109730000000  0.3814580000000 1.0
C      1  0.4356880000000  0.5095700000000  0.4538750000000 1.0
C      1  0.5109030000000  0.5093190000000  0.5420760000000 1.0
C      1  0.4301480000000  0.4996020000000  0.4268830000000 1.0
C      1  0.4172880000000  0.4872570000000  0.5172770000000 1.0
C      1  0.4589570000000  0.4011420000000  0.5234860000000 1.0
C      1  0.3833040000000  0.4855760000000  0.4467860000000 1.0
C      1  0.4970110000000  0.5793240000000  0.4736400000000 1.0
C      1  0.5291020000000  0.4496090000000  0.4769440000000 1.0
C      1  0.4101590000000  0.5501460000000  0.5258270000000 1.0
C      1  0.4714690000000  0.5306830000000  0.5763490000000 1.0
C      1  0.4980270000000  0.5821360000000  0.5217920000000 1.0
C      1  0.4646570000000  0.5913670000000  0.4268720000000 1.0
C      1  0.4379450000000  0.6009580000000  0.4723140000000 1.0
C      1  0.4836720000000  0.3905510000000  0.4546700000000 1.0
C      1  0.4446460000000  0.5387620000000  0.4600620000000 1.0
C      1  0.5117910000000  0.6025140000000  0.5362010000000 1.0
C      1  0.6206510000000  0.4057460000000  0.5832360000000 1.0
C      1  0.5018640000000  0.4206190000000  0.5985370000000 1.0
C      1  0.4926500000000  0.5537790000000  0.4601860000000 1.0
C      1  0.4029960000000  0.4904460000000  0.4263310000000 1.0
C      1  0.3871630000000  0.5436670000000  0.5093840000000 1.0
C      1  0.4547770000000  0.3902630000000  0.4990650000000 1.0
C      1  0.4482560000000  0.4429850000000  0.4493750000000 1.0
C      1  0.4763140000000  0.4835140000000  0.5664880000000 1.0
C      1  0.4535740000000  0.5413550000000  0.4913320000000 1.0
C      1  0.4837130000000  0.4963170000000  0.5406470000000 1.0
C      1  0.5668480000000  0.4484220000000  0.4112820000000 1.0
C      1  0.4595530000000  0.5874090000000  0.5510580000000 1.0
C      1  0.4992800000000  0.4840230000000  0.3876640000000 1.0
C      1  0.5049330000000  0.5833950000000  0.4019940000000 1.0
C      1  0.5702710000000  0.4257980000000  0.5016670000000 1.0
C      1  0.5477720000000  0.5336130000000  0.5979190000000 1.0
C      1  0.4202390000000  0.4394690000000  0.4428030000000 1.0
C      1  0.4484920000000  0.4399200000000  0.4967770000000 1.0
C      1  0.5396290000000  0.4728620000000  0.5780020000000 1.0
C      1  0.4853850000000  0.4704860000000  0.4600120000000 1.0
C      1  0.5274270000000  0.5826990000000  0.5759060000000 1.0
C      1  0.5040810000000  0.5098240000000  0.4760000000000 1.0
C      1  0.5140770000000  0.3818430000000  0.5565700000000 1.0
END
