TITL C-627111-6168-675 -0.000217668875801758 125000 -801.515739654915 0 0 132 (C1) n - 1
REM
REM in /home/nfs/bkarasulu/CARBON/AIRSS/Generating-Clusters/LCBOP/Only-C1/SD-CG/FIRE-CG
REM
REM
REM
REM
REM
REM ./C.cell (11c1c37f851c82e70ff6c80c92926a4b)
REM AIRSS Version 0.9.1 bugfix July 2018 build 013d7b7c2542+ Fri, 06 Jul 2018 19:26:36 +0100
REM compiler GCC version 9.2.1 20190827 (Red Hat 9.2.1-1)
REM options -cpp -mtune=generic -march=x86-64 -g -O0 -fpre-include=/usr/include/finclude/math-vector-fortran.h
REM seed -950374081 1274992307 -369795703 -1183150167 -1425615983 -453888256 344644182 -1488548123 1008944796 1433540739 1934056685 -1916519573 -139975733 177661604 -1406894016 570638011 -366188257 -1057744322 1102048409 2025051188 -251111884 -1598591918 1274619142 673456773 823839486 -1164829608 -1301758420 -968948532 1666332806 1088542456 -1533612056 1504443446 918617919
REM
CELL 1.54180   50.00000   50.00000   50.00000   90.00000   90.00000   90.00000
LATT -1
SFAC C  
C      1  0.4338370000000  0.5005270000000  0.4951590000000 1.0
C      1  0.4844780000000  0.4073290000000  0.4988000000000 1.0
C      1  0.5657400000000  0.5484850000000  0.4113290000000 1.0
C      1  0.4877300000000  0.4350240000000  0.3985530000000 1.0
C      1  0.4620100000000  0.4487080000000  0.5913890000000 1.0
C      1  0.5117190000000  0.5415490000000  0.5995260000000 1.0
C      1  0.5558830000000  0.5000080000000  0.5820840000000 1.0
C      1  0.4401150000000  0.4519860000000  0.5726100000000 1.0
C      1  0.4624260000000  0.5990590000000  0.4934700000000 1.0
C      1  0.4415060000000  0.4416770000000  0.5460600000000 1.0
C      1  0.5957540000000  0.4532170000000  0.5890930000000 1.0
C      1  0.5140210000000  0.4764850000000  0.6187820000000 1.0
C      1  0.5248650000000  0.5192140000000  0.4073060000000 1.0
C      1  0.5039180000000  0.5977590000000  0.5201250000000 1.0
C      1  0.5507990000000  0.4708940000000  0.5846190000000 1.0
C      1  0.4882750000000  0.5821480000000  0.4991210000000 1.0
C      1  0.5663200000000  0.5173490000000  0.5311370000000 1.0
C      1  0.5588970000000  0.5193950000000  0.5595740000000 1.0
C      1  0.5823630000000  0.4933630000000  0.4892240000000 1.0
C      1  0.3649050000000  0.4698510000000  0.4737210000000 1.0
C      1  0.4454730000000  0.4253730000000  0.4708700000000 1.0
C      1  0.4168030000000  0.6110420000000  0.5580380000000 1.0
C      1  0.4091180000000  0.5184760000000  0.4467020000000 1.0
C      1  0.4094080000000  0.4586510000000  0.4590600000000 1.0
C      1  0.5020930000000  0.4974310000000  0.5579170000000 1.0
C      1  0.3961500000000  0.5067100000000  0.4695290000000 1.0
C      1  0.5479860000000  0.5284710000000  0.4219410000000 1.0
C      1  0.4362120000000  0.5221490000000  0.4381850000000 1.0
C      1  0.4319050000000  0.4426130000000  0.4504390000000 1.0
C      1  0.5319600000000  0.3995460000000  0.4450200000000 1.0
C      1  0.4894980000000  0.4536210000000  0.4777600000000 1.0
C      1  0.4334010000000  0.5339740000000  0.5281630000000 1.0
C      1  0.5516390000000  0.5135300000000  0.6070790000000 1.0
C      1  0.5685590000000  0.5530290000000  0.3840590000000 1.0
C      1  0.4713800000000  0.5998210000000  0.4454890000000 1.0
C      1  0.4839600000000  0.4312090000000  0.5843090000000 1.0
C      1  0.4690080000000  0.4851270000000  0.4528380000000 1.0
C      1  0.4662270000000  0.4656680000000  0.6135430000000 1.0
C      1  0.6017430000000  0.5350040000000  0.4991250000000 1.0
C      1  0.4746940000000  0.5098610000000  0.4646740000000 1.0
C      1  0.4254950000000  0.4979600000000  0.5770980000000 1.0
C      1  0.4914690000000  0.5477690000000  0.5380130000000 1.0
C      1  0.5813720000000  0.5632990000000  0.4591740000000 1.0
C      1  0.4559180000000  0.6054230000000  0.4668060000000 1.0
C      1  0.5214820000000  0.5529270000000  0.5755190000000 1.0
C      1  0.4614030000000  0.4129750000000  0.5154470000000 1.0
C      1  0.4434920000000  0.4512460000000  0.4244920000000 1.0
C      1  0.5527860000000  0.5234410000000  0.4502120000000 1.0
C      1  0.3903070000000  0.4782900000000  0.4674310000000 1.0
C      1  0.5637710000000  0.4678890000000  0.4322190000000 1.0
C      1  0.4510950000000  0.5137860000000  0.5394930000000 1.0
C      1  0.5707110000000  0.4510500000000  0.5781090000000 1.0
C      1  0.5515730000000  0.4190480000000  0.5382300000000 1.0
C      1  0.4464600000000  0.6071910000000  0.5148700000000 1.0
C      1  0.5167650000000  0.5025030000000  0.4868090000000 1.0
C      1  0.3861440000000  0.5381520000000  0.5400730000000 1.0
C      1  0.5267330000000  0.4822060000000  0.4664760000000 1.0
C      1  0.5141690000000  0.5909450000000  0.5454360000000 1.0
C      1  0.4736740000000  0.4987480000000  0.5163410000000 1.0
C      1  0.4640580000000  0.4645970000000  0.4714710000000 1.0
C      1  0.5922770000000  0.5396060000000  0.4721500000000 1.0
C      1  0.4210590000000  0.4716260000000  0.5785710000000 1.0
C      1  0.5267450000000  0.4613050000000  0.5984350000000 1.0
C      1  0.5669220000000  0.4684930000000  0.5267530000000 1.0
C      1  0.4535370000000  0.5281700000000  0.4603480000000 1.0
C      1  0.4769170000000  0.4128550000000  0.5640500000000 1.0
C      1  0.4837330000000  0.4725010000000  0.5236270000000 1.0
C      1  0.4394970000000  0.4787350000000  0.4152570000000 1.0
C      1  0.4948960000000  0.5871310000000  0.4486990000000 1.0
C      1  0.5695700000000  0.5569500000000  0.3583150000000 1.0
C      1  0.5576110000000  0.5619960000000  0.5205800000000 1.0
C      1  0.4410130000000  0.4289910000000  0.5000560000000 1.0
C      1  0.4292260000000  0.4770380000000  0.5085160000000 1.0
C      1  0.5515710000000  0.4770900000000  0.4542780000000 1.0
C      1  0.5041990000000  0.5662210000000  0.5560030000000 1.0
C      1  0.4330480000000  0.4506340000000  0.5187000000000 1.0
C      1  0.5488590000000  0.5348470000000  0.5148940000000 1.0
C      1  0.5482020000000  0.5472720000000  0.5652720000000 1.0
C      1  0.5191470000000  0.4515440000000  0.5465700000000 1.0
C      1  0.4416690000000  0.5283000000000  0.4858810000000 1.0
C      1  0.5782080000000  0.4662240000000  0.5001300000000 1.0
C      1  0.4635470000000  0.5256540000000  0.5868220000000 1.0
C      1  0.5068520000000  0.5778600000000  0.4727300000000 1.0
C      1  0.5650520000000  0.5807430000000  0.5011250000000 1.0
C      1  0.5747750000000  0.4383700000000  0.4920100000000 1.0
C      1  0.5192890000000  0.4908200000000  0.4014650000000 1.0
C      1  0.4902530000000  0.4752040000000  0.4362570000000 1.0
C      1  0.5418480000000  0.5936930000000  0.5516460000000 1.0
C      1  0.5106800000000  0.4386100000000  0.5910570000000 1.0
C      1  0.4314740000000  0.6102280000000  0.5365050000000 1.0
C      1  0.4975190000000  0.5320440000000  0.4049560000000 1.0
C      1  0.4594390000000  0.4187330000000  0.5429270000000 1.0
C      1  0.4927020000000  0.4878340000000  0.4118650000000 1.0
C      1  0.5262190000000  0.4626110000000  0.5049860000000 1.0
C      1  0.5395560000000  0.4644900000000  0.5297270000000 1.0
C      1  0.5600260000000  0.5769320000000  0.4737570000000 1.0
C      1  0.5773390000000  0.5139820000000  0.4652930000000 1.0
C      1  0.5564540000000  0.5692840000000  0.5479540000000 1.0
C      1  0.4480290000000  0.5120220000000  0.5678270000000 1.0
C      1  0.5068990000000  0.4638360000000  0.4566000000000 1.0
C      1  0.4984000000000  0.4589930000000  0.5031520000000 1.0
C      1  0.5331450000000  0.5665970000000  0.4693440000000 1.0
C      1  0.5596220000000  0.4193120000000  0.5103460000000 1.0
C      1  0.4048970000000  0.5308850000000  0.5212360000000 1.0
C      1  0.4978950000000  0.4710780000000  0.5484450000000 1.0
C      1  0.4484080000000  0.5067240000000  0.4166260000000 1.0
C      1  0.5215010000000  0.4229600000000  0.5368850000000 1.0
C      1  0.4498280000000  0.5455730000000  0.5072450000000 1.0
C      1  0.5314570000000  0.5293630000000  0.6154980000000 1.0
C      1  0.4762640000000  0.5115820000000  0.4083870000000 1.0
C      1  0.4718310000000  0.4100630000000  0.4714440000000 1.0
C      1  0.5676060000000  0.4277190000000  0.4659530000000 1.0
C      1  0.5329730000000  0.5250380000000  0.4934220000000 1.0
C      1  0.5310060000000  0.4655910000000  0.3956710000000 1.0
C      1  0.4985830000000  0.5211950000000  0.5454280000000 1.0
C      1  0.3952040000000  0.5208210000000  0.4953290000000 1.0
C      1  0.4906840000000  0.5809370000000  0.3840640000000 1.0
C      1  0.4844440000000  0.5351620000000  0.6004170000000 1.0
C      1  0.5562310000000  0.4612700000000  0.4072750000000 1.0
C      1  0.4636270000000  0.4365610000000  0.4106060000000 1.0
C      1  0.5113460000000  0.4106380000000  0.5100860000000 1.0
C      1  0.5358570000000  0.5383670000000  0.4682680000000 1.0
C      1  0.5801920000000  0.5632720000000  0.4308330000000 1.0
C      1  0.5121720000000  0.4444220000000  0.3918220000000 1.0
C      1  0.4933180000000  0.5581260000000  0.3963970000000 1.0
C      1  0.4877060000000  0.4773840000000  0.6247970000000 1.0
C      1  0.4879750000000  0.5072510000000  0.4904990000000 1.0
C      1  0.4764600000000  0.5566250000000  0.5139140000000 1.0
C      1  0.5440560000000  0.4109060000000  0.4664520000000 1.0
C      1  0.5649860000000  0.4292140000000  0.5608380000000 1.0
C      1  0.5885590000000  0.5125130000000  0.5124430000000 1.0
C      1  0.5362530000000  0.4086080000000  0.4941440000000 1.0
END
