TITL C-627108-131-1879 9628.3044775496 125000 -1077.63727522378 0 0 173 (C1) n - 1
REM
REM in /home/nfs/bkarasulu/CARBON/AIRSS/Generating-Clusters/LCBOP/Only-C1/SD-CG/FIRE-CG
REM
REM
REM
REM
REM
REM ./C.cell (11c1c37f851c82e70ff6c80c92926a4b)
REM AIRSS Version 0.9.1 bugfix July 2018 build 013d7b7c2542+ Fri, 06 Jul 2018 19:26:36 +0100
REM compiler GCC version 9.2.1 20190827 (Red Hat 9.2.1-1)
REM options -cpp -mtune=generic -march=x86-64 -g -O0 -fpre-include=/usr/include/finclude/math-vector-fortran.h
REM seed -1762982797 1301855575 -1695114872 1891581854 886396214 -869308627 1859419372 1069156442 -2029410867 -894182339 -1038209233 1370795621 363609607 1696079933 1586284686 1938403259 1896525987 -360678768 1488429967 830063391 294647763 -570098315 -1991472420 -1213631223 -72665820 -1209094324 -645302204 -8838729 -1878371510 -2119242355 -538051231 1379023298 504217847
REM
CELL 1.54180   50.00000   50.00000   50.00000   90.00000   90.00000   90.00000
LATT -1
SFAC C  
C      1  0.4967570000000  0.5449100000000  0.5286180000000 1.0
C      1  0.3842940000000  0.4649580000000  0.5662630000000 1.0
C      1  0.4644300000000  0.5964780000000  0.6140790000000 1.0
C      1  0.5293800000000  0.5497760000000  0.5954010000000 1.0
C      1  0.4885210000000  0.4717560000000  0.4276660000000 1.0
C      1  0.4364690000000  0.5229640000000  0.4479260000000 1.0
C      1  0.3870390000000  0.5124130000000  0.4801050000000 1.0
C      1  0.4688670000000  0.5732020000000  0.4976720000000 1.0
C      1  0.5376810000000  0.5762650000000  0.6024340000000 1.0
C      1  0.6031170000000  0.4898300000000  0.5797130000000 1.0
C      1  0.4958600000000  0.4321920000000  0.5201410000000 1.0
C      1  0.4967270000000  0.3981770000000  0.4287700000000 1.0
C      1  0.4418330000000  0.5058190000000  0.4003070000000 1.0
C      1  0.4935400000000  0.5822960000000  0.4213900000000 1.0
C      1  0.5169190000000  0.5946310000000  0.6092740000000 1.0
C      1  0.5024650000000  0.4893740000000  0.6132910000000 1.0
C      1  0.5316490000000  0.6197280000000  0.4900150000000 1.0
C      1  0.5112160000000  0.4387610000000  0.4955260000000 1.0
C      1  0.5291420000000  0.4536010000000  0.3876130000000 1.0
C      1  0.5144030000000  0.5347380000000  0.5477450000000 1.0
C      1  0.4522460000000  0.4207260000000  0.5804030000000 1.0
C      1  0.5392720000000  0.5215470000000  0.5961670000000 1.0
C      1  0.4209610000000  0.4071530000000  0.4692950000000 1.0
C      1  0.5369780000000  0.5409490000000  0.4830090000000 1.0
C      1  0.4968980000000  0.3876900000000  0.4754240000000 1.0
C      1  0.4019370000000  0.4829140000000  0.5247370000000 1.0
C      1  0.5890900000000  0.5185610000000  0.5312550000000 1.0
C      1  0.6044580000000  0.4925730000000  0.4620050000000 1.0
C      1  0.4981010000000  0.4082410000000  0.5356630000000 1.0
C      1  0.5932810000000  0.4826340000000  0.4359660000000 1.0
C      1  0.4897880000000  0.5758550000000  0.4511020000000 1.0
C      1  0.4910610000000  0.5488110000000  0.6211280000000 1.0
C      1  0.5147810000000  0.5801690000000  0.4668940000000 1.0
C      1  0.6008600000000  0.5795260000000  0.5013830000000 1.0
C      1  0.3978100000000  0.5043200000000  0.4323600000000 1.0
C      1  0.5145950000000  0.3915840000000  0.4509480000000 1.0
C      1  0.5153800000000  0.5028240000000  0.5890510000000 1.0
C      1  0.5836880000000  0.4508390000000  0.5551620000000 1.0
C      1  0.5216120000000  0.4087320000000  0.5526830000000 1.0
C      1  0.6066690000000  0.5701240000000  0.5734750000000 1.0
C      1  0.5531350000000  0.4658500000000  0.4839960000000 1.0
C      1  0.5741510000000  0.5868970000000  0.4993620000000 1.0
C      1  0.5388030000000  0.4498000000000  0.5048750000000 1.0
C      1  0.5550090000000  0.4937520000000  0.4056270000000 1.0
C      1  0.5247030000000  0.4299650000000  0.4040300000000 1.0
C      1  0.5806140000000  0.4573830000000  0.4410000000000 1.0
C      1  0.5211650000000  0.4718800000000  0.6257580000000 1.0
C      1  0.5608630000000  0.5475510000000  0.4398630000000 1.0
C      1  0.5973500000000  0.4689170000000  0.5115180000000 1.0
C      1  0.5360920000000  0.5987720000000  0.4707900000000 1.0
C      1  0.4624380000000  0.4827870000000  0.5651330000000 1.0
C      1  0.4661450000000  0.4671720000000  0.5903740000000 1.0
C      1  0.5483330000000  0.4948630000000  0.5276990000000 1.0
C      1  0.5384590000000  0.6118710000000  0.5167410000000 1.0
C      1  0.5160690000000  0.5608860000000  0.4882110000000 1.0
C      1  0.5270390000000  0.5021910000000  0.4073640000000 1.0
C      1  0.5219930000000  0.6443340000000  0.4835050000000 1.0
C      1  0.4909970000000  0.6011990000000  0.6129940000000 1.0
C      1  0.4216920000000  0.4039910000000  0.4409100000000 1.0
C      1  0.4660110000000  0.5136900000000  0.5723720000000 1.0
C      1  0.5767470000000  0.4572160000000  0.4699750000000 1.0
C      1  0.4452170000000  0.3976010000000  0.4810170000000 1.0
C      1  0.4937930000000  0.5540540000000  0.3522500000000 1.0
C      1  0.4708920000000  0.4392200000000  0.5909880000000 1.0
C      1  0.4384140000000  0.4371900000000  0.4103000000000 1.0
C      1  0.4988320000000  0.5145230000000  0.4816610000000 1.0
C      1  0.4427160000000  0.5595340000000  0.5054800000000 1.0
C      1  0.4014760000000  0.5368090000000  0.4720650000000 1.0
C      1  0.5278680000000  0.5135090000000  0.4834680000000 1.0
C      1  0.5128120000000  0.4891850000000  0.4297120000000 1.0
C      1  0.4649770000000  0.4635430000000  0.4960930000000 1.0
C      1  0.3926620000000  0.5121910000000  0.5622110000000 1.0
C      1  0.3814380000000  0.4948840000000  0.4560970000000 1.0
C      1  0.5645330000000  0.4479460000000  0.4203160000000 1.0
C      1  0.4827410000000  0.4549830000000  0.4523130000000 1.0
C      1  0.4693190000000  0.5422220000000  0.6354960000000 1.0
C      1  0.5161940000000  0.3886450000000  0.4973780000000 1.0
C      1  0.3760440000000  0.4672360000000  0.4603730000000 1.0
C      1  0.5462420000000  0.4137550000000  0.5395160000000 1.0
C      1  0.4798730000000  0.5457210000000  0.4470220000000 1.0
C      1  0.4192860000000  0.4599560000000  0.4457330000000 1.0
C      1  0.4981880000000  0.5483850000000  0.5915300000000 1.0
C      1  0.5504440000000  0.5676200000000  0.5379440000000 1.0
C      1  0.4820790000000  0.5409750000000  0.3730950000000 1.0
C      1  0.5838120000000  0.4472760000000  0.5266600000000 1.0
C      1  0.4090230000000  0.5286330000000  0.4443370000000 1.0
C      1  0.4864590000000  0.5130870000000  0.3783580000000 1.0
C      1  0.5399820000000  0.4352770000000  0.4281970000000 1.0
C      1  0.4414970000000  0.5013590000000  0.4643290000000 1.0
C      1  0.4232440000000  0.4611780000000  0.4173480000000 1.0
C      1  0.4761480000000  0.5155600000000  0.4991940000000 1.0
C      1  0.4526080000000  0.5427850000000  0.5620920000000 1.0
C      1  0.4896300000000  0.4749240000000  0.5001640000000 1.0
C      1  0.5347890000000  0.4705330000000  0.5269300000000 1.0
C      1  0.4091370000000  0.4386830000000  0.5055910000000 1.0
C      1  0.4039440000000  0.5347150000000  0.5706270000000 1.0
C      1  0.5603520000000  0.5828140000000  0.4747220000000 1.0
C      1  0.5067400000000  0.4089440000000  0.4050790000000 1.0
C      1  0.4427210000000  0.5804630000000  0.6118600000000 1.0
C      1  0.5841190000000  0.4675460000000  0.5781720000000 1.0
C      1  0.5553380000000  0.4268020000000  0.5144400000000 1.0
C      1  0.5422700000000  0.4011340000000  0.4907300000000 1.0
C      1  0.4743440000000  0.3954830000000  0.5437900000000 1.0
C      1  0.4487630000000  0.5334680000000  0.4057390000000 1.0
C      1  0.4755480000000  0.5623690000000  0.5746680000000 1.0
C      1  0.5770060000000  0.5029250000000  0.4218880000000 1.0
C      1  0.4389550000000  0.4740290000000  0.4592140000000 1.0
C      1  0.4290990000000  0.5755100000000  0.4567080000000 1.0
C      1  0.5631330000000  0.4769500000000  0.5973220000000 1.0
C      1  0.4641740000000  0.5536790000000  0.3913090000000 1.0
C      1  0.5646000000000  0.5832270000000  0.6005490000000 1.0
C      1  0.5414720000000  0.3979740000000  0.4616550000000 1.0
C      1  0.3913910000000  0.5000530000000  0.5049800000000 1.0
C      1  0.4652090000000  0.4670420000000  0.5420100000000 1.0
C      1  0.6056770000000  0.5413440000000  0.5292400000000 1.0
C      1  0.4601020000000  0.4591000000000  0.4689090000000 1.0
C      1  0.5890520000000  0.5804980000000  0.5904810000000 1.0
C      1  0.5552010000000  0.4653820000000  0.3980960000000 1.0
C      1  0.4694010000000  0.4022830000000  0.4378540000000 1.0
C      1  0.5200980000000  0.5734500000000  0.4134440000000 1.0
C      1  0.5427420000000  0.5404370000000  0.5425450000000 1.0
C      1  0.4664290000000  0.5780550000000  0.4095590000000 1.0
C      1  0.3976410000000  0.4490580000000  0.4602200000000 1.0
C      1  0.6130840000000  0.5553860000000  0.5522840000000 1.0
C      1  0.5565420000000  0.5551800000000  0.4669230000000 1.0
C      1  0.4698390000000  0.3945220000000  0.4671620000000 1.0
C      1  0.4972430000000  0.4287860000000  0.5935300000000 1.0
C      1  0.6095090000000  0.5528740000000  0.5034880000000 1.0
C      1  0.4215940000000  0.5583100000000  0.4813670000000 1.0
C      1  0.5605620000000  0.5190790000000  0.5348050000000 1.0
C      1  0.5276010000000  0.4488420000000  0.4496880000000 1.0
C      1  0.4582600000000  0.5108750000000  0.6035730000000 1.0
C      1  0.6104690000000  0.5379150000000  0.4797790000000 1.0
C      1  0.4924890000000  0.5232730000000  0.4558850000000 1.0
C      1  0.4496190000000  0.5431800000000  0.5308340000000 1.0
C      1  0.4531600000000  0.5417190000000  0.4345890000000 1.0
C      1  0.5162910000000  0.4157870000000  0.5795660000000 1.0
C      1  0.4275850000000  0.5471780000000  0.5785310000000 1.0
C      1  0.5064000000000  0.4702720000000  0.3825310000000 1.0
C      1  0.5198930000000  0.4800660000000  0.5705750000000 1.0
C      1  0.4451530000000  0.5716190000000  0.4319550000000 1.0
C      1  0.4184200000000  0.4905560000000  0.4119670000000 1.0
C      1  0.5987130000000  0.4718530000000  0.4829260000000 1.0
C      1  0.5805660000000  0.5270280000000  0.4377610000000 1.0
C      1  0.5426870000000  0.5596120000000  0.4207720000000 1.0
C      1  0.4657600000000  0.4938180000000  0.3894220000000 1.0
C      1  0.4199560000000  0.4616030000000  0.5181660000000 1.0
C      1  0.4055610000000  0.4291210000000  0.4793520000000 1.0
C      1  0.4982420000000  0.5222220000000  0.5736060000000 1.0
C      1  0.4342400000000  0.5538720000000  0.6055630000000 1.0
C      1  0.4742430000000  0.5290030000000  0.5232010000000 1.0
C      1  0.5119070000000  0.4998290000000  0.3825720000000 1.0
C      1  0.5562460000000  0.5901530000000  0.5217010000000 1.0
C      1  0.5149130000000  0.4673170000000  0.5466120000000 1.0
C      1  0.5638790000000  0.5072820000000  0.5980590000000 1.0
C      1  0.5912350000000  0.5125250000000  0.5903870000000 1.0
C      1  0.5995870000000  0.5212050000000  0.4602410000000 1.0
C      1  0.5394370000000  0.4891060000000  0.4735120000000 1.0
C      1  0.5055010000000  0.4422170000000  0.4666340000000 1.0
C      1  0.4910620000000  0.4547290000000  0.5382460000000 1.0
C      1  0.6006670000000  0.4933990000000  0.5254560000000 1.0
C      1  0.4484570000000  0.5325330000000  0.6191890000000 1.0
C      1  0.4446700000000  0.4132700000000  0.4261670000000 1.0
C      1  0.3927900000000  0.4863300000000  0.5514790000000 1.0
C      1  0.4516460000000  0.5079530000000  0.4889810000000 1.0
C      1  0.4482250000000  0.4639410000000  0.5193380000000 1.0
C      1  0.5455950000000  0.4649620000000  0.6160030000000 1.0
C      1  0.5293850000000  0.4781860000000  0.4493770000000 1.0
C      1  0.4700150000000  0.5861570000000  0.4719670000000 1.0
C      1  0.4956670000000  0.5640610000000  0.5076310000000 1.0
C      1  0.4811450000000  0.4705470000000  0.3994720000000 1.0
C      1  0.4739090000000  0.4865140000000  0.6106720000000 1.0
C      1  0.4549020000000  0.4019100000000  0.5612800000000 1.0
END
