TITL C-627113-6568-2176 -1691.34230371571 125000 -765.125122573384 0 0 124 (C1) n - 1
REM
REM in /home/nfs/bkarasulu/CARBON/AIRSS/Generating-Clusters/LCBOP/Only-C1/SD-CG/FIRE-CG
REM
REM
REM
REM
REM
REM ./C.cell (11c1c37f851c82e70ff6c80c92926a4b)
REM AIRSS Version 0.9.1 bugfix July 2018 build 013d7b7c2542+ Fri, 06 Jul 2018 19:26:36 +0100
REM compiler GCC version 9.2.1 20190827 (Red Hat 9.2.1-1)
REM options -cpp -mtune=generic -march=x86-64 -g -O0 -fpre-include=/usr/include/finclude/math-vector-fortran.h
REM seed -463942125 1255099033 1418243076 955145179 134508069 -764540732 -350205478 -1800269081 2052874983 215333397 -249275739 -24419124 -996812800 1899247756 2089835451 -1862368016 -372478736 1023212406 1720243245 1401515233 -1990144438 -509058915 -1931681864 -1675018570 475600227 -1547997193 -560822253 -1367518710 -1308503432 -1217159678 130179513 -177317768 -725820865
REM
CELL 1.54180   50.00000   50.00000   50.00000   90.00000   90.00000   90.00000
LATT -1
SFAC C  
C      1  0.4955260000000  0.5191460000000  0.4818770000000 1.0
C      1  0.4274060000000  0.4617200000000  0.5356290000000 1.0
C      1  0.2962470000000  0.5481010000000  0.5649700000000 1.0
C      1  0.5301360000000  0.4923600000000  0.5213760000000 1.0
C      1  0.5442500000000  0.4750280000000  0.5042060000000 1.0
C      1  0.5015510000000  0.4160020000000  0.4745490000000 1.0
C      1  0.4167460000000  0.5540900000000  0.5450060000000 1.0
C      1  0.5687310000000  0.5190860000000  0.4145160000000 1.0
C      1  0.4572380000000  0.5277180000000  0.4531450000000 1.0
C      1  0.5247630000000  0.4345520000000  0.4102890000000 1.0
C      1  0.5002110000000  0.4669570000000  0.4814080000000 1.0
C      1  0.5319730000000  0.4348370000000  0.4381250000000 1.0
C      1  0.4851690000000  0.4630740000000  0.5784160000000 1.0
C      1  0.4551820000000  0.5784600000000  0.5608520000000 1.0
C      1  0.5352470000000  0.5511340000000  0.5768180000000 1.0
C      1  0.4253430000000  0.4502330000000  0.4456230000000 1.0
C      1  0.6143990000000  0.4516820000000  0.4150690000000 1.0
C      1  0.5166430000000  0.4975180000000  0.4452030000000 1.0
C      1  0.3697410000000  0.5469570000000  0.5358550000000 1.0
C      1  0.5491220000000  0.5776480000000  0.4550680000000 1.0
C      1  0.5464970000000  0.5603670000000  0.4302960000000 1.0
C      1  0.4228140000000  0.5196720000000  0.5853920000000 1.0
C      1  0.5070620000000  0.4801500000000  0.5305160000000 1.0
C      1  0.3451360000000  0.5471700000000  0.5456470000000 1.0
C      1  0.4537090000000  0.5162900000000  0.5081060000000 1.0
C      1  0.4995690000000  0.5607550000000  0.4959560000000 1.0
C      1  0.4795900000000  0.5918100000000  0.5565020000000 1.0
C      1  0.5086870000000  0.5562360000000  0.5698060000000 1.0
C      1  0.5204150000000  0.4159880000000  0.5210540000000 1.0
C      1  0.5026040000000  0.4726600000000  0.3901720000000 1.0
C      1  0.4420700000000  0.4511420000000  0.5578490000000 1.0
C      1  0.4864210000000  0.4972850000000  0.5369530000000 1.0
C      1  0.5642430000000  0.4599090000000  0.5175460000000 1.0
C      1  0.5637720000000  0.5624640000000  0.5044100000000 1.0
C      1  0.3882030000000  0.5547980000000  0.4771220000000 1.0
C      1  0.5439300000000  0.4622300000000  0.5646190000000 1.0
C      1  0.5306690000000  0.4371130000000  0.5632600000000 1.0
C      1  0.5288430000000  0.5201350000000  0.5164910000000 1.0
C      1  0.6140000000000  0.5054020000000  0.5152740000000 1.0
C      1  0.6286250000000  0.4243210000000  0.5243360000000 1.0
C      1  0.4743760000000  0.5630610000000  0.5086620000000 1.0
C      1  0.5876520000000  0.4855580000000  0.5506630000000 1.0
C      1  0.5676200000000  0.5399890000000  0.4333490000000 1.0
C      1  0.5249400000000  0.5889690000000  0.4644430000000 1.0
C      1  0.5589580000000  0.5520310000000  0.5644840000000 1.0
C      1  0.4732050000000  0.4138570000000  0.5221900000000 1.0
C      1  0.4662690000000  0.4914130000000  0.5182160000000 1.0
C      1  0.4798490000000  0.4073850000000  0.4590230000000 1.0
C      1  0.4282360000000  0.4714030000000  0.4284560000000 1.0
C      1  0.4385030000000  0.5079640000000  0.6039710000000 1.0
C      1  0.5825370000000  0.4429570000000  0.5034970000000 1.0
C      1  0.4931350000000  0.4823110000000  0.4366810000000 1.0
C      1  0.5365480000000  0.4803740000000  0.4557830000000 1.0
C      1  0.4183320000000  0.4887040000000  0.5340530000000 1.0
C      1  0.4381950000000  0.4958610000000  0.4210590000000 1.0
C      1  0.5077550000000  0.5327200000000  0.4037800000000 1.0
C      1  0.5518480000000  0.4748100000000  0.3990240000000 1.0
C      1  0.6104310000000  0.4859950000000  0.5337380000000 1.0
C      1  0.4795540000000  0.4740620000000  0.4609250000000 1.0
C      1  0.5103570000000  0.5343890000000  0.5012440000000 1.0
C      1  0.5810170000000  0.5115830000000  0.5583700000000 1.0
C      1  0.5672070000000  0.4633980000000  0.4211900000000 1.0
C      1  0.5085280000000  0.5215500000000  0.4572750000000 1.0
C      1  0.5124440000000  0.4220940000000  0.5481630000000 1.0
C      1  0.5657050000000  0.5639460000000  0.4750790000000 1.0
C      1  0.5513010000000  0.5038150000000  0.3977930000000 1.0
C      1  0.6067580000000  0.4348370000000  0.5148170000000 1.0
C      1  0.5912620000000  0.4508070000000  0.4293890000000 1.0
C      1  0.4350380000000  0.4302550000000  0.4938010000000 1.0
C      1  0.4572170000000  0.5515920000000  0.5725360000000 1.0
C      1  0.4851310000000  0.5364000000000  0.5713760000000 1.0
C      1  0.4693010000000  0.4442760000000  0.5639140000000 1.0
C      1  0.5789100000000  0.5423360000000  0.4599260000000 1.0
C      1  0.4542180000000  0.4127570000000  0.4537510000000 1.0
C      1  0.4561720000000  0.5836580000000  0.5030750000000 1.0
C      1  0.4823510000000  0.5168990000000  0.4088290000000 1.0
C      1  0.5020200000000  0.4859490000000  0.5832520000000 1.0
C      1  0.4304180000000  0.5394600000000  0.5669840000000 1.0
C      1  0.5053630000000  0.5802890000000  0.5539140000000 1.0
C      1  0.3960800000000  0.5467300000000  0.5256530000000 1.0
C      1  0.4255360000000  0.5090760000000  0.5155800000000 1.0
C      1  0.5441160000000  0.5768690000000  0.5196960000000 1.0
C      1  0.4266310000000  0.4957780000000  0.4723320000000 1.0
C      1  0.4652510000000  0.5075370000000  0.6072140000000 1.0
C      1  0.5464370000000  0.4952320000000  0.6005280000000 1.0
C      1  0.5309500000000  0.4820270000000  0.5819580000000 1.0
C      1  0.5271460000000  0.4588530000000  0.3942280000000 1.0
C      1  0.4664740000000  0.5215380000000  0.4800730000000 1.0
C      1  0.5889490000000  0.4370150000000  0.4544790000000 1.0
C      1  0.4356020000000  0.5917460000000  0.5184980000000 1.0
C      1  0.5286670000000  0.4718710000000  0.4809740000000 1.0
C      1  0.5981710000000  0.5256640000000  0.5037210000000 1.0
C      1  0.3981230000000  0.5387440000000  0.4969850000000 1.0
C      1  0.4672120000000  0.5391500000000  0.5236410000000 1.0
C      1  0.5262860000000  0.5912260000000  0.5370180000000 1.0
C      1  0.5664880000000  0.4667790000000  0.5460660000000 1.0
C      1  0.5050740000000  0.5694330000000  0.4690550000000 1.0
C      1  0.4115800000000  0.5136590000000  0.4909120000000 1.0
C      1  0.4571500000000  0.5178540000000  0.4257560000000 1.0
C      1  0.3204940000000  0.5475950000000  0.5554030000000 1.0
C      1  0.4883280000000  0.4878010000000  0.4090640000000 1.0
C      1  0.5960580000000  0.5268990000000  0.4755570000000 1.0
C      1  0.4966890000000  0.4246870000000  0.5039490000000 1.0
C      1  0.5748900000000  0.5367450000000  0.5472760000000 1.0
C      1  0.5296090000000  0.6186130000000  0.5378440000000 1.0
C      1  0.4512550000000  0.4822310000000  0.4670590000000 1.0
C      1  0.5501630000000  0.4163640000000  0.4801370000000 1.0
C      1  0.4875470000000  0.5110390000000  0.5896370000000 1.0
C      1  0.5189640000000  0.5517730000000  0.4231720000000 1.0
C      1  0.5281560000000  0.5183280000000  0.3893280000000 1.0
C      1  0.4317070000000  0.5794410000000  0.5434610000000 1.0
C      1  0.4386170000000  0.4530440000000  0.5104170000000 1.0
C      1  0.5426940000000  0.4075230000000  0.5062720000000 1.0
C      1  0.5799940000000  0.5425540000000  0.5191600000000 1.0
C      1  0.4830750000000  0.5247650000000  0.5436470000000 1.0
C      1  0.4827880000000  0.4232170000000  0.5491960000000 1.0
C      1  0.4487540000000  0.4091130000000  0.5084470000000 1.0
C      1  0.4643690000000  0.4648680000000  0.5096850000000 1.0
C      1  0.4351000000000  0.4307290000000  0.4645540000000 1.0
C      1  0.5747180000000  0.4311820000000  0.4783930000000 1.0
C      1  0.5277340000000  0.4200640000000  0.4622190000000 1.0
C      1  0.5065820000000  0.5484630000000  0.4486230000000 1.0
C      1  0.5471110000000  0.4594890000000  0.4410000000000 1.0
C      1  0.4915350000000  0.4547740000000  0.5061470000000 1.0
END
