TITL C-627106-156-1787 0.00607830688162772 125000 -633.92956189953 0 0 102 (C1) n - 1
REM
REM in /home/nfs/bkarasulu/CARBON/AIRSS/Generating-Clusters/LCBOP/Only-C1/SD-CG/FIRE-CG
REM
REM
REM
REM
REM
REM ./C.cell (11c1c37f851c82e70ff6c80c92926a4b)
REM AIRSS Version 0.9.1 bugfix July 2018 build 013d7b7c2542+ Fri, 06 Jul 2018 19:26:36 +0100
REM compiler GCC version 9.2.1 20190827 (Red Hat 9.2.1-1)
REM options -cpp -mtune=generic -march=x86-64 -g -O0 -fpre-include=/usr/include/finclude/math-vector-fortran.h
REM seed 1593506200 23168064 -1414251936 44922414 1651372471 1590601591 -1452531230 1934108105 -1852767075 -1654737231 1613768772 -1395038547 -1291426300 -1238877997 -1826576075 918771619 -671839082 -1266775775 1028131556 1025433846 -837914882 -55572562 689525645 -1711124848 -678758036 -1302284886 -1801674063 -217550266 1312138879 -1763243229 -1982015335 1672551869 1436227292
REM
CELL 1.54180   50.00000   50.00000   50.00000   90.00000   90.00000   90.00000
LATT -1
SFAC C  
C      1  0.5618360000000  0.4519160000000  0.4812680000000 1.0
C      1  0.5745610000000  0.4227010000000  0.4439360000000 1.0
C      1  0.4784620000000  0.6123710000000  0.5315790000000 1.0
C      1  0.4628370000000  0.4901650000000  0.5891800000000 1.0
C      1  0.4208850000000  0.4573560000000  0.5050420000000 1.0
C      1  0.4818280000000  0.5183580000000  0.4114990000000 1.0
C      1  0.4082710000000  0.4990750000000  0.4411310000000 1.0
C      1  0.4258030000000  0.4108260000000  0.5021820000000 1.0
C      1  0.5517270000000  0.4500320000000  0.5080310000000 1.0
C      1  0.5392460000000  0.4976280000000  0.5262690000000 1.0
C      1  0.5688230000000  0.5548080000000  0.4899640000000 1.0
C      1  0.4846930000000  0.4730440000000  0.5934730000000 1.0
C      1  0.4906100000000  0.5004620000000  0.5352740000000 1.0
C      1  0.5231950000000  0.4900470000000  0.5715400000000 1.0
C      1  0.5628950000000  0.5586320000000  0.5377710000000 1.0
C      1  0.4835810000000  0.5524140000000  0.5528230000000 1.0
C      1  0.5060180000000  0.5668430000000  0.5615660000000 1.0
C      1  0.4239790000000  0.5387130000000  0.4705410000000 1.0
C      1  0.4395280000000  0.4349350000000  0.5434440000000 1.0
C      1  0.4638120000000  0.4801070000000  0.4747870000000 1.0
C      1  0.5514080000000  0.4949200000000  0.4249710000000 1.0
C      1  0.4889120000000  0.4237400000000  0.5617480000000 1.0
C      1  0.4665700000000  0.5182160000000  0.5864780000000 1.0
C      1  0.5160560000000  0.5439930000000  0.4876880000000 1.0
C      1  0.5503080000000  0.4907950000000  0.4535540000000 1.0
C      1  0.4529410000000  0.6044530000000  0.5316300000000 1.0
C      1  0.4347890000000  0.4340340000000  0.4598210000000 1.0
C      1  0.5084070000000  0.4158920000000  0.4409040000000 1.0
C      1  0.5677100000000  0.4794820000000  0.4732760000000 1.0
C      1  0.4841020000000  0.5460690000000  0.5247930000000 1.0
C      1  0.5072940000000  0.4633220000000  0.5140680000000 1.0
C      1  0.5474460000000  0.5829180000000  0.5377300000000 1.0
C      1  0.4598820000000  0.4517620000000  0.4194310000000 1.0
C      1  0.5832830000000  0.5264950000000  0.5995660000000 1.0
C      1  0.5072780000000  0.4754560000000  0.4230630000000 1.0
C      1  0.4867610000000  0.4303380000000  0.4782030000000 1.0
C      1  0.4918690000000  0.5543580000000  0.4986400000000 1.0
C      1  0.5115930000000  0.4412300000000  0.5661580000000 1.0
C      1  0.4743100000000  0.5206030000000  0.4397090000000 1.0
C      1  0.5194690000000  0.5456630000000  0.4188630000000 1.0
C      1  0.5083590000000  0.3932450000000  0.5270590000000 1.0
C      1  0.4265380000000  0.5617230000000  0.5438700000000 1.0
C      1  0.5646150000000  0.5414790000000  0.5148500000000 1.0
C      1  0.4183210000000  0.4786440000000  0.4271120000000 1.0
C      1  0.5127980000000  0.4201440000000  0.4860650000000 1.0
C      1  0.4339230000000  0.5862290000000  0.5360820000000 1.0
C      1  0.5197900000000  0.5162370000000  0.4837270000000 1.0
C      1  0.4468140000000  0.4933610000000  0.4921980000000 1.0
C      1  0.5243690000000  0.4962870000000  0.4644590000000 1.0
C      1  0.5853750000000  0.6465320000000  0.5049190000000 1.0
C      1  0.4472180000000  0.4882650000000  0.3905320000000 1.0
C      1  0.5077440000000  0.4668490000000  0.5784490000000 1.0
C      1  0.5636100000000  0.5086880000000  0.6019440000000 1.0
C      1  0.5729550000000  0.6263590000000  0.5168050000000 1.0
C      1  0.4623160000000  0.4327160000000  0.5597430000000 1.0
C      1  0.4870320000000  0.4588390000000  0.4127150000000 1.0
C      1  0.5421320000000  0.4987070000000  0.5900130000000 1.0
C      1  0.5353750000000  0.4340920000000  0.5515720000000 1.0
C      1  0.4361980000000  0.5370620000000  0.5534190000000 1.0
C      1  0.4314460000000  0.4117970000000  0.5287580000000 1.0
C      1  0.5421450000000  0.4279190000000  0.5241370000000 1.0
C      1  0.4743250000000  0.4550840000000  0.4832020000000 1.0
C      1  0.5608920000000  0.5127530000000  0.5143520000000 1.0
C      1  0.5041900000000  0.6068920000000  0.5366380000000 1.0
C      1  0.4473630000000  0.5401720000000  0.4860300000000 1.0
C      1  0.5975930000000  0.6663260000000  0.4931470000000 1.0
C      1  0.4251250000000  0.5114430000000  0.5462780000000 1.0
C      1  0.5030640000000  0.4846740000000  0.4501320000000 1.0
C      1  0.4741430000000  0.5195490000000  0.5224260000000 1.0
C      1  0.4284860000000  0.4601770000000  0.5331200000000 1.0
C      1  0.4773270000000  0.4955880000000  0.4549960000000 1.0
C      1  0.5205740000000  0.5860840000000  0.5467370000000 1.0
C      1  0.5747180000000  0.4975810000000  0.4110710000000 1.0
C      1  0.4399770000000  0.4791240000000  0.5767490000000 1.0
C      1  0.5289950000000  0.4200110000000  0.4614540000000 1.0
C      1  0.5091960000000  0.5559600000000  0.4434500000000 1.0
C      1  0.4713850000000  0.5531510000000  0.4776850000000 1.0
C      1  0.4863170000000  0.4741010000000  0.5266350000000 1.0
C      1  0.5251940000000  0.4958870000000  0.4122740000000 1.0
C      1  0.4820430000000  0.5463160000000  0.4514660000000 1.0
C      1  0.5106550000000  0.5208470000000  0.4080610000000 1.0
C      1  0.4395590000000  0.4700110000000  0.4107880000000 1.0
C      1  0.5604920000000  0.6058820000000  0.5280660000000 1.0
C      1  0.5342940000000  0.4716330000000  0.5145320000000 1.0
C      1  0.4102380000000  0.5219020000000  0.4548690000000 1.0
C      1  0.5812010000000  0.5551500000000  0.5586660000000 1.0
C      1  0.5551620000000  0.4313550000000  0.4620490000000 1.0
C      1  0.5753170000000  0.4977850000000  0.4941610000000 1.0
C      1  0.5229740000000  0.4109250000000  0.5107130000000 1.0
C      1  0.4526990000000  0.5179010000000  0.5036370000000 1.0
C      1  0.4947880000000  0.3987630000000  0.5496730000000 1.0
C      1  0.5541380000000  0.5645350000000  0.4694360000000 1.0
C      1  0.5924760000000  0.4160150000000  0.4262310000000 1.0
C      1  0.4622200000000  0.5383340000000  0.5669950000000 1.0
C      1  0.5182670000000  0.5027270000000  0.5460420000000 1.0
C      1  0.4248240000000  0.4348680000000  0.4867170000000 1.0
C      1  0.4813480000000  0.4216860000000  0.4505010000000 1.0
C      1  0.5900130000000  0.5449780000000  0.5815640000000 1.0
C      1  0.5268570000000  0.5592160000000  0.4657450000000 1.0
C      1  0.4566670000000  0.4328140000000  0.4407970000000 1.0
C      1  0.4640940000000  0.5090960000000  0.3920380000000 1.0
C      1  0.4287600000000  0.4833620000000  0.5508510000000 1.0
END
