TITL C-627112-676-751 -557058.19348293 125000 -1171.97151119513 0 0 192 (C1) n - 1
REM
REM in /home/nfs/bkarasulu/CARBON/AIRSS/Generating-Clusters/LCBOP/Only-C1/SD-CG/FIRE-CG
REM
REM
REM
REM
REM
REM ./C.cell (11c1c37f851c82e70ff6c80c92926a4b)
REM AIRSS Version 0.9.1 bugfix July 2018 build 013d7b7c2542+ Fri, 06 Jul 2018 19:26:36 +0100
REM compiler GCC version 9.2.1 20190827 (Red Hat 9.2.1-1)
REM options -cpp -mtune=generic -march=x86-64 -g -O0 -fpre-include=/usr/include/finclude/math-vector-fortran.h
REM seed 988124839 1221936957 -197062369 1813780641 -2027990696 1357132413 169194408 1339228464 233633230 -541450659 -218297193 -220144205 1043572662 1546363004 -1213026767 1131925272 -700680631 167931342 1930570327 392617678 841168807 -1198501057 -408884187 1846873520 126932594 1272659149 -2032356494 200780057 -681891515 -1543380623 -923204304 34804412 134867294
REM
CELL 1.54180   50.00000   50.00000   50.00000   90.00000   90.00000   90.00000
LATT -1
SFAC C  
C      1  0.5357080000000  0.5054810000000  0.5073490000000 1.0
C      1  0.5623060000000  0.5173020000000  0.5069400000000 1.0
C      1  0.6045740000000  0.5687120000000  0.4870630000000 1.0
C      1  0.4566640000000  0.5130620000000  0.6057910000000 1.0
C      1  0.4106560000000  0.4562870000000  0.5452710000000 1.0
C      1  0.5523850000000  0.5008090000000  0.4554370000000 1.0
C      1  0.5416310000000  0.5253840000000  0.3862460000000 1.0
C      1  0.4686730000000  0.5376720000000  0.5916910000000 1.0
C      1  0.4448810000000  0.5680290000000  0.4473920000000 1.0
C      1  0.5120840000000  0.6136230000000  0.5256870000000 1.0
C      1  0.3970340000000  0.6030880000000  0.5785190000000 1.0
C      1  0.4858350000000  0.4232130000000  0.5758320000000 1.0
C      1  0.4985840000000  0.5022420000000  0.3757470000000 1.0
C      1  0.5075450000000  0.4429450000000  0.4468930000000 1.0
C      1  0.3897680000000  0.4227580000000  0.4597420000000 1.0
C      1  0.4693000000000  0.5301220000000  0.4530940000000 1.0
C      1  0.6087160000000  0.5460010000000  0.4447850000000 1.0
C      1  0.5149980000000  0.5129890000000  0.4856170000000 1.0
C      1  0.4157960000000  0.4880560000000  0.4951620000000 1.0
C      1  0.4991210000000  0.5381020000000  0.4904780000000 1.0
C      1  0.6073850000000  0.4691740000000  0.4786390000000 1.0
C      1  0.5272530000000  0.5108830000000  0.6380000000000 1.0
C      1  0.5687510000000  0.4480240000000  0.4170120000000 1.0
C      1  0.5054320000000  0.5882390000000  0.5854040000000 1.0
C      1  0.5121400000000  0.3824940000000  0.4834990000000 1.0
C      1  0.3578970000000  0.5873530000000  0.4167310000000 1.0
C      1  0.5593950000000  0.4312100000000  0.5182300000000 1.0
C      1  0.5379090000000  0.4724020000000  0.3863610000000 1.0
C      1  0.5922150000000  0.4820470000000  0.5564820000000 1.0
C      1  0.5738430000000  0.4599880000000  0.4420220000000 1.0
C      1  0.5475520000000  0.4733520000000  0.6182190000000 1.0
C      1  0.4663750000000  0.4855450000000  0.5282840000000 1.0
C      1  0.4711360000000  0.4395540000000  0.4912120000000 1.0
C      1  0.4780610000000  0.5868950000000  0.5765540000000 1.0
C      1  0.5306290000000  0.4256110000000  0.4013190000000 1.0
C      1  0.4691790000000  0.4859590000000  0.4284990000000 1.0
C      1  0.4053540000000  0.5695840000000  0.5105950000000 1.0
C      1  0.6233810000000  0.5131780000000  0.4789500000000 1.0
C      1  0.4624740000000  0.6074050000000  0.4357210000000 1.0
C      1  0.5212400000000  0.4620760000000  0.6194240000000 1.0
C      1  0.5242810000000  0.4652650000000  0.4419690000000 1.0
C      1  0.5269050000000  0.5672020000000  0.5284660000000 1.0
C      1  0.4688960000000  0.3802150000000  0.4577620000000 1.0
C      1  0.5704870000000  0.4156490000000  0.5608320000000 1.0
C      1  0.4977430000000  0.4755150000000  0.5625670000000 1.0
C      1  0.4437330000000  0.4029720000000  0.4126720000000 1.0
C      1  0.5352230000000  0.4487300000000  0.5639230000000 1.0
C      1  0.5836410000000  0.4780590000000  0.5292750000000 1.0
C      1  0.5113340000000  0.5756190000000  0.6095920000000 1.0
C      1  0.4168990000000  0.4583620000000  0.4520310000000 1.0
C      1  0.4324120000000  0.5875000000000  0.4671410000000 1.0
C      1  0.5175320000000  0.5509230000000  0.6167050000000 1.0
C      1  0.4558910000000  0.6319170000000  0.4758900000000 1.0
C      1  0.5509180000000  0.4254770000000  0.4213020000000 1.0
C      1  0.5918400000000  0.5900130000000  0.4425650000000 1.0
C      1  0.6059340000000  0.4947260000000  0.4904380000000 1.0
C      1  0.3836080000000  0.5160020000000  0.4751310000000 1.0
C      1  0.5357770000000  0.4341900000000  0.5033450000000 1.0
C      1  0.4222350000000  0.5039400000000  0.3884130000000 1.0
C      1  0.5402250000000  0.5443610000000  0.4090330000000 1.0
C      1  0.6015900000000  0.3840650000000  0.5920590000000 1.0
C      1  0.3934860000000  0.5209240000000  0.5261510000000 1.0
C      1  0.5867090000000  0.4744450000000  0.3796190000000 1.0
C      1  0.4986540000000  0.5680750000000  0.4457130000000 1.0
C      1  0.4031530000000  0.4150840000000  0.4353680000000 1.0
C      1  0.4621610000000  0.4592800000000  0.5380360000000 1.0
C      1  0.5776910000000  0.5694260000000  0.4950810000000 1.0
C      1  0.4990490000000  0.4175870000000  0.4508320000000 1.0
C      1  0.5167510000000  0.5099840000000  0.5895420000000 1.0
C      1  0.4775220000000  0.4465140000000  0.6189970000000 1.0
C      1  0.4421470000000  0.3904560000000  0.4600100000000 1.0
C      1  0.4449340000000  0.5419660000000  0.4585810000000 1.0
C      1  0.4944070000000  0.3920890000000  0.4630800000000 1.0
C      1  0.4427410000000  0.4980910000000  0.4877220000000 1.0
C      1  0.4126200000000  0.5154880000000  0.5745520000000 1.0
C      1  0.6068540000000  0.5713070000000  0.4582660000000 1.0
C      1  0.6204920000000  0.5254350000000  0.5452580000000 1.0
C      1  0.4380330000000  0.5443580000000  0.4868230000000 1.0
C      1  0.5255370000000  0.5930890000000  0.5399640000000 1.0
C      1  0.5855050000000  0.3991520000000  0.5773420000000 1.0
C      1  0.5713160000000  0.5418060000000  0.5748500000000 1.0
C      1  0.4017880000000  0.4356910000000  0.4144330000000 1.0
C      1  0.5504990000000  0.4728110000000  0.4520040000000 1.0
C      1  0.5168590000000  0.5446850000000  0.4247390000000 1.0
C      1  0.4145250000000  0.5837770000000  0.5780550000000 1.0
C      1  0.4436110000000  0.4517460000000  0.4557690000000 1.0
C      1  0.4445490000000  0.4527540000000  0.3989130000000 1.0
C      1  0.5098630000000  0.5146490000000  0.4339100000000 1.0
C      1  0.4922990000000  0.4546230000000  0.3939740000000 1.0
C      1  0.5275790000000  0.4775660000000  0.5544450000000 1.0
C      1  0.5770200000000  0.4524830000000  0.5203270000000 1.0
C      1  0.5701820000000  0.4740520000000  0.6029570000000 1.0
C      1  0.5214610000000  0.4357550000000  0.6073170000000 1.0
C      1  0.4605060000000  0.5655960000000  0.5858920000000 1.0
C      1  0.4091880000000  0.4867650000000  0.4070250000000 1.0
C      1  0.6325360000000  0.5467630000000  0.5306100000000 1.0
C      1  0.3976160000000  0.4477900000000  0.4704850000000 1.0
C      1  0.5610620000000  0.4081930000000  0.5347150000000 1.0
C      1  0.4580650000000  0.4017790000000  0.5354750000000 1.0
C      1  0.5065530000000  0.6138530000000  0.4771930000000 1.0
C      1  0.5585640000000  0.5327260000000  0.3655460000000 1.0
C      1  0.5632250000000  0.4425680000000  0.5678670000000 1.0
C      1  0.6562180000000  0.5568040000000  0.5404120000000 1.0
C      1  0.4167740000000  0.4587810000000  0.4052320000000 1.0
C      1  0.5733980000000  0.5140410000000  0.4434960000000 1.0
C      1  0.5297710000000  0.3819390000000  0.5041090000000 1.0
C      1  0.4921360000000  0.4921380000000  0.4881300000000 1.0
C      1  0.5651680000000  0.4654410000000  0.3939040000000 1.0
C      1  0.5516520000000  0.6164760000000  0.4955500000000 1.0
C      1  0.4685180000000  0.4718420000000  0.4011310000000 1.0
C      1  0.4277510000000  0.3990780000000  0.4359940000000 1.0
C      1  0.3638180000000  0.5635820000000  0.4256510000000 1.0
C      1  0.5597020000000  0.5184000000000  0.5696200000000 1.0
C      1  0.5965230000000  0.4570150000000  0.4576180000000 1.0
C      1  0.4926640000000  0.4709460000000  0.6226940000000 1.0
C      1  0.4932200000000  0.4870940000000  0.5165920000000 1.0
C      1  0.5159800000000  0.5474430000000  0.5445230000000 1.0
C      1  0.5205740000000  0.5233050000000  0.6144740000000 1.0
C      1  0.4883930000000  0.3769200000000  0.5630170000000 1.0
C      1  0.5653090000000  0.5552000000000  0.4197090000000 1.0
C      1  0.4769240000000  0.4016420000000  0.5578060000000 1.0
C      1  0.6261750000000  0.5275130000000  0.4565230000000 1.0
C      1  0.5195500000000  0.4497260000000  0.3901850000000 1.0
C      1  0.4496810000000  0.5239020000000  0.5525460000000 1.0
C      1  0.4034470000000  0.4622480000000  0.4939440000000 1.0
C      1  0.3960830000000  0.5086130000000  0.4996140000000 1.0
C      1  0.4504200000000  0.4247730000000  0.3982920000000 1.0
C      1  0.4418560000000  0.4484060000000  0.5895340000000 1.0
C      1  0.5599580000000  0.5909960000000  0.4859800000000 1.0
C      1  0.5702400000000  0.5680400000000  0.5794290000000 1.0
C      1  0.4445980000000  0.6127530000000  0.4586190000000 1.0
C      1  0.5220690000000  0.4881340000000  0.5260630000000 1.0
C      1  0.6180040000000  0.3693950000000  0.6060380000000 1.0
C      1  0.4464790000000  0.5080660000000  0.3771990000000 1.0
C      1  0.3712760000000  0.5400440000000  0.4352680000000 1.0
C      1  0.4285040000000  0.5377340000000  0.5655590000000 1.0
C      1  0.4757560000000  0.4948710000000  0.6198590000000 1.0
C      1  0.4619850000000  0.4724590000000  0.4521150000000 1.0
C      1  0.5490410000000  0.3836080000000  0.5254140000000 1.0
C      1  0.4929590000000  0.5016100000000  0.5743410000000 1.0
C      1  0.5788670000000  0.4654550000000  0.5769290000000 1.0
C      1  0.5272990000000  0.5135590000000  0.4592180000000 1.0
C      1  0.3940610000000  0.5495190000000  0.5249970000000 1.0
C      1  0.4890640000000  0.5471580000000  0.4656770000000 1.0
C      1  0.4488400000000  0.4333560000000  0.4766640000000 1.0
C      1  0.4669280000000  0.4363060000000  0.5945860000000 1.0
C      1  0.5477150000000  0.4185500000000  0.4497380000000 1.0
C      1  0.5565790000000  0.3600750000000  0.5375050000000 1.0
C      1  0.4333080000000  0.5634950000000  0.5762690000000 1.0
C      1  0.4906480000000  0.5373020000000  0.5398850000000 1.0
C      1  0.4397180000000  0.4070680000000  0.4834590000000 1.0
C      1  0.4894000000000  0.4528710000000  0.5452810000000 1.0
C      1  0.5848120000000  0.4990960000000  0.5094690000000 1.0
C      1  0.5381640000000  0.5008140000000  0.5719950000000 1.0
C      1  0.4713590000000  0.4952620000000  0.3815120000000 1.0
C      1  0.5349030000000  0.5760210000000  0.4798770000000 1.0
C      1  0.4416560000000  0.6495860000000  0.4908090000000 1.0
C      1  0.4492520000000  0.5082380000000  0.5300870000000 1.0
C      1  0.4702030000000  0.5796010000000  0.4356630000000 1.0
C      1  0.4720780000000  0.6048600000000  0.5552690000000 1.0
C      1  0.4666990000000  0.4871370000000  0.4758250000000 1.0
C      1  0.5841280000000  0.5371450000000  0.4325540000000 1.0
C      1  0.5106370000000  0.4376310000000  0.5187580000000 1.0
C      1  0.4858110000000  0.6177230000000  0.5356740000000 1.0
C      1  0.4839540000000  0.6302450000000  0.4755550000000 1.0
C      1  0.4901740000000  0.4272170000000  0.5041400000000 1.0
C      1  0.5346400000000  0.5581230000000  0.5026970000000 1.0
C      1  0.4498960000000  0.5229610000000  0.5046850000000 1.0
C      1  0.4816240000000  0.5376980000000  0.5123950000000 1.0
C      1  0.3966630000000  0.5054130000000  0.5516350000000 1.0
C      1  0.4362060000000  0.4497590000000  0.5405760000000 1.0
C      1  0.5722740000000  0.5824070000000  0.4248610000000 1.0
C      1  0.3944980000000  0.4772120000000  0.5498000000000 1.0
C      1  0.4798930000000  0.5121700000000  0.4345920000000 1.0
C      1  0.6104760000000  0.5039160000000  0.5583510000000 1.0
C      1  0.5158960000000  0.4864960000000  0.4247170000000 1.0
C      1  0.5280450000000  0.5941160000000  0.5684250000000 1.0
C      1  0.5136540000000  0.5880490000000  0.4646190000000 1.0
C      1  0.4448670000000  0.3997100000000  0.5113460000000 1.0
C      1  0.4251310000000  0.5703870000000  0.4904710000000 1.0
C      1  0.5146950000000  0.4323300000000  0.5794160000000 1.0
C      1  0.4306890000000  0.5008630000000  0.5941550000000 1.0
C      1  0.6223580000000  0.5586610000000  0.5067610000000 1.0
C      1  0.5268470000000  0.5001300000000  0.3821690000000 1.0
C      1  0.4299540000000  0.4722260000000  0.5939240000000 1.0
C      1  0.5619190000000  0.5458370000000  0.5029560000000 1.0
C      1  0.3947630000000  0.4984350000000  0.4286920000000 1.0
C      1  0.3831710000000  0.5173200000000  0.4466680000000 1.0
C      1  0.5404570000000  0.4261030000000  0.4754450000000 1.0
C      1  0.4768730000000  0.5253100000000  0.5640700000000 1.0
C      1  0.5234040000000  0.6200740000000  0.5001920000000 1.0
C      1  0.5540030000000  0.5892880000000  0.5783620000000 1.0
END
