TITL C-627109-622-149 0.896058294203738 125000 -676.075254402934 0 0 113 (C1) n - 1
REM
REM in /home/nfs/bkarasulu/CARBON/AIRSS/Generating-Clusters/LCBOP/Only-C1/SD-CG/FIRE-CG
REM
REM
REM
REM
REM
REM ./C.cell (11c1c37f851c82e70ff6c80c92926a4b)
REM AIRSS Version 0.9.1 bugfix July 2018 build 013d7b7c2542+ Fri, 06 Jul 2018 19:26:36 +0100
REM compiler GCC version 9.2.1 20190827 (Red Hat 9.2.1-1)
REM options -cpp -mtune=generic -march=x86-64 -g -O0 -fpre-include=/usr/include/finclude/math-vector-fortran.h
REM seed -547270979 925244646 1810386779 44973595 1325579588 -1850167313 1361836759 530440043 1536397820 361123565 1242813073 731123583 -1654531064 -640132390 1896061470 321104430 -1622201851 1655818479 1212677635 1155182331 1145665524 217334520 -676454074 -382680038 956990105 236949200 -72040539 -965824480 -620082717 1167512232 1166735439 600065218 1555597096
REM
CELL 1.54180   50.00000   50.00000   50.00000   90.00000   90.00000   90.00000
LATT -1
SFAC C  
C      1  0.4800400000000  0.5821450000000  0.5333290000000 1.0
C      1  0.6168510000000  0.4712440000000  0.5893120000000 1.0
C      1  0.4534760000000  0.4660220000000  0.4134660000000 1.0
C      1  0.4081360000000  0.4686150000000  0.4304570000000 1.0
C      1  0.5112590000000  0.4637210000000  0.5185580000000 1.0
C      1  0.4525290000000  0.4524160000000  0.5700160000000 1.0
C      1  0.4379060000000  0.5532270000000  0.4547440000000 1.0
C      1  0.5533690000000  0.4475110000000  0.4471100000000 1.0
C      1  0.5473960000000  0.5651860000000  0.5592510000000 1.0
C      1  0.4549190000000  0.5124560000000  0.5912950000000 1.0
C      1  0.5099500000000  0.5750080000000  0.4485450000000 1.0
C      1  0.4530950000000  0.4618710000000  0.4918850000000 1.0
C      1  0.5358880000000  0.5709440000000  0.4613270000000 1.0
C      1  0.4831170000000  0.5133110000000  0.3983240000000 1.0
C      1  0.5299580000000  0.5278400000000  0.5167790000000 1.0
C      1  0.5744250000000  0.5148800000000  0.4818490000000 1.0
C      1  0.4832350000000  0.5784550000000  0.4608930000000 1.0
C      1  0.4602310000000  0.4605190000000  0.5962840000000 1.0
C      1  0.4828640000000  0.5205030000000  0.5141520000000 1.0
C      1  0.4771440000000  0.4916080000000  0.3810170000000 1.0
C      1  0.5046880000000  0.4826500000000  0.6095470000000 1.0
C      1  0.5811260000000  0.4491190000000  0.4948610000000 1.0
C      1  0.4923360000000  0.4721870000000  0.5383290000000 1.0
C      1  0.4920140000000  0.4226870000000  0.5701140000000 1.0
C      1  0.4442210000000  0.5108440000000  0.4946640000000 1.0
C      1  0.5208800000000  0.5918000000000  0.5056200000000 1.0
C      1  0.4698480000000  0.4341720000000  0.5553460000000 1.0
C      1  0.4697560000000  0.4394890000000  0.4989710000000 1.0
C      1  0.5253540000000  0.5316620000000  0.4889310000000 1.0
C      1  0.5996230000000  0.4874760000000  0.5783950000000 1.0
C      1  0.5617530000000  0.5639230000000  0.5023700000000 1.0
C      1  0.5469430000000  0.4114230000000  0.4875920000000 1.0
C      1  0.5202970000000  0.5735310000000  0.5659480000000 1.0
C      1  0.5041940000000  0.5216040000000  0.4725780000000 1.0
C      1  0.5587870000000  0.5589470000000  0.5317110000000 1.0
C      1  0.5043190000000  0.5520370000000  0.5780760000000 1.0
C      1  0.5899700000000  0.4691940000000  0.4749270000000 1.0
C      1  0.5699990000000  0.5431890000000  0.4810370000000 1.0
C      1  0.5816020000000  0.5031210000000  0.5668700000000 1.0
C      1  0.4618740000000  0.4891290000000  0.4858540000000 1.0
C      1  0.4792850000000  0.5450450000000  0.5659410000000 1.0
C      1  0.4460760000000  0.5118810000000  0.5425910000000 1.0
C      1  0.5731800000000  0.4703710000000  0.4507840000000 1.0
C      1  0.4752600000000  0.5552800000000  0.4211330000000 1.0
C      1  0.5018150000000  0.3695360000000  0.5639940000000 1.0
C      1  0.4629350000000  0.4850040000000  0.4331130000000 1.0
C      1  0.5070880000000  0.3444040000000  0.5595010000000 1.0
C      1  0.5204750000000  0.4632700000000  0.5942610000000 1.0
C      1  0.5182650000000  0.4470260000000  0.4078420000000 1.0
C      1  0.5966660000000  0.4962310000000  0.4874410000000 1.0
C      1  0.4916540000000  0.4947460000000  0.5561460000000 1.0
C      1  0.4270920000000  0.4896030000000  0.5397870000000 1.0
C      1  0.5352240000000  0.4178260000000  0.5116030000000 1.0
C      1  0.5103910000000  0.4263390000000  0.4648190000000 1.0
C      1  0.4685170000000  0.4311310000000  0.5266500000000 1.0
C      1  0.4930310000000  0.5899660000000  0.5097580000000 1.0
C      1  0.5434510000000  0.5315190000000  0.4115520000000 1.0
C      1  0.5274390000000  0.5550020000000  0.4074840000000 1.0
C      1  0.5616950000000  0.5204250000000  0.5584830000000 1.0
C      1  0.4193050000000  0.5689510000000  0.4683900000000 1.0
C      1  0.4275100000000  0.4549150000000  0.4151850000000 1.0
C      1  0.4138010000000  0.5757650000000  0.5626910000000 1.0
C      1  0.5625800000000  0.4845200000000  0.5148380000000 1.0
C      1  0.4549430000000  0.5226660000000  0.5178810000000 1.0
C      1  0.4121610000000  0.5084810000000  0.4633130000000 1.0
C      1  0.5092000000000  0.4384660000000  0.5864140000000 1.0
C      1  0.5912820000000  0.4923380000000  0.5162270000000 1.0
C      1  0.4143870000000  0.4841360000000  0.5131300000000 1.0
C      1  0.5489580000000  0.5393300000000  0.5768170000000 1.0
C      1  0.4257500000000  0.4603860000000  0.5009370000000 1.0
C      1  0.4508570000000  0.5124590000000  0.4318350000000 1.0
C      1  0.4031350000000  0.5825830000000  0.4836140000000 1.0
C      1  0.5139830000000  0.5106290000000  0.6073530000000 1.0
C      1  0.4786050000000  0.5898970000000  0.4857420000000 1.0
C      1  0.5047240000000  0.5294710000000  0.5284900000000 1.0
C      1  0.5194810000000  0.4971620000000  0.5624690000000 1.0
C      1  0.5567100000000  0.5494530000000  0.4552680000000 1.0
C      1  0.5288270000000  0.4820160000000  0.4749230000000 1.0
C      1  0.4680130000000  0.5153720000000  0.5643950000000 1.0
C      1  0.4010450000000  0.4878400000000  0.4476700000000 1.0
C      1  0.5045240000000  0.5254330000000  0.4448780000000 1.0
C      1  0.5400110000000  0.4263380000000  0.4641770000000 1.0
C      1  0.5598130000000  0.5278980000000  0.4350710000000 1.0
C      1  0.5516120000000  0.4961340000000  0.4885290000000 1.0
C      1  0.5602650000000  0.4563100000000  0.5145560000000 1.0
C      1  0.4878730000000  0.4290610000000  0.4796210000000 1.0
C      1  0.4723570000000  0.4652050000000  0.3913960000000 1.0
C      1  0.5163790000000  0.4738420000000  0.4487820000000 1.0
C      1  0.4966370000000  0.3951860000000  0.5681270000000 1.0
C      1  0.4627500000000  0.5647740000000  0.4458120000000 1.0
C      1  0.4399350000000  0.5173770000000  0.6120650000000 1.0
C      1  0.5229920000000  0.5332680000000  0.5913320000000 1.0
C      1  0.5538390000000  0.5295500000000  0.5321750000000 1.0
C      1  0.4392140000000  0.5723860000000  0.5580160000000 1.0
C      1  0.4921450000000  0.4834670000000  0.4362280000000 1.0
C      1  0.5406840000000  0.5800300000000  0.4893200000000 1.0
C      1  0.4646890000000  0.5300410000000  0.4123490000000 1.0
C      1  0.4658780000000  0.5665630000000  0.5521730000000 1.0
C      1  0.5088590000000  0.4798570000000  0.4952950000000 1.0
C      1  0.5030380000000  0.5071680000000  0.4206250000000 1.0
C      1  0.5691120000000  0.4988350000000  0.4392830000000 1.0
C      1  0.4952370000000  0.4484980000000  0.3937870000000 1.0
C      1  0.5288130000000  0.5079220000000  0.4061850000000 1.0
C      1  0.5310340000000  0.4564090000000  0.4310490000000 1.0
C      1  0.4889860000000  0.5015360000000  0.4903870000000 1.0
C      1  0.4777870000000  0.4738030000000  0.6120950000000 1.0
C      1  0.4165780000000  0.5047820000000  0.4918430000000 1.0
C      1  0.4213410000000  0.4314430000000  0.4026220000000 1.0
C      1  0.5343440000000  0.4777260000000  0.5743370000000 1.0
C      1  0.4322060000000  0.5252130000000  0.4495540000000 1.0
C      1  0.5342810000000  0.4452160000000  0.5193930000000 1.0
C      1  0.5042350000000  0.5642530000000  0.4213170000000 1.0
C      1  0.4323840000000  0.4673680000000  0.5568180000000 1.0
END
