TITL C-627111-6168-1058 -8.80922721792249e-07 125000 -604.681121522817 0 0 102 (C1) n - 1
REM
REM in /home/nfs/bkarasulu/CARBON/AIRSS/Generating-Clusters/LCBOP/Only-C1/SD-CG/FIRE-CG
REM
REM
REM
REM
REM
REM ./C.cell (11c1c37f851c82e70ff6c80c92926a4b)
REM AIRSS Version 0.9.1 bugfix July 2018 build 013d7b7c2542+ Fri, 06 Jul 2018 19:26:36 +0100
REM compiler GCC version 9.2.1 20190827 (Red Hat 9.2.1-1)
REM options -cpp -mtune=generic -march=x86-64 -g -O0 -fpre-include=/usr/include/finclude/math-vector-fortran.h
REM seed -1650346703 1654067369 1735518981 1866961303 -649330870 -272321060 1075643338 161922665 -723364868 1049355814 1625711948 -599610055 348819106 1532426079 1077255457 536501158 390302675 1653705050 -2146262186 274879627 1402536826 1755174527 -431103906 -1318522207 -57181192 1483597724 882884042 -79773861 -1912422314 1862052735 1651304324 1777612533 -1538529359
REM
CELL 1.54180   50.00000   50.00000   50.00000   90.00000   90.00000   90.00000
LATT -1
SFAC C  
C      1  0.4995100000000  0.3980690000000  0.5236390000000 1.0
C      1  0.4511430000000  0.4867760000000  0.3882960000000 1.0
C      1  0.4758420000000  0.4493060000000  0.5876310000000 1.0
C      1  0.4446620000000  0.4987460000000  0.5044190000000 1.0
C      1  0.5740850000000  0.5067450000000  0.5504750000000 1.0
C      1  0.4973660000000  0.5473850000000  0.5511350000000 1.0
C      1  0.5711920000000  0.5016520000000  0.4358290000000 1.0
C      1  0.4324770000000  0.5465950000000  0.4843930000000 1.0
C      1  0.4791450000000  0.4304050000000  0.5665300000000 1.0
C      1  0.5438370000000  0.4249470000000  0.5606200000000 1.0
C      1  0.4792310000000  0.4332230000000  0.4327830000000 1.0
C      1  0.5512640000000  0.5744460000000  0.4905950000000 1.0
C      1  0.5472110000000  0.4881050000000  0.4237770000000 1.0
C      1  0.4793290000000  0.4553070000000  0.4130230000000 1.0
C      1  0.5508620000000  0.5262260000000  0.5142880000000 1.0
C      1  0.6172370000000  0.6114770000000  0.4948070000000 1.0
C      1  0.4718800000000  0.4837510000000  0.4073470000000 1.0
C      1  0.4095780000000  0.5593960000000  0.4773620000000 1.0
C      1  0.5307310000000  0.4210110000000  0.4474680000000 1.0
C      1  0.5861610000000  0.6418810000000  0.5223810000000 1.0
C      1  0.4442430000000  0.5436010000000  0.4260500000000 1.0
C      1  0.4715530000000  0.4346300000000  0.5390890000000 1.0
C      1  0.4315570000000  0.4904170000000  0.3714990000000 1.0
C      1  0.4151860000000  0.4477160000000  0.5119490000000 1.0
C      1  0.4215890000000  0.4827830000000  0.5476940000000 1.0
C      1  0.5697760000000  0.4787440000000  0.5523500000000 1.0
C      1  0.5334460000000  0.4510260000000  0.5616360000000 1.0
C      1  0.3790600000000  0.4590220000000  0.5426130000000 1.0
C      1  0.5329650000000  0.4735160000000  0.4451990000000 1.0
C      1  0.6066180000000  0.6313040000000  0.5090530000000 1.0
C      1  0.5252330000000  0.5729680000000  0.5012560000000 1.0
C      1  0.4008660000000  0.5164530000000  0.5221810000000 1.0
C      1  0.4961290000000  0.4592290000000  0.6041340000000 1.0
C      1  0.5642370000000  0.4328000000000  0.5176430000000 1.0
C      1  0.5548480000000  0.5265260000000  0.5428180000000 1.0
C      1  0.5373080000000  0.6302660000000  0.5350860000000 1.0
C      1  0.6143160000000  0.5874420000000  0.4836960000000 1.0
C      1  0.4737550000000  0.4752510000000  0.4509170000000 1.0
C      1  0.5727140000000  0.5563760000000  0.4844530000000 1.0
C      1  0.5519470000000  0.4225480000000  0.4649830000000 1.0
C      1  0.4540200000000  0.4273180000000  0.4469870000000 1.0
C      1  0.5738620000000  0.4575620000000  0.5316560000000 1.0
C      1  0.4215980000000  0.5114060000000  0.5420780000000 1.0
C      1  0.4709700000000  0.4207810000000  0.4912910000000 1.0
C      1  0.4237010000000  0.4703710000000  0.4702610000000 1.0
C      1  0.4985190000000  0.5398170000000  0.4751970000000 1.0
C      1  0.5032300000000  0.4747520000000  0.4525020000000 1.0
C      1  0.4023560000000  0.4876990000000  0.4787190000000 1.0
C      1  0.5071290000000  0.5182240000000  0.4055480000000 1.0
C      1  0.5265770000000  0.3980670000000  0.5255200000000 1.0
C      1  0.5612320000000  0.5096890000000  0.4643490000000 1.0
C      1  0.5480730000000  0.4145290000000  0.5343790000000 1.0
C      1  0.5666450000000  0.5283160000000  0.4895240000000 1.0
C      1  0.5153200000000  0.4779100000000  0.6050230000000 1.0
C      1  0.5296250000000  0.5354490000000  0.6080090000000 1.0
C      1  0.4469890000000  0.4776290000000  0.4553150000000 1.0
C      1  0.3934540000000  0.5038690000000  0.4988910000000 1.0
C      1  0.4741650000000  0.5475000000000  0.4645150000000 1.0
C      1  0.5021220000000  0.4248220000000  0.4494290000000 1.0
C      1  0.5154590000000  0.4351300000000  0.4937030000000 1.0
C      1  0.4626040000000  0.4784300000000  0.5113470000000 1.0
C      1  0.4539520000000  0.4664580000000  0.5823250000000 1.0
C      1  0.4955580000000  0.4257290000000  0.4775170000000 1.0
C      1  0.4902630000000  0.5692860000000  0.5317990000000 1.0
C      1  0.4651040000000  0.5652480000000  0.5154840000000 1.0
C      1  0.5080730000000  0.5430250000000  0.3927360000000 1.0
C      1  0.5060370000000  0.4905540000000  0.4782920000000 1.0
C      1  0.4826370000000  0.5097910000000  0.4181710000000 1.0
C      1  0.5301430000000  0.5017060000000  0.4058380000000 1.0
C      1  0.4767360000000  0.4151040000000  0.5190250000000 1.0
C      1  0.4749620000000  0.5269130000000  0.5529130000000 1.0
C      1  0.4478960000000  0.4281680000000  0.4757690000000 1.0
C      1  0.5298820000000  0.5335640000000  0.5595210000000 1.0
C      1  0.5486840000000  0.4729410000000  0.5713880000000 1.0
C      1  0.5111450000000  0.5864490000000  0.5219030000000 1.0
C      1  0.5082090000000  0.5667330000000  0.3819190000000 1.0
C      1  0.5230480000000  0.4795170000000  0.5200640000000 1.0
C      1  0.4272230000000  0.4460420000000  0.4859740000000 1.0
C      1  0.4439590000000  0.5557370000000  0.5331060000000 1.0
C      1  0.4455650000000  0.5300420000000  0.5464580000000 1.0
C      1  0.5107980000000  0.5172400000000  0.4659460000000 1.0
C      1  0.5636510000000  0.4279730000000  0.4891380000000 1.0
C      1  0.5612480000000  0.6413310000000  0.5316800000000 1.0
C      1  0.5356780000000  0.5232170000000  0.4548050000000 1.0
C      1  0.5194440000000  0.4588800000000  0.5384070000000 1.0
C      1  0.5309030000000  0.5200100000000  0.5852740000000 1.0
C      1  0.4456980000000  0.4716060000000  0.5561190000000 1.0
C      1  0.5192290000000  0.6110400000000  0.5318470000000 1.0
C      1  0.4047290000000  0.4633080000000  0.5339110000000 1.0
C      1  0.4609600000000  0.4609780000000  0.5340640000000 1.0
C      1  0.4669670000000  0.5343550000000  0.4383000000000 1.0
C      1  0.4887150000000  0.5036670000000  0.5442860000000 1.0
C      1  0.5104710000000  0.5041170000000  0.5266460000000 1.0
C      1  0.4581440000000  0.5594260000000  0.4863850000000 1.0
C      1  0.4846790000000  0.4798360000000  0.4951700000000 1.0
C      1  0.5981250000000  0.5666960000000  0.4794730000000 1.0
C      1  0.5123460000000  0.5478610000000  0.4975840000000 1.0
C      1  0.4354780000000  0.5194300000000  0.4903610000000 1.0
C      1  0.5338030000000  0.4912610000000  0.5880880000000 1.0
C      1  0.5307440000000  0.4801810000000  0.4928280000000 1.0
C      1  0.5221780000000  0.5263220000000  0.5127960000000 1.0
C      1  0.5491950000000  0.4809230000000  0.4713470000000 1.0
END
