TITL C-627107-135-1458 0.00066068758399306 125000 -283.909622425883 0 0 48 (C1) n - 1
REM
REM in /home/nfs/bkarasulu/CARBON/AIRSS/Generating-Clusters/LCBOP/Only-C1/SD-CG/FIRE-CG
REM
REM
REM
REM
REM
REM ./C.cell (11c1c37f851c82e70ff6c80c92926a4b)
REM AIRSS Version 0.9.1 bugfix July 2018 build 013d7b7c2542+ Fri, 06 Jul 2018 19:26:36 +0100
REM compiler GCC version 9.2.1 20190827 (Red Hat 9.2.1-1)
REM options -cpp -mtune=generic -march=x86-64 -g -O0 -fpre-include=/usr/include/finclude/math-vector-fortran.h
REM seed 1319742568 -2113699622 1032236800 47537743 564200331 1580166452 -462013596 -96766996 1844131545 1834305973 2127356421 -33624619 893688787 -1622638436 1242339894 792323696 -514542814 -1530170255 -1784337090 -518929100 771034020 -1313654748 1569301585 867338286 941267115 -1834062237 660693251 1192354650 482119650 -159598781 -37391280 1559519422 -338423124
REM
CELL 1.54180   50.00000   50.00000   50.00000   90.00000   90.00000   90.00000
LATT -1
SFAC C  
C      1  0.4839060000000  0.4834640000000  0.5797470000000 1.0
C      1  0.5104100000000  0.4852600000000  0.5796470000000 1.0
C      1  0.5448990000000  0.4352470000000  0.4802930000000 1.0
C      1  0.4587890000000  0.4890050000000  0.5730470000000 1.0
C      1  0.4767430000000  0.5895770000000  0.5309430000000 1.0
C      1  0.4334490000000  0.5243130000000  0.5435330000000 1.0
C      1  0.4448110000000  0.5516390000000  0.3982100000000 1.0
C      1  0.4355410000000  0.5507470000000  0.5539730000000 1.0
C      1  0.4399530000000  0.5027490000000  0.5602260000000 1.0
C      1  0.5075550000000  0.5518540000000  0.5332430000000 1.0
C      1  0.4551660000000  0.4531530000000  0.5145170000000 1.0
C      1  0.4765540000000  0.4679870000000  0.5131890000000 1.0
C      1  0.5607240000000  0.4394590000000  0.5260730000000 1.0
C      1  0.4838040000000  0.4547840000000  0.4278900000000 1.0
C      1  0.4546510000000  0.5551100000000  0.5746390000000 1.0
C      1  0.4800480000000  0.5638930000000  0.5711300000000 1.0
C      1  0.4999910000000  0.5091710000000  0.5017440000000 1.0
C      1  0.5322900000000  0.5349270000000  0.4579940000000 1.0
C      1  0.5121210000000  0.4959220000000  0.4366360000000 1.0
C      1  0.5272820000000  0.3658130000000  0.4376140000000 1.0
C      1  0.5534500000000  0.5418320000000  0.4726050000000 1.0
C      1  0.5737830000000  0.5298750000000  0.5187250000000 1.0
C      1  0.5764870000000  0.4334530000000  0.5459390000000 1.0
C      1  0.5083230000000  0.5290880000000  0.5195240000000 1.0
C      1  0.5191400000000  0.4189360000000  0.4416910000000 1.0
C      1  0.5246130000000  0.4674840000000  0.5097130000000 1.0
C      1  0.4909820000000  0.5168570000000  0.4757470000000 1.0
C      1  0.5684100000000  0.5392980000000  0.4944530000000 1.0
C      1  0.5690020000000  0.5170430000000  0.5414980000000 1.0
C      1  0.4448440000000  0.5209530000000  0.4917030000000 1.0
C      1  0.5350320000000  0.4927130000000  0.5730510000000 1.0
C      1  0.4499330000000  0.5899510000000  0.5270940000000 1.0
C      1  0.4500500000000  0.5433000000000  0.4223470000000 1.0
C      1  0.4311440000000  0.5732440000000  0.5371890000000 1.0
C      1  0.5435450000000  0.4472770000000  0.5055500000000 1.0
C      1  0.5553490000000  0.5039320000000  0.5601360000000 1.0
C      1  0.4895490000000  0.4809690000000  0.4288120000000 1.0
C      1  0.4918390000000  0.5709830000000  0.5462460000000 1.0
C      1  0.4953930000000  0.4311770000000  0.4328070000000 1.0
C      1  0.4558950000000  0.5344340000000  0.4466180000000 1.0
C      1  0.4638110000000  0.5239630000000  0.4712820000000 1.0
C      1  0.5005300000000  0.4816460000000  0.5086990000000 1.0
C      1  0.5369170000000  0.4830100000000  0.4326400000000 1.0
C      1  0.5469550000000  0.4588680000000  0.4384900000000 1.0
C      1  0.5105950000000  0.5173860000000  0.4550340000000 1.0
C      1  0.5390500000000  0.4360300000000  0.4529550000000 1.0
C      1  0.5232000000000  0.3914880000000  0.4394370000000 1.0
C      1  0.4334930000000  0.5207350000000  0.5157270000000 1.0
END
