TITL C-627109-622-482 -1.44247281988992e-06 125000 -1167.04447333067 0 0 192 (C1) n - 1
REM
REM in /home/nfs/bkarasulu/CARBON/AIRSS/Generating-Clusters/LCBOP/Only-C1/SD-CG/FIRE-CG
REM
REM
REM
REM
REM
REM ./C.cell (11c1c37f851c82e70ff6c80c92926a4b)
REM AIRSS Version 0.9.1 bugfix July 2018 build 013d7b7c2542+ Fri, 06 Jul 2018 19:26:36 +0100
REM compiler GCC version 9.2.1 20190827 (Red Hat 9.2.1-1)
REM options -cpp -mtune=generic -march=x86-64 -g -O0 -fpre-include=/usr/include/finclude/math-vector-fortran.h
REM seed 1268370231 -164942399 1092631799 -1548889723 -201481724 1070349145 894821201 -1660294425 -1214370530 717383965 -1861857827 116939423 -1535402956 1618736750 -825428687 1056556748 1892686803 -287250202 -879587920 1441375917 991956232 -483945463 -741691777 -881580854 2037480661 -1126545595 -1563393951 1395861929 1153897239 -1500956495 1899319846 -1496577639 -85106402
REM
CELL 1.54180   50.00000   50.00000   50.00000   90.00000   90.00000   90.00000
LATT -1
SFAC C  
C      1  0.4876650000000  0.5260540000000  0.5329440000000 1.0
C      1  0.4405300000000  0.4880900000000  0.4973950000000 1.0
C      1  0.4850460000000  0.4219140000000  0.3744630000000 1.0
C      1  0.4075570000000  0.4933560000000  0.4499030000000 1.0
C      1  0.4509510000000  0.5191310000000  0.5937810000000 1.0
C      1  0.5636620000000  0.5628690000000  0.4804030000000 1.0
C      1  0.4349690000000  0.4778330000000  0.5667200000000 1.0
C      1  0.5555650000000  0.4966620000000  0.4551020000000 1.0
C      1  0.3895530000000  0.4834560000000  0.4292310000000 1.0
C      1  0.4924440000000  0.5619190000000  0.5060400000000 1.0
C      1  0.5997680000000  0.4635990000000  0.5177910000000 1.0
C      1  0.5794910000000  0.5820280000000  0.4398500000000 1.0
C      1  0.5413080000000  0.3812340000000  0.4732790000000 1.0
C      1  0.4208990000000  0.5188830000000  0.4522240000000 1.0
C      1  0.4957020000000  0.4598930000000  0.6441330000000 1.0
C      1  0.4261210000000  0.4469750000000  0.5123830000000 1.0
C      1  0.5440020000000  0.5736500000000  0.4974820000000 1.0
C      1  0.5361450000000  0.6115100000000  0.4447190000000 1.0
C      1  0.4241380000000  0.3958280000000  0.4964470000000 1.0
C      1  0.4331100000000  0.5885030000000  0.4865010000000 1.0
C      1  0.5158470000000  0.3957450000000  0.4713460000000 1.0
C      1  0.4491930000000  0.5190050000000  0.4510060000000 1.0
C      1  0.4130730000000  0.5454760000000  0.5972470000000 1.0
C      1  0.5524370000000  0.6178610000000  0.4944880000000 1.0
C      1  0.5097090000000  0.5731580000000  0.5719240000000 1.0
C      1  0.5509090000000  0.4899670000000  0.5502190000000 1.0
C      1  0.4884890000000  0.4198190000000  0.4340240000000 1.0
C      1  0.5574080000000  0.4976610000000  0.4044200000000 1.0
C      1  0.4878550000000  0.5506660000000  0.4568440000000 1.0
C      1  0.5154860000000  0.5752130000000  0.4952130000000 1.0
C      1  0.5789620000000  0.4504590000000  0.5014740000000 1.0
C      1  0.4634740000000  0.5410260000000  0.4607420000000 1.0
C      1  0.4746100000000  0.4479120000000  0.4995610000000 1.0
C      1  0.3683790000000  0.4399520000000  0.5004450000000 1.0
C      1  0.4089730000000  0.4693460000000  0.4681560000000 1.0
C      1  0.5007790000000  0.4017760000000  0.4489770000000 1.0
C      1  0.5574320000000  0.5951630000000  0.5123800000000 1.0
C      1  0.5257690000000  0.4001550000000  0.5710350000000 1.0
C      1  0.4708690000000  0.4375660000000  0.3931380000000 1.0
C      1  0.4770930000000  0.4857210000000  0.4684470000000 1.0
C      1  0.5119040000000  0.5027120000000  0.6309490000000 1.0
C      1  0.5162910000000  0.6050030000000  0.5380250000000 1.0
C      1  0.3932690000000  0.4972160000000  0.5499660000000 1.0
C      1  0.3612290000000  0.4875960000000  0.4978520000000 1.0
C      1  0.5085910000000  0.5842390000000  0.3895010000000 1.0
C      1  0.5322740000000  0.4613800000000  0.3854890000000 1.0
C      1  0.4349260000000  0.5191450000000  0.5324860000000 1.0
C      1  0.5110370000000  0.4198110000000  0.3680070000000 1.0
C      1  0.5597370000000  0.5261520000000  0.3980040000000 1.0
C      1  0.5623230000000  0.4956550000000  0.5988080000000 1.0
C      1  0.4820220000000  0.6068530000000  0.4976880000000 1.0
C      1  0.4481580000000  0.4037990000000  0.5098600000000 1.0
C      1  0.5062710000000  0.3846450000000  0.5598670000000 1.0
C      1  0.4815960000000  0.5811580000000  0.5737690000000 1.0
C      1  0.5848000000000  0.5761000000000  0.4668040000000 1.0
C      1  0.4591520000000  0.5989930000000  0.4793510000000 1.0
C      1  0.5000640000000  0.5254940000000  0.6229120000000 1.0
C      1  0.5028190000000  0.4367120000000  0.4971190000000 1.0
C      1  0.3869830000000  0.5030340000000  0.5792700000000 1.0
C      1  0.4265510000000  0.5116480000000  0.5061430000000 1.0
C      1  0.5337780000000  0.5707930000000  0.3906740000000 1.0
C      1  0.4374100000000  0.5592600000000  0.5592220000000 1.0
C      1  0.5901060000000  0.4645940000000  0.4327290000000 1.0
C      1  0.5175660000000  0.5279580000000  0.3739620000000 1.0
C      1  0.5395960000000  0.4604340000000  0.6245490000000 1.0
C      1  0.5683230000000  0.5477300000000  0.5779200000000 1.0
C      1  0.3913530000000  0.4474160000000  0.4593210000000 1.0
C      1  0.5317530000000  0.4357590000000  0.3742480000000 1.0
C      1  0.5713620000000  0.3944240000000  0.4335930000000 1.0
C      1  0.4667480000000  0.4758280000000  0.4922200000000 1.0
C      1  0.5289360000000  0.4868620000000  0.4644090000000 1.0
C      1  0.5289950000000  0.5868730000000  0.5571020000000 1.0
C      1  0.5309940000000  0.4997640000000  0.5671750000000 1.0
C      1  0.4896040000000  0.4291210000000  0.5560360000000 1.0
C      1  0.4877840000000  0.6065070000000  0.5282770000000 1.0
C      1  0.4655840000000  0.3877740000000  0.5256220000000 1.0
C      1  0.5540310000000  0.4664850000000  0.6002590000000 1.0
C      1  0.5126950000000  0.5179150000000  0.5229220000000 1.0
C      1  0.4688380000000  0.5359990000000  0.4024760000000 1.0
C      1  0.5777300000000  0.4048250000000  0.5273660000000 1.0
C      1  0.4236260000000  0.4591250000000  0.3792970000000 1.0
C      1  0.6116170000000  0.5687340000000  0.4718490000000 1.0
C      1  0.4425780000000  0.5476110000000  0.5877570000000 1.0
C      1  0.5629880000000  0.5355570000000  0.4777830000000 1.0
C      1  0.4727940000000  0.5975740000000  0.5517540000000 1.0
C      1  0.4607750000000  0.5820050000000  0.4280270000000 1.0
C      1  0.5572250000000  0.5967870000000  0.4306990000000 1.0
C      1  0.5821250000000  0.5410860000000  0.4069600000000 1.0
C      1  0.5019280000000  0.5058380000000  0.3812860000000 1.0
C      1  0.6163910000000  0.5381220000000  0.5810080000000 1.0
C      1  0.5131690000000  0.4804540000000  0.3765500000000 1.0
C      1  0.5138940000000  0.5464890000000  0.5811310000000 1.0
C      1  0.4707370000000  0.5049680000000  0.5806290000000 1.0
C      1  0.5353980000000  0.5310880000000  0.5363910000000 1.0
C      1  0.5518970000000  0.4470600000000  0.5172690000000 1.0
C      1  0.4145190000000  0.5945840000000  0.5345470000000 1.0
C      1  0.5518330000000  0.5881870000000  0.4038390000000 1.0
C      1  0.4945340000000  0.4677210000000  0.4258710000000 1.0
C      1  0.5414240000000  0.4555230000000  0.4353770000000 1.0
C      1  0.3973730000000  0.5174830000000  0.5045110000000 1.0
C      1  0.5170880000000  0.4704540000000  0.4433340000000 1.0
C      1  0.5896350000000  0.3997260000000  0.5034990000000 1.0
C      1  0.5161290000000  0.4747520000000  0.6330900000000 1.0
C      1  0.4196930000000  0.4688740000000  0.5906710000000 1.0
C      1  0.5828560000000  0.4869010000000  0.4487950000000 1.0
C      1  0.3878600000000  0.4691540000000  0.5352590000000 1.0
C      1  0.3486910000000  0.5403700000000  0.4520380000000 1.0
C      1  0.4840680000000  0.4423060000000  0.4180270000000 1.0
C      1  0.5317570000000  0.6148970000000  0.4735500000000 1.0
C      1  0.4752300000000  0.4203970000000  0.5778550000000 1.0
C      1  0.5642220000000  0.5197590000000  0.5003340000000 1.0
C      1  0.6018280000000  0.4539540000000  0.5448060000000 1.0
C      1  0.5441370000000  0.4210950000000  0.5642590000000 1.0
C      1  0.6083470000000  0.4901520000000  0.5115130000000 1.0
C      1  0.5027100000000  0.6055400000000  0.4054660000000 1.0
C      1  0.3630320000000  0.5266930000000  0.4689730000000 1.0
C      1  0.4704240000000  0.5614810000000  0.5935390000000 1.0
C      1  0.4757850000000  0.5140980000000  0.5547040000000 1.0
C      1  0.4621620000000  0.5606100000000  0.4114670000000 1.0
C      1  0.4806740000000  0.4546680000000  0.5460390000000 1.0
C      1  0.5382130000000  0.5424690000000  0.3863860000000 1.0
C      1  0.4115860000000  0.5449120000000  0.4599720000000 1.0
C      1  0.6055160000000  0.5010790000000  0.4595320000000 1.0
C      1  0.4735570000000  0.5484330000000  0.5227430000000 1.0
C      1  0.4077770000000  0.4476030000000  0.5346450000000 1.0
C      1  0.4016650000000  0.4063550000000  0.4854180000000 1.0
C      1  0.3951280000000  0.4812520000000  0.5957310000000 1.0
C      1  0.5093880000000  0.4823880000000  0.5676450000000 1.0
C      1  0.4657510000000  0.4974920000000  0.4457210000000 1.0
C      1  0.3749550000000  0.5103530000000  0.4880510000000 1.0
C      1  0.4636030000000  0.5963330000000  0.4508900000000 1.0
C      1  0.5928880000000  0.5646560000000  0.5278920000000 1.0
C      1  0.4323280000000  0.4452110000000  0.6001780000000 1.0
C      1  0.5833670000000  0.4145680000000  0.4202860000000 1.0
C      1  0.5429140000000  0.3769780000000  0.5023150000000 1.0
C      1  0.4936650000000  0.5435890000000  0.6023390000000 1.0
C      1  0.3685010000000  0.4654240000000  0.5136400000000 1.0
C      1  0.4217180000000  0.5833670000000  0.5589440000000 1.0
C      1  0.5494350000000  0.4404070000000  0.6406430000000 1.0
C      1  0.3847450000000  0.4286600000000  0.4798040000000 1.0
C      1  0.5773880000000  0.4532560000000  0.5587600000000 1.0
C      1  0.5310840000000  0.3999110000000  0.5164050000000 1.0
C      1  0.5932970000000  0.5397100000000  0.5665730000000 1.0
C      1  0.4151710000000  0.5966270000000  0.5820290000000 1.0
C      1  0.4224890000000  0.4669090000000  0.4924350000000 1.0
C      1  0.3926390000000  0.5290620000000  0.5898730000000 1.0
C      1  0.5618280000000  0.5236150000000  0.5951400000000 1.0
C      1  0.5504930000000  0.4446540000000  0.4632260000000 1.0
C      1  0.5138190000000  0.6168050000000  0.4274650000000 1.0
C      1  0.4814540000000  0.5103600000000  0.4008000000000 1.0
C      1  0.4050260000000  0.4260950000000  0.5514440000000 1.0
C      1  0.5805590000000  0.4083530000000  0.4780320000000 1.0
C      1  0.4788150000000  0.4912390000000  0.4218220000000 1.0
C      1  0.4200690000000  0.5982760000000  0.5090090000000 1.0
C      1  0.4894890000000  0.4854760000000  0.5873820000000 1.0
C      1  0.5123240000000  0.4898020000000  0.5170980000000 1.0
C      1  0.6383170000000  0.5201200000000  0.5339320000000 1.0
C      1  0.5535900000000  0.5247370000000  0.4543570000000 1.0
C      1  0.4469680000000  0.5453310000000  0.5358870000000 1.0
C      1  0.4457060000000  0.4479870000000  0.3875050000000 1.0
C      1  0.6145430000000  0.4928850000000  0.4844920000000 1.0
C      1  0.5109020000000  0.5503520000000  0.4440300000000 1.0
C      1  0.4195350000000  0.5682250000000  0.4713740000000 1.0
C      1  0.5560350000000  0.5757700000000  0.5584960000000 1.0
C      1  0.5107660000000  0.4091040000000  0.4969160000000 1.0
C      1  0.5741830000000  0.4363470000000  0.4763350000000 1.0
C      1  0.5590400000000  0.4439900000000  0.5796160000000 1.0
C      1  0.3864830000000  0.5197490000000  0.5313960000000 1.0
C      1  0.4853310000000  0.3809660000000  0.5428950000000 1.0
C      1  0.5894290000000  0.5628500000000  0.4209700000000 1.0
C      1  0.5011070000000  0.4738390000000  0.5405730000000 1.0
C      1  0.5234530000000  0.4802730000000  0.4921210000000 1.0
C      1  0.4246240000000  0.4990630000000  0.5510540000000 1.0
C      1  0.6184390000000  0.5241530000000  0.4502650000000 1.0
C      1  0.4559630000000  0.4589770000000  0.5614580000000 1.0
C      1  0.6248510000000  0.5480430000000  0.4607850000000 1.0
C      1  0.5650950000000  0.3911240000000  0.4608460000000 1.0
C      1  0.5718120000000  0.5832670000000  0.5346260000000 1.0
C      1  0.5581670000000  0.4655250000000  0.5405430000000 1.0
C      1  0.5082490000000  0.6017290000000  0.4846580000000 1.0
C      1  0.4536220000000  0.4377930000000  0.5831230000000 1.0
C      1  0.4513780000000  0.4322840000000  0.5092110000000 1.0
C      1  0.5478310000000  0.4697480000000  0.4083950000000 1.0
C      1  0.3807460000000  0.4576060000000  0.4345070000000 1.0
C      1  0.5341720000000  0.5385050000000  0.4403510000000 1.0
C      1  0.5911070000000  0.5350920000000  0.5370880000000 1.0
C      1  0.5915180000000  0.4400820000000  0.4219480000000 1.0
C      1  0.5626800000000  0.5279220000000  0.5270750000000 1.0
C      1  0.6119990000000  0.5141340000000  0.5276560000000 1.0
C      1  0.5277750000000  0.5280370000000  0.5648060000000 1.0
C      1  0.5503320000000  0.4186820000000  0.5320430000000 1.0
C      1  0.5298950000000  0.4514630000000  0.4948180000000 1.0
END
