TITL C-627106-156-1200 7121.57081790761 125000 -884.23005439074 0 0 145 (C1) n - 1
REM
REM in /home/nfs/bkarasulu/CARBON/AIRSS/Generating-Clusters/LCBOP/Only-C1/SD-CG/FIRE-CG
REM
REM
REM
REM
REM
REM ./C.cell (11c1c37f851c82e70ff6c80c92926a4b)
REM AIRSS Version 0.9.1 bugfix July 2018 build 013d7b7c2542+ Fri, 06 Jul 2018 19:26:36 +0100
REM compiler GCC version 9.2.1 20190827 (Red Hat 9.2.1-1)
REM options -cpp -mtune=generic -march=x86-64 -g -O0 -fpre-include=/usr/include/finclude/math-vector-fortran.h
REM seed 1865761693 -388248724 -676032280 1650642252 1396918231 1514749796 -477100730 -1160214260 -1521678613 -589083798 -1596958960 -49319476 1846876958 -2070826053 -368289299 131989550 1809320392 879864371 454714784 -1599898945 -642180722 407500327 1046042833 -1074349724 1273920049 1750829104 -485303255 -2096017684 -374057111 -735619000 1044766353 1742095457 1120285984
REM
CELL 1.54180   50.00000   50.00000   50.00000   90.00000   90.00000   90.00000
LATT -1
SFAC C  
C      1  0.5575160000000  0.5465490000000  0.5353520000000 1.0
C      1  0.4693710000000  0.3983340000000  0.4854810000000 1.0
C      1  0.5360040000000  0.4156680000000  0.5463980000000 1.0
C      1  0.4779070000000  0.3794820000000  0.4684060000000 1.0
C      1  0.3814780000000  0.4862630000000  0.5698440000000 1.0
C      1  0.3715160000000  0.4640120000000  0.5234440000000 1.0
C      1  0.5561720000000  0.5186210000000  0.5280710000000 1.0
C      1  0.4536740000000  0.5702570000000  0.6184860000000 1.0
C      1  0.5358990000000  0.5215460000000  0.4051210000000 1.0
C      1  0.4950230000000  0.5915360000000  0.5998990000000 1.0
C      1  0.5205800000000  0.4886180000000  0.3628510000000 1.0
C      1  0.4382070000000  0.4745770000000  0.5571220000000 1.0
C      1  0.5189000000000  0.4958380000000  0.4387480000000 1.0
C      1  0.5805220000000  0.4480590000000  0.4431470000000 1.0
C      1  0.5910030000000  0.5513550000000  0.4508590000000 1.0
C      1  0.5989570000000  0.4547920000000  0.4647580000000 1.0
C      1  0.4823400000000  0.4251780000000  0.5565050000000 1.0
C      1  0.4310160000000  0.5585460000000  0.6091160000000 1.0
C      1  0.5936430000000  0.4894540000000  0.6147550000000 1.0
C      1  0.5566670000000  0.5784790000000  0.4751610000000 1.0
C      1  0.5899150000000  0.4869480000000  0.5197210000000 1.0
C      1  0.5946070000000  0.4837500000000  0.6420160000000 1.0
C      1  0.4829030000000  0.5310820000000  0.4851600000000 1.0
C      1  0.5526080000000  0.4258660000000  0.4771770000000 1.0
C      1  0.4630720000000  0.4684410000000  0.4477430000000 1.0
C      1  0.4126250000000  0.5211170000000  0.5841930000000 1.0
C      1  0.5394800000000  0.4716150000000  0.4775680000000 1.0
C      1  0.5428420000000  0.5270900000000  0.3784690000000 1.0
C      1  0.5404320000000  0.4474140000000  0.4916780000000 1.0
C      1  0.4424590000000  0.5179050000000  0.4146890000000 1.0
C      1  0.5130230000000  0.5951780000000  0.4891880000000 1.0
C      1  0.4583420000000  0.4400050000000  0.6001610000000 1.0
C      1  0.5213920000000  0.4966050000000  0.4102590000000 1.0
C      1  0.4514640000000  0.5524550000000  0.5641260000000 1.0
C      1  0.4373400000000  0.4578870000000  0.4411150000000 1.0
C      1  0.4050470000000  0.4939290000000  0.5833560000000 1.0
C      1  0.5440400000000  0.5665220000000  0.5197840000000 1.0
C      1  0.4192950000000  0.5063020000000  0.4285080000000 1.0
C      1  0.5169310000000  0.3987730000000  0.5222820000000 1.0
C      1  0.4839860000000  0.5896370000000  0.4947720000000 1.0
C      1  0.4150670000000  0.5734480000000  0.4589030000000 1.0
C      1  0.5460280000000  0.4429510000000  0.5404700000000 1.0
C      1  0.5589790000000  0.4307210000000  0.4494300000000 1.0
C      1  0.5011830000000  0.4550020000000  0.3928580000000 1.0
C      1  0.4189050000000  0.4781580000000  0.4331670000000 1.0
C      1  0.5379360000000  0.5358640000000  0.4298350000000 1.0
C      1  0.4889460000000  0.6068880000000  0.5536510000000 1.0
C      1  0.4891710000000  0.5903600000000  0.4470860000000 1.0
C      1  0.5902330000000  0.4962950000000  0.4448830000000 1.0
C      1  0.4947390000000  0.4328240000000  0.4536940000000 1.0
C      1  0.5130720000000  0.5084410000000  0.5212830000000 1.0
C      1  0.4548590000000  0.5378290000000  0.5373960000000 1.0
C      1  0.4249830000000  0.4106440000000  0.5169170000000 1.0
C      1  0.4212830000000  0.5734130000000  0.4864570000000 1.0
C      1  0.5756940000000  0.4763010000000  0.5977670000000 1.0
C      1  0.4489620000000  0.4198410000000  0.5267060000000 1.0
C      1  0.5375370000000  0.5812330000000  0.4962660000000 1.0
C      1  0.6361490000000  0.4826490000000  0.5451160000000 1.0
C      1  0.4211900000000  0.5925430000000  0.5510400000000 1.0
C      1  0.4098700000000  0.5558280000000  0.4373400000000 1.0
C      1  0.4469170000000  0.5815670000000  0.5561050000000 1.0
C      1  0.5864050000000  0.5494010000000  0.5800650000000 1.0
C      1  0.4361080000000  0.5413700000000  0.3996600000000 1.0
C      1  0.5970170000000  0.4830890000000  0.4704310000000 1.0
C      1  0.4767360000000  0.4506340000000  0.4657900000000 1.0
C      1  0.5952310000000  0.4789260000000  0.6676190000000 1.0
C      1  0.5532240000000  0.4933630000000  0.4890900000000 1.0
C      1  0.5099570000000  0.4267710000000  0.4306370000000 1.0
C      1  0.4404150000000  0.4160600000000  0.4725420000000 1.0
C      1  0.5287960000000  0.4689390000000  0.5917380000000 1.0
C      1  0.4380250000000  0.4575880000000  0.6012870000000 1.0
C      1  0.3794980000000  0.4501820000000  0.5020500000000 1.0
C      1  0.4134970000000  0.5491980000000  0.4989310000000 1.0
C      1  0.5797430000000  0.4739540000000  0.4287980000000 1.0
C      1  0.6372280000000  0.5751750000000  0.4653360000000 1.0
C      1  0.5665890000000  0.5663990000000  0.4516860000000 1.0
C      1  0.4766820000000  0.5500870000000  0.5821990000000 1.0
C      1  0.6443070000000  0.4901680000000  0.5693370000000 1.0
C      1  0.4210610000000  0.5608950000000  0.4115050000000 1.0
C      1  0.4757790000000  0.4284790000000  0.5833790000000 1.0
C      1  0.4982220000000  0.4860430000000  0.5162110000000 1.0
C      1  0.5817330000000  0.4903310000000  0.4928600000000 1.0
C      1  0.4354140000000  0.5189160000000  0.5291950000000 1.0
C      1  0.5134400000000  0.4796320000000  0.3888720000000 1.0
C      1  0.5243610000000  0.4741840000000  0.4546980000000 1.0
C      1  0.4037910000000  0.5275250000000  0.4405600000000 1.0
C      1  0.5411410000000  0.4022540000000  0.5693890000000 1.0
C      1  0.4373470000000  0.4926620000000  0.5378060000000 1.0
C      1  0.4277060000000  0.4127130000000  0.4256090000000 1.0
C      1  0.4740790000000  0.5508420000000  0.4655890000000 1.0
C      1  0.6350540000000  0.5007160000000  0.5920280000000 1.0
C      1  0.4999490000000  0.6065210000000  0.5781160000000 1.0
C      1  0.4696750000000  0.4570790000000  0.4927820000000 1.0
C      1  0.5350780000000  0.5786790000000  0.4121750000000 1.0
C      1  0.4752440000000  0.5783920000000  0.4698240000000 1.0
C      1  0.5574900000000  0.4678780000000  0.5527470000000 1.0
C      1  0.6150330000000  0.5636790000000  0.4579640000000 1.0
C      1  0.5349650000000  0.5111170000000  0.3579900000000 1.0
C      1  0.5302080000000  0.4498610000000  0.5178700000000 1.0
C      1  0.5112230000000  0.6035840000000  0.4605260000000 1.0
C      1  0.4847700000000  0.4468990000000  0.5375180000000 1.0
C      1  0.5366400000000  0.5132920000000  0.5044530000000 1.0
C      1  0.6108100000000  0.5090410000000  0.6033670000000 1.0
C      1  0.6157700000000  0.4813770000000  0.5281090000000 1.0
C      1  0.5716860000000  0.5536490000000  0.5583770000000 1.0
C      1  0.4770590000000  0.5445960000000  0.4369770000000 1.0
C      1  0.4337470000000  0.5925810000000  0.5042970000000 1.0
C      1  0.5678210000000  0.4921130000000  0.5378780000000 1.0
C      1  0.3952360000000  0.4335180000000  0.4882250000000 1.0
C      1  0.4624890000000  0.5943890000000  0.5123500000000 1.0
C      1  0.5483980000000  0.5618290000000  0.4304880000000 1.0
C      1  0.5909950000000  0.5241450000000  0.4428870000000 1.0
C      1  0.4980580000000  0.4300330000000  0.4050370000000 1.0
C      1  0.3713790000000  0.4757210000000  0.5474310000000 1.0
C      1  0.5012200000000  0.5314250000000  0.5315520000000 1.0
C      1  0.5511700000000  0.3996500000000  0.4866750000000 1.0
C      1  0.4775200000000  0.5699100000000  0.6032680000000 1.0
C      1  0.5246080000000  0.5217820000000  0.4512930000000 1.0
C      1  0.4161720000000  0.6009220000000  0.5255570000000 1.0
C      1  0.4663470000000  0.5184350000000  0.4304910000000 1.0
C      1  0.5060050000000  0.4613950000000  0.5265000000000 1.0
C      1  0.4181870000000  0.4174990000000  0.4906070000000 1.0
C      1  0.4845830000000  0.4091210000000  0.3925520000000 1.0
C      1  0.6003640000000  0.5341470000000  0.5967630000000 1.0
C      1  0.4685660000000  0.4968180000000  0.4501220000000 1.0
C      1  0.4774270000000  0.5394990000000  0.5201530000000 1.0
C      1  0.4772820000000  0.4842780000000  0.4976880000000 1.0
C      1  0.5177080000000  0.5265300000000  0.4773680000000 1.0
C      1  0.5539760000000  0.4707830000000  0.5810610000000 1.0
C      1  0.4290820000000  0.5437860000000  0.5845040000000 1.0
C      1  0.5342100000000  0.3874870000000  0.5033720000000 1.0
C      1  0.4880170000000  0.3977270000000  0.5165600000000 1.0
C      1  0.4353110000000  0.4290310000000  0.4465320000000 1.0
C      1  0.4888910000000  0.5701120000000  0.4259370000000 1.0
C      1  0.4709950000000  0.4047280000000  0.5386100000000 1.0
C      1  0.4674750000000  0.5946500000000  0.5405800000000 1.0
C      1  0.5379500000000  0.4240990000000  0.4320620000000 1.0
C      1  0.4379640000000  0.5103590000000  0.4835790000000 1.0
C      1  0.4263100000000  0.4747870000000  0.5825830000000 1.0
C      1  0.4244100000000  0.5241320000000  0.5038430000000 1.0
C      1  0.5086330000000  0.5752890000000  0.4064650000000 1.0
C      1  0.4675440000000  0.5056700000000  0.4796920000000 1.0
C      1  0.4734060000000  0.3889090000000  0.3804800000000 1.0
C      1  0.4631560000000  0.4436010000000  0.5171100000000 1.0
C      1  0.4933020000000  0.5284840000000  0.5822920000000 1.0
END
