TITL C-627106-156-1595 1966.76059269695 125000 -1117.65327665533 0 0 181 (C1) n - 1
REM
REM in /home/nfs/bkarasulu/CARBON/AIRSS/Generating-Clusters/LCBOP/Only-C1/SD-CG/FIRE-CG
REM
REM
REM
REM
REM
REM ./C.cell (11c1c37f851c82e70ff6c80c92926a4b)
REM AIRSS Version 0.9.1 bugfix July 2018 build 013d7b7c2542+ Fri, 06 Jul 2018 19:26:36 +0100
REM compiler GCC version 9.2.1 20190827 (Red Hat 9.2.1-1)
REM options -cpp -mtune=generic -march=x86-64 -g -O0 -fpre-include=/usr/include/finclude/math-vector-fortran.h
REM seed -990710958 1697735978 1319354259 -585523922 770631025 1961107291 2042757875 2088302571 -283323237 -142503206 2057523748 -1445189264 889484581 505373856 1709435549 -1458087110 -1322305997 -1509097331 2068455445 -846770073 163909997 895140398 -494838160 -572420227 2022478409 1829335480 1371752153 -994474633 -216889657 1027532212 -1447122690 1218373618 -99874221
REM
CELL 1.54180   50.00000   50.00000   50.00000   90.00000   90.00000   90.00000
LATT -1
SFAC C  
C      1  0.4214150000000  0.5515540000000  0.5449890000000 1.0
C      1  0.4512570000000  0.4406330000000  0.5121430000000 1.0
C      1  0.4322400000000  0.4977620000000  0.6054590000000 1.0
C      1  0.4715310000000  0.4902840000000  0.4185410000000 1.0
C      1  0.5346590000000  0.4506530000000  0.5334560000000 1.0
C      1  0.6288940000000  0.5325780000000  0.4951340000000 1.0
C      1  0.4784500000000  0.3953700000000  0.5447850000000 1.0
C      1  0.5004850000000  0.5720520000000  0.6070990000000 1.0
C      1  0.4127430000000  0.5822770000000  0.4783070000000 1.0
C      1  0.4988600000000  0.5851580000000  0.5817700000000 1.0
C      1  0.4986190000000  0.5264030000000  0.5056860000000 1.0
C      1  0.4052170000000  0.5484850000000  0.5202910000000 1.0
C      1  0.4598480000000  0.4729360000000  0.5558810000000 1.0
C      1  0.4540310000000  0.4619780000000  0.4518820000000 1.0
C      1  0.4770160000000  0.5781030000000  0.5353210000000 1.0
C      1  0.5149850000000  0.5054280000000  0.5142390000000 1.0
C      1  0.4746520000000  0.5106920000000  0.3787310000000 1.0
C      1  0.5317610000000  0.3826030000000  0.4613040000000 1.0
C      1  0.5277580000000  0.6378400000000  0.4833170000000 1.0
C      1  0.6195490000000  0.5132300000000  0.4441750000000 1.0
C      1  0.5588690000000  0.5247410000000  0.5170000000000 1.0
C      1  0.4676550000000  0.5557460000000  0.4085260000000 1.0
C      1  0.4067440000000  0.5750560000000  0.5059880000000 1.0
C      1  0.4533800000000  0.4274920000000  0.6028080000000 1.0
C      1  0.5529460000000  0.4635250000000  0.4920470000000 1.0
C      1  0.4908290000000  0.6231410000000  0.5170270000000 1.0
C      1  0.4797730000000  0.4200420000000  0.6099820000000 1.0
C      1  0.4893310000000  0.5685250000000  0.5603160000000 1.0
C      1  0.4747380000000  0.3883440000000  0.4877410000000 1.0
C      1  0.5287480000000  0.4583670000000  0.5059820000000 1.0
C      1  0.4819330000000  0.5551470000000  0.6207420000000 1.0
C      1  0.4711320000000  0.6037040000000  0.5215070000000 1.0
C      1  0.6048330000000  0.4927550000000  0.5564440000000 1.0
C      1  0.4999690000000  0.5891410000000  0.4237340000000 1.0
C      1  0.6097530000000  0.5668940000000  0.4653520000000 1.0
C      1  0.5563290000000  0.4134690000000  0.5193540000000 1.0
C      1  0.4256210000000  0.5801120000000  0.5503330000000 1.0
C      1  0.4490840000000  0.4755630000000  0.4274230000000 1.0
C      1  0.4380220000000  0.5751360000000  0.5991020000000 1.0
C      1  0.4538250000000  0.5157430000000  0.5325380000000 1.0
C      1  0.6008700000000  0.4660280000000  0.5434620000000 1.0
C      1  0.4585910000000  0.5320290000000  0.5750000000000 1.0
C      1  0.4672850000000  0.5573780000000  0.5182890000000 1.0
C      1  0.5205360000000  0.6287990000000  0.5799770000000 1.0
C      1  0.5356660000000  0.5599940000000  0.4922660000000 1.0
C      1  0.6137760000000  0.5152970000000  0.5400120000000 1.0
C      1  0.5628240000000  0.5637090000000  0.4491920000000 1.0
C      1  0.5090510000000  0.5207960000000  0.5707900000000 1.0
C      1  0.3620690000000  0.4599950000000  0.5071240000000 1.0
C      1  0.5175130000000  0.5444350000000  0.4249230000000 1.0
C      1  0.4721360000000  0.6246550000000  0.5783740000000 1.0
C      1  0.4317390000000  0.4037340000000  0.3948940000000 1.0
C      1  0.4441290000000  0.5518650000000  0.4760630000000 1.0
C      1  0.6144240000000  0.5654650000000  0.5378690000000 1.0
C      1  0.4801070000000  0.4421570000000  0.5087240000000 1.0
C      1  0.5676140000000  0.4775660000000  0.5129620000000 1.0
C      1  0.6138040000000  0.4857940000000  0.4999870000000 1.0
C      1  0.5946380000000  0.4730100000000  0.5166420000000 1.0
C      1  0.5024260000000  0.4007400000000  0.5599300000000 1.0
C      1  0.5394920000000  0.6147490000000  0.4386440000000 1.0
C      1  0.5042600000000  0.4312890000000  0.6010030000000 1.0
C      1  0.4671410000000  0.4634180000000  0.6316130000000 1.0
C      1  0.5702880000000  0.4360970000000  0.3780820000000 1.0
C      1  0.6049230000000  0.5415900000000  0.5491530000000 1.0
C      1  0.4379740000000  0.4982930000000  0.4921640000000 1.0
C      1  0.5005480000000  0.4189070000000  0.5115780000000 1.0
C      1  0.5107130000000  0.6347840000000  0.5036130000000 1.0
C      1  0.5098080000000  0.5496820000000  0.4919760000000 1.0
C      1  0.4342490000000  0.5905820000000  0.5753720000000 1.0
C      1  0.5969490000000  0.4739670000000  0.4285670000000 1.0
C      1  0.4802560000000  0.4014350000000  0.4620720000000 1.0
C      1  0.4378630000000  0.5999520000000  0.4759960000000 1.0
C      1  0.5347470000000  0.4203970000000  0.4303020000000 1.0
C      1  0.4259320000000  0.4704630000000  0.6071120000000 1.0
C      1  0.4776490000000  0.4812450000000  0.5735930000000 1.0
C      1  0.4403970000000  0.4132820000000  0.5811170000000 1.0
C      1  0.6102850000000  0.4443520000000  0.4756560000000 1.0
C      1  0.6077730000000  0.4556870000000  0.4097500000000 1.0
C      1  0.4843870000000  0.4293490000000  0.4641570000000 1.0
C      1  0.4548570000000  0.5637400000000  0.6170120000000 1.0
C      1  0.5216340000000  0.3963870000000  0.4390590000000 1.0
C      1  0.5212070000000  0.4759780000000  0.5879650000000 1.0
C      1  0.6153340000000  0.4851530000000  0.4488320000000 1.0
C      1  0.6196580000000  0.5749410000000  0.5132400000000 1.0
C      1  0.3746400000000  0.4785100000000  0.5238920000000 1.0
C      1  0.4827290000000  0.5982510000000  0.4447530000000 1.0
C      1  0.4025970000000  0.4589290000000  0.5968590000000 1.0
C      1  0.6171390000000  0.4723810000000  0.4745450000000 1.0
C      1  0.4821950000000  0.5109280000000  0.4349630000000 1.0
C      1  0.5068240000000  0.4711880000000  0.4469060000000 1.0
C      1  0.4929040000000  0.4743790000000  0.6270060000000 1.0
C      1  0.4896430000000  0.5291930000000  0.6300920000000 1.0
C      1  0.5451650000000  0.4750510000000  0.5425660000000 1.0
C      1  0.6219300000000  0.5108640000000  0.5117360000000 1.0
C      1  0.4468110000000  0.5697040000000  0.4252160000000 1.0
C      1  0.4665360000000  0.5165270000000  0.4571870000000 1.0
C      1  0.5576850000000  0.4329130000000  0.5405380000000 1.0
C      1  0.5362520000000  0.5161850000000  0.5309800000000 1.0
C      1  0.5816450000000  0.5419600000000  0.5655310000000 1.0
C      1  0.5821220000000  0.4954130000000  0.5749390000000 1.0
C      1  0.5908300000000  0.5560020000000  0.4472000000000 1.0
C      1  0.4954290000000  0.5027160000000  0.6316800000000 1.0
C      1  0.4739800000000  0.5298890000000  0.5194030000000 1.0
C      1  0.3991290000000  0.3878250000000  0.5754020000000 1.0
C      1  0.4979620000000  0.6135170000000  0.5800770000000 1.0
C      1  0.4981540000000  0.4331910000000  0.4006570000000 1.0
C      1  0.4512940000000  0.4884040000000  0.5360630000000 1.0
C      1  0.5801810000000  0.4489440000000  0.5569160000000 1.0
C      1  0.5644570000000  0.5196240000000  0.5711610000000 1.0
C      1  0.4469650000000  0.6158170000000  0.5757680000000 1.0
C      1  0.5857980000000  0.4310920000000  0.4810100000000 1.0
C      1  0.5493800000000  0.4361750000000  0.4487590000000 1.0
C      1  0.4800590000000  0.4853130000000  0.3918210000000 1.0
C      1  0.5363740000000  0.5212610000000  0.5595300000000 1.0
C      1  0.4477000000000  0.5177000000000  0.5966540000000 1.0
C      1  0.4823910000000  0.4114740000000  0.4125950000000 1.0
C      1  0.5138910000000  0.4168610000000  0.5784680000000 1.0
C      1  0.4866030000000  0.5401870000000  0.5688290000000 1.0
C      1  0.3968200000000  0.4931520000000  0.5141180000000 1.0
C      1  0.3655140000000  0.4826010000000  0.5493530000000 1.0
C      1  0.4888760000000  0.4580350000000  0.3886640000000 1.0
C      1  0.4465040000000  0.4525890000000  0.6152880000000 1.0
C      1  0.4179190000000  0.5136680000000  0.4528220000000 1.0
C      1  0.5546660000000  0.5689470000000  0.4758710000000 1.0
C      1  0.3974570000000  0.4349250000000  0.5862060000000 1.0
C      1  0.5960840000000  0.5290150000000  0.4400020000000 1.0
C      1  0.4659610000000  0.5350610000000  0.3883630000000 1.0
C      1  0.4232880000000  0.5926190000000  0.5237530000000 1.0
C      1  0.4199830000000  0.4797840000000  0.5035540000000 1.0
C      1  0.5103060000000  0.5171890000000  0.4314350000000 1.0
C      1  0.4338550000000  0.4505120000000  0.4685850000000 1.0
C      1  0.4414510000000  0.5094680000000  0.4674790000000 1.0
C      1  0.3519270000000  0.4424460000000  0.4907430000000 1.0
C      1  0.5101190000000  0.4590700000000  0.6083080000000 1.0
C      1  0.4301530000000  0.4533180000000  0.4969430000000 1.0
C      1  0.4154210000000  0.5279070000000  0.4278930000000 1.0
C      1  0.5667680000000  0.5215310000000  0.4920180000000 1.0
C      1  0.5402770000000  0.5642550000000  0.4308780000000 1.0
C      1  0.5230180000000  0.4907350000000  0.4328260000000 1.0
C      1  0.5310770000000  0.3876600000000  0.4875570000000 1.0
C      1  0.4570610000000  0.4054050000000  0.4024730000000 1.0
C      1  0.4945770000000  0.5926450000000  0.4696510000000 1.0
C      1  0.6336200000000  0.4469220000000  0.4124060000000 1.0
C      1  0.5718000000000  0.4883660000000  0.4275080000000 1.0
C      1  0.5458920000000  0.4851350000000  0.4162520000000 1.0
C      1  0.4832920000000  0.4592280000000  0.4627170000000 1.0
C      1  0.5449550000000  0.4303630000000  0.3837000000000 1.0
C      1  0.4410480000000  0.5324010000000  0.5521650000000 1.0
C      1  0.3807810000000  0.4047110000000  0.3820050000000 1.0
C      1  0.5263860000000  0.4294050000000  0.4044090000000 1.0
C      1  0.4230220000000  0.5549080000000  0.4337000000000 1.0
C      1  0.5414040000000  0.4923430000000  0.3631980000000 1.0
C      1  0.4946970000000  0.5618190000000  0.4160390000000 1.0
C      1  0.5703900000000  0.4685670000000  0.5782550000000 1.0
C      1  0.4254290000000  0.4826550000000  0.4131800000000 1.0
C      1  0.4907930000000  0.5677250000000  0.4813180000000 1.0
C      1  0.4650600000000  0.5620940000000  0.4905670000000 1.0
C      1  0.4928470000000  0.3966200000000  0.4359370000000 1.0
C      1  0.4118220000000  0.4114410000000  0.5806190000000 1.0
C      1  0.5790730000000  0.4126710000000  0.5016870000000 1.0
C      1  0.5610880000000  0.5136550000000  0.4674500000000 1.0
C      1  0.4542760000000  0.5925970000000  0.4450560000000 1.0
C      1  0.5924970000000  0.4463650000000  0.3883350000000 1.0
C      1  0.5286480000000  0.5914610000000  0.4274660000000 1.0
C      1  0.4060770000000  0.4040150000000  0.3882690000000 1.0
C      1  0.5093140000000  0.4793040000000  0.5034440000000 1.0
C      1  0.4151260000000  0.5075800000000  0.4080830000000 1.0
C      1  0.5624450000000  0.4455990000000  0.4720040000000 1.0
C      1  0.5016420000000  0.4942180000000  0.5785500000000 1.0
C      1  0.5432790000000  0.4735430000000  0.5715380000000 1.0
C      1  0.5292330000000  0.4078670000000  0.5078030000000 1.0
C      1  0.4206760000000  0.5601510000000  0.4619820000000 1.0
C      1  0.5430090000000  0.4860500000000  0.3884500000000 1.0
C      1  0.6217860000000  0.5595170000000  0.4897450000000 1.0
C      1  0.5732300000000  0.5122640000000  0.4426450000000 1.0
C      1  0.3963410000000  0.5221270000000  0.5141630000000 1.0
C      1  0.4871580000000  0.4654620000000  0.4925390000000 1.0
C      1  0.5383930000000  0.6310800000000  0.4597840000000 1.0
C      1  0.4453610000000  0.6041310000000  0.5069020000000 1.0
C      1  0.4817580000000  0.3956600000000  0.5155080000000 1.0
C      1  0.4548670000000  0.4012410000000  0.5595680000000 1.0
END
