TITL C-627111-6168-936 -1.28769132837485e-06 125000 -1060.86364849127 0 0 173 (C1) n - 1
REM
REM in /home/nfs/bkarasulu/CARBON/AIRSS/Generating-Clusters/LCBOP/Only-C1/SD-CG/FIRE-CG
REM
REM
REM
REM
REM
REM ./C.cell (11c1c37f851c82e70ff6c80c92926a4b)
REM AIRSS Version 0.9.1 bugfix July 2018 build 013d7b7c2542+ Fri, 06 Jul 2018 19:26:36 +0100
REM compiler GCC version 9.2.1 20190827 (Red Hat 9.2.1-1)
REM options -cpp -mtune=generic -march=x86-64 -g -O0 -fpre-include=/usr/include/finclude/math-vector-fortran.h
REM seed 1206404845 986902024 518939244 1407821832 1152881769 1945771688 -1906589280 -1541979333 -312124604 -1933151925 -706260405 1430502642 -866999737 758623099 726261703 620129835 1067931055 -1268981853 -1094721721 1118587026 1194359251 1228581080 -1094307591 573084155 -1408943000 -447561584 -1414550803 1709208003 -1804260271 -1545559977 -1572298609 -1436491858 -1868747918
REM
CELL 1.54180   50.00000   50.00000   50.00000   90.00000   90.00000   90.00000
LATT -1
SFAC C  
C      1  0.5896720000000  0.5895280000000  0.4601910000000 1.0
C      1  0.5738950000000  0.4481990000000  0.4524140000000 1.0
C      1  0.4371140000000  0.4359280000000  0.5032440000000 1.0
C      1  0.5799370000000  0.4909440000000  0.5010720000000 1.0
C      1  0.4760440000000  0.4850240000000  0.5336440000000 1.0
C      1  0.4528560000000  0.3930590000000  0.5651650000000 1.0
C      1  0.3993430000000  0.4830110000000  0.5279800000000 1.0
C      1  0.5326270000000  0.3901580000000  0.5051180000000 1.0
C      1  0.5377080000000  0.4525350000000  0.4153760000000 1.0
C      1  0.4549610000000  0.4145500000000  0.4115540000000 1.0
C      1  0.5199170000000  0.4418390000000  0.4566720000000 1.0
C      1  0.5458950000000  0.5276420000000  0.5191790000000 1.0
C      1  0.5809860000000  0.4024980000000  0.5233100000000 1.0
C      1  0.5126420000000  0.6363520000000  0.4462000000000 1.0
C      1  0.5516910000000  0.5064540000000  0.4349940000000 1.0
C      1  0.4257420000000  0.4283330000000  0.3186280000000 1.0
C      1  0.5577720000000  0.4908090000000  0.4573730000000 1.0
C      1  0.5710790000000  0.5693750000000  0.4584320000000 1.0
C      1  0.6936190000000  0.5229490000000  0.5362070000000 1.0
C      1  0.5371960000000  0.6015470000000  0.5751670000000 1.0
C      1  0.4850660000000  0.5633650000000  0.4030730000000 1.0
C      1  0.5153950000000  0.4260150000000  0.4796400000000 1.0
C      1  0.4528030000000  0.5681830000000  0.5112560000000 1.0
C      1  0.5153160000000  0.4358290000000  0.5069090000000 1.0
C      1  0.4771950000000  0.5219730000000  0.4920300000000 1.0
C      1  0.4520470000000  0.4678630000000  0.4327290000000 1.0
C      1  0.3958960000000  0.4348610000000  0.5402490000000 1.0
C      1  0.4356040000000  0.5118430000000  0.4014910000000 1.0
C      1  0.5008390000000  0.4429760000000  0.3850290000000 1.0
C      1  0.5875330000000  0.4539860000000  0.5764770000000 1.0
C      1  0.5098070000000  0.4661490000000  0.5604870000000 1.0
C      1  0.4201280000000  0.4273030000000  0.5536240000000 1.0
C      1  0.5347190000000  0.4981580000000  0.6193530000000 1.0
C      1  0.4225920000000  0.4762000000000  0.4854130000000 1.0
C      1  0.5335060000000  0.4773180000000  0.4981700000000 1.0
C      1  0.4547010000000  0.4907920000000  0.3915260000000 1.0
C      1  0.5048270000000  0.6091860000000  0.4413220000000 1.0
C      1  0.4564340000000  0.5733020000000  0.4840280000000 1.0
C      1  0.4371200000000  0.5379040000000  0.5460740000000 1.0
C      1  0.3960720000000  0.4553370000000  0.5198760000000 1.0
C      1  0.4902450000000  0.5882650000000  0.5721880000000 1.0
C      1  0.4492800000000  0.4908630000000  0.5872300000000 1.0
C      1  0.5928680000000  0.5283560000000  0.6079680000000 1.0
C      1  0.5198200000000  0.4862740000000  0.3839540000000 1.0
C      1  0.4504810000000  0.4716180000000  0.5357290000000 1.0
C      1  0.5304950000000  0.5607560000000  0.4884210000000 1.0
C      1  0.4551990000000  0.4493350000000  0.5192210000000 1.0
C      1  0.4567680000000  0.4631000000000  0.5830230000000 1.0
C      1  0.4378930000000  0.5783390000000  0.6130690000000 1.0
C      1  0.4885240000000  0.5445610000000  0.4240050000000 1.0
C      1  0.5472230000000  0.5511480000000  0.4212740000000 1.0
C      1  0.3907940000000  0.5099720000000  0.5192390000000 1.0
C      1  0.5695550000000  0.4028640000000  0.4747010000000 1.0
C      1  0.6220730000000  0.4120040000000  0.4968550000000 1.0
C      1  0.5820360000000  0.5532560000000  0.5529790000000 1.0
C      1  0.6195960000000  0.5102650000000  0.5648440000000 1.0
C      1  0.4618950000000  0.3956110000000  0.4298960000000 1.0
C      1  0.3921360000000  0.5198020000000  0.4901940000000 1.0
C      1  0.4601170000000  0.4312470000000  0.4622220000000 1.0
C      1  0.4978080000000  0.4457570000000  0.4378620000000 1.0
C      1  0.3899340000000  0.5752190000000  0.5919800000000 1.0
C      1  0.4447700000000  0.5423300000000  0.5196660000000 1.0
C      1  0.5418860000000  0.4753940000000  0.3988520000000 1.0
C      1  0.5558420000000  0.5827660000000  0.5790710000000 1.0
C      1  0.4792820000000  0.5583580000000  0.3758840000000 1.0
C      1  0.5742160000000  0.5452240000000  0.4751950000000 1.0
C      1  0.5087800000000  0.6557050000000  0.4272990000000 1.0
C      1  0.4356060000000  0.5136820000000  0.4299050000000 1.0
C      1  0.4253130000000  0.5048060000000  0.5791570000000 1.0
C      1  0.5034560000000  0.4219120000000  0.5300740000000 1.0
C      1  0.5575310000000  0.4438400000000  0.5277150000000 1.0
C      1  0.3739610000000  0.5450550000000  0.5538590000000 1.0
C      1  0.5114930000000  0.5334470000000  0.5783960000000 1.0
C      1  0.4688940000000  0.3832250000000  0.4531830000000 1.0
C      1  0.5246340000000  0.6420970000000  0.4708580000000 1.0
C      1  0.4974530000000  0.5847450000000  0.5154100000000 1.0
C      1  0.5311900000000  0.6365310000000  0.4959940000000 1.0
C      1  0.5038930000000  0.5701030000000  0.4905030000000 1.0
C      1  0.4679650000000  0.3428450000000  0.5684970000000 1.0
C      1  0.5621820000000  0.3950370000000  0.5031730000000 1.0
C      1  0.5321160000000  0.5266290000000  0.4286280000000 1.0
C      1  0.5264210000000  0.5902970000000  0.4410090000000 1.0
C      1  0.4525560000000  0.4650950000000  0.4040480000000 1.0
C      1  0.4684930000000  0.5872560000000  0.5542680000000 1.0
C      1  0.5175920000000  0.5264860000000  0.5190850000000 1.0
C      1  0.6697230000000  0.5187850000000  0.5457600000000 1.0
C      1  0.4765920000000  0.6042280000000  0.4389910000000 1.0
C      1  0.5707350000000  0.5401260000000  0.4083220000000 1.0
C      1  0.5054820000000  0.5505480000000  0.6009570000000 1.0
C      1  0.4402010000000  0.4333200000000  0.3689140000000 1.0
C      1  0.5548980000000  0.4884700000000  0.5592300000000 1.0
C      1  0.4715180000000  0.5081990000000  0.5909880000000 1.0
C      1  0.6107470000000  0.5212970000000  0.5893770000000 1.0
C      1  0.5855000000000  0.4253850000000  0.4659220000000 1.0
C      1  0.5063390000000  0.4650710000000  0.3699050000000 1.0
C      1  0.5463590000000  0.3945070000000  0.4595020000000 1.0
C      1  0.5069670000000  0.4864560000000  0.4972380000000 1.0
C      1  0.5243960000000  0.3988090000000  0.4773170000000 1.0
C      1  0.5148280000000  0.6014210000000  0.5311870000000 1.0
C      1  0.5023950000000  0.5068340000000  0.3937880000000 1.0
C      1  0.6454170000000  0.5145670000000  0.5554220000000 1.0
C      1  0.5691050000000  0.5313970000000  0.6198660000000 1.0
C      1  0.4328200000000  0.4306940000000  0.3436070000000 1.0
C      1  0.5838010000000  0.4298560000000  0.5652480000000 1.0
C      1  0.4948320000000  0.4401230000000  0.5544890000000 1.0
C      1  0.5339640000000  0.4745590000000  0.5731470000000 1.0
C      1  0.6017230000000  0.4987820000000  0.4590140000000 1.0
C      1  0.5835100000000  0.4762820000000  0.4534020000000 1.0
C      1  0.4600570000000  0.3676590000000  0.5673530000000 1.0
C      1  0.6009240000000  0.4947080000000  0.5504010000000 1.0
C      1  0.4765470000000  0.5079680000000  0.3811910000000 1.0
C      1  0.4709260000000  0.4506640000000  0.4456230000000 1.0
C      1  0.5732190000000  0.4239750000000  0.5399910000000 1.0
C      1  0.4379880000000  0.5795920000000  0.4633050000000 1.0
C      1  0.4145520000000  0.4520900000000  0.4981550000000 1.0
C      1  0.4942350000000  0.4899720000000  0.5542220000000 1.0
C      1  0.4377310000000  0.4969400000000  0.4972040000000 1.0
C      1  0.3917500000000  0.5258320000000  0.5439650000000 1.0
C      1  0.3893300000000  0.5004020000000  0.4683040000000 1.0
C      1  0.5532500000000  0.5440860000000  0.4956930000000 1.0
C      1  0.4326400000000  0.4876990000000  0.4417300000000 1.0
C      1  0.4054650000000  0.5431950000000  0.4783700000000 1.0
C      1  0.4443370000000  0.5363820000000  0.4455010000000 1.0
C      1  0.5461960000000  0.4462510000000  0.4426220000000 1.0
C      1  0.4381300000000  0.5331180000000  0.3825700000000 1.0
C      1  0.4167280000000  0.5234750000000  0.5589770000000 1.0
C      1  0.5286990000000  0.6217530000000  0.5179570000000 1.0
C      1  0.4750470000000  0.3786880000000  0.4793770000000 1.0
C      1  0.4465810000000  0.4201200000000  0.5620000000000 1.0
C      1  0.5417610000000  0.5252180000000  0.6231540000000 1.0
C      1  0.4848540000000  0.3820880000000  0.5046960000000 1.0
C      1  0.4247560000000  0.5536640000000  0.4592960000000 1.0
C      1  0.4880820000000  0.5727410000000  0.5962430000000 1.0
C      1  0.4670140000000  0.4399910000000  0.5678950000000 1.0
C      1  0.4514570000000  0.5206450000000  0.5025000000000 1.0
C      1  0.3750420000000  0.5637160000000  0.5730590000000 1.0
C      1  0.4463970000000  0.4208070000000  0.4822720000000 1.0
C      1  0.5366510000000  0.4533430000000  0.5122200000000 1.0
C      1  0.4253100000000  0.4821330000000  0.5406420000000 1.0
C      1  0.4494570000000  0.4376880000000  0.3949720000000 1.0
C      1  0.3718830000000  0.4223060000000  0.5469320000000 1.0
C      1  0.5589860000000  0.5575670000000  0.5669400000000 1.0
C      1  0.5120150000000  0.5729020000000  0.6698640000000 1.0
C      1  0.4507650000000  0.5971280000000  0.4445530000000 1.0
C      1  0.4643200000000  0.5757470000000  0.6109800000000 1.0
C      1  0.6085400000000  0.4002420000000  0.5170870000000 1.0
C      1  0.5211620000000  0.5452990000000  0.6244390000000 1.0
C      1  0.4652730000000  0.5340670000000  0.3724460000000 1.0
C      1  0.4934210000000  0.5116230000000  0.5731610000000 1.0
C      1  0.6122430000000  0.4246530000000  0.4750870000000 1.0
C      1  0.4122450000000  0.5792040000000  0.6059780000000 1.0
C      1  0.5857150000000  0.5011210000000  0.5267220000000 1.0
C      1  0.5333990000000  0.4786080000000  0.6011310000000 1.0
C      1  0.4119570000000  0.4842470000000  0.4606940000000 1.0
C      1  0.5586810000000  0.5086260000000  0.5366930000000 1.0
C      1  0.5137560000000  0.5993660000000  0.5600840000000 1.0
C      1  0.5166540000000  0.5592660000000  0.6481470000000 1.0
C      1  0.5066940000000  0.5234300000000  0.4172730000000 1.0
C      1  0.4864730000000  0.5748620000000  0.3555250000000 1.0
C      1  0.3493930000000  0.4106770000000  0.5531080000000 1.0
C      1  0.5024720000000  0.5140610000000  0.4992240000000 1.0
C      1  0.5067140000000  0.3934990000000  0.5202860000000 1.0
C      1  0.4862570000000  0.4726710000000  0.5098090000000 1.0
C      1  0.5365680000000  0.5401710000000  0.5672540000000 1.0
C      1  0.4713500000000  0.5816160000000  0.5271090000000 1.0
C      1  0.5820460000000  0.4794010000000  0.5662660000000 1.0
C      1  0.5098430000000  0.4426650000000  0.4117930000000 1.0
C      1  0.5937590000000  0.5244310000000  0.4677810000000 1.0
C      1  0.5735860000000  0.5137320000000  0.4164280000000 1.0
C      1  0.5484300000000  0.5720650000000  0.4402200000000 1.0
C      1  0.4812700000000  0.5626540000000  0.4727120000000 1.0
C      1  0.5554260000000  0.4890810000000  0.4857600000000 1.0
C      1  0.4731790000000  0.5459370000000  0.4482040000000 1.0
END
