TITL C-627113-6568-2030 292.055104683889 125000 -330.195549041007 0 0 58 (C1) n - 1
REM
REM in /home/nfs/bkarasulu/CARBON/AIRSS/Generating-Clusters/LCBOP/Only-C1/SD-CG/FIRE-CG
REM
REM
REM
REM
REM
REM ./C.cell (11c1c37f851c82e70ff6c80c92926a4b)
REM AIRSS Version 0.9.1 bugfix July 2018 build 013d7b7c2542+ Fri, 06 Jul 2018 19:26:36 +0100
REM compiler GCC version 9.2.1 20190827 (Red Hat 9.2.1-1)
REM options -cpp -mtune=generic -march=x86-64 -g -O0 -fpre-include=/usr/include/finclude/math-vector-fortran.h
REM seed -2133760759 2013128692 -914895210 380463706 -864126052 1546804404 275843817 1295855353 484710863 -2099707841 -793814499 -1048943152 90809203 -1542979217 1251820499 -1668525367 -1006587886 -101031490 1102013254 -1162389087 663469483 1760106441 1983564692 -1992356707 -1618041597 -697292128 -329289056 -878400731 -1261498622 -453790912 209516485 -1155008742 931867807
REM
CELL 1.54180   50.00000   50.00000   50.00000   90.00000   90.00000   90.00000
LATT -1
SFAC C  
C      1  0.5857000000000  0.5438340000000  0.4402330000000 1.0
C      1  0.5397940000000  0.5340590000000  0.4960930000000 1.0
C      1  0.5437260000000  0.5244950000000  0.4691450000000 1.0
C      1  0.5086890000000  0.4361360000000  0.4629510000000 1.0
C      1  0.4681540000000  0.4115110000000  0.4962000000000 1.0
C      1  0.5600420000000  0.5284410000000  0.5147040000000 1.0
C      1  0.5009240000000  0.5373840000000  0.4312840000000 1.0
C      1  0.5114400000000  0.6308110000000  0.5501860000000 1.0
C      1  0.5221880000000  0.4634920000000  0.3685290000000 1.0
C      1  0.5173500000000  0.4972890000000  0.4084900000000 1.0
C      1  0.4863000000000  0.4838300000000  0.5145180000000 1.0
C      1  0.5582670000000  0.4447310000000  0.5811850000000 1.0
C      1  0.4622510000000  0.6155230000000  0.4813340000000 1.0
C      1  0.4505740000000  0.6387800000000  0.4799480000000 1.0
C      1  0.5172480000000  0.5484560000000  0.5053710000000 1.0
C      1  0.4476740000000  0.3735620000000  0.5239060000000 1.0
C      1  0.5057010000000  0.4721120000000  0.5338530000000 1.0
C      1  0.4798610000000  0.5799360000000  0.5099700000000 1.0
C      1  0.4618380000000  0.3862770000000  0.5029860000000 1.0
C      1  0.5347560000000  0.4291670000000  0.4644260000000 1.0
C      1  0.4445920000000  0.3465480000000  0.5253980000000 1.0
C      1  0.5266150000000  0.5050640000000  0.4560610000000 1.0
C      1  0.4762240000000  0.5181520000000  0.4847420000000 1.0
C      1  0.4735960000000  0.4620450000000  0.4944360000000 1.0
C      1  0.4696520000000  0.5072500000000  0.5279940000000 1.0
C      1  0.4748830000000  0.5907260000000  0.4839660000000 1.0
C      1  0.5363920000000  0.4883050000000  0.5728090000000 1.0
C      1  0.5297590000000  0.4271450000000  0.5447940000000 1.0
C      1  0.4900540000000  0.5536070000000  0.5121860000000 1.0
C      1  0.4905230000000  0.5591650000000  0.4425180000000 1.0
C      1  0.5134160000000  0.4450260000000  0.5333840000000 1.0
C      1  0.4746610000000  0.5950490000000  0.5334020000000 1.0
C      1  0.4547350000000  0.5050220000000  0.5511440000000 1.0
C      1  0.5530740000000  0.4709030000000  0.5846390000000 1.0
C      1  0.5135550000000  0.4855710000000  0.4725130000000 1.0
C      1  0.4507360000000  0.5912470000000  0.5472980000000 1.0
C      1  0.4411380000000  0.5019440000000  0.5731580000000 1.0
C      1  0.4551790000000  0.5038190000000  0.4723950000000 1.0
C      1  0.4990120000000  0.5007700000000  0.4919400000000 1.0
C      1  0.4522890000000  0.4772890000000  0.4783040000000 1.0
C      1  0.5532830000000  0.4456040000000  0.4751410000000 1.0
C      1  0.5149580000000  0.5130220000000  0.4313080000000 1.0
C      1  0.4637380000000  0.4372290000000  0.5069690000000 1.0
C      1  0.5796570000000  0.5225100000000  0.5308030000000 1.0
C      1  0.4935320000000  0.6134980000000  0.5425260000000 1.0
C      1  0.5482630000000  0.4263810000000  0.5642400000000 1.0
C      1  0.5181650000000  0.4884880000000  0.5531850000000 1.0
C      1  0.4284110000000  0.5859660000000  0.5596600000000 1.0
C      1  0.4980690000000  0.4599520000000  0.4732850000000 1.0
C      1  0.6054680000000  0.5529520000000  0.4258900000000 1.0
C      1  0.4725230000000  0.5312120000000  0.5104990000000 1.0
C      1  0.4824090000000  0.5766210000000  0.4608750000000 1.0
C      1  0.5197740000000  0.4804180000000  0.3882090000000 1.0
C      1  0.5655510000000  0.5345310000000  0.4546960000000 1.0
C      1  0.4369780000000  0.3913290000000  0.5431630000000 1.0
C      1  0.4484870000000  0.4377120000000  0.5308020000000 1.0
C      1  0.4375170000000  0.4181370000000  0.5456980000000 1.0
C      1  0.5506540000000  0.4699680000000  0.4846580000000 1.0
END
