TITL C-627109-622-404 0.00901130333775701 125000 -420.494847524667 0 0 69 (C1) n - 1
REM
REM in /home/nfs/bkarasulu/CARBON/AIRSS/Generating-Clusters/LCBOP/Only-C1/SD-CG/FIRE-CG
REM
REM
REM
REM
REM
REM ./C.cell (11c1c37f851c82e70ff6c80c92926a4b)
REM AIRSS Version 0.9.1 bugfix July 2018 build 013d7b7c2542+ Fri, 06 Jul 2018 19:26:36 +0100
REM compiler GCC version 9.2.1 20190827 (Red Hat 9.2.1-1)
REM options -cpp -mtune=generic -march=x86-64 -g -O0 -fpre-include=/usr/include/finclude/math-vector-fortran.h
REM seed -1841143388 -1070373869 1440411999 1258624047 1303352600 97404249 -1068143123 1669206117 -1201861105 -2128104765 -1176789917 364781793 420810353 1613182100 -1297577994 -904714184 500896503 -739325759 1139115683 1737215600 3260832 1144540024 108988909 296855878 2048921464 1504696435 910465122 589210562 193077857 431124647 579107320 1415117600 -1683696652
REM
CELL 1.54180   50.00000   50.00000   50.00000   90.00000   90.00000   90.00000
LATT -1
SFAC C  
C      1  0.4405610000000  0.5456860000000  0.5225630000000 1.0
C      1  0.6321820000000  0.5432190000000  0.5284730000000 1.0
C      1  0.5277220000000  0.5284810000000  0.5141720000000 1.0
C      1  0.4986680000000  0.5306140000000  0.4569500000000 1.0
C      1  0.3669670000000  0.5287590000000  0.3909430000000 1.0
C      1  0.5352520000000  0.5826390000000  0.4415040000000 1.0
C      1  0.4697670000000  0.5692280000000  0.4950640000000 1.0
C      1  0.5395110000000  0.4620010000000  0.5528540000000 1.0
C      1  0.5485160000000  0.5642230000000  0.4856760000000 1.0
C      1  0.4976350000000  0.4541930000000  0.4814040000000 1.0
C      1  0.5901300000000  0.4540300000000  0.4525350000000 1.0
C      1  0.5871350000000  0.4397540000000  0.4750920000000 1.0
C      1  0.5351320000000  0.5842250000000  0.4702300000000 1.0
C      1  0.5239380000000  0.4414500000000  0.5411540000000 1.0
C      1  0.3812930000000  0.5354540000000  0.4116700000000 1.0
C      1  0.5111370000000  0.5703520000000  0.4323440000000 1.0
C      1  0.5124420000000  0.4577350000000  0.4577690000000 1.0
C      1  0.4634550000000  0.5513960000000  0.5395440000000 1.0
C      1  0.5254390000000  0.5241270000000  0.4661140000000 1.0
C      1  0.5116740000000  0.5094540000000  0.5271800000000 1.0
C      1  0.5787120000000  0.4633760000000  0.5176920000000 1.0
C      1  0.3492920000000  0.3879000000000  0.5715660000000 1.0
C      1  0.4438100000000  0.5560910000000  0.4956850000000 1.0
C      1  0.4566320000000  0.4053800000000  0.5122040000000 1.0
C      1  0.4105180000000  0.5488080000000  0.4538240000000 1.0
C      1  0.4775190000000  0.5122840000000  0.4585810000000 1.0
C      1  0.5096590000000  0.5923480000000  0.4803250000000 1.0
C      1  0.4175890000000  0.4507230000000  0.5404350000000 1.0
C      1  0.6303720000000  0.5166350000000  0.5277980000000 1.0
C      1  0.4874810000000  0.5752150000000  0.4743230000000 1.0
C      1  0.4793390000000  0.5686310000000  0.5225770000000 1.0
C      1  0.5269520000000  0.4841800000000  0.5647470000000 1.0
C      1  0.4688880000000  0.4923210000000  0.5790550000000 1.0
C      1  0.5352390000000  0.5389230000000  0.4889930000000 1.0
C      1  0.4936200000000  0.5581870000000  0.4515760000000 1.0
C      1  0.5680030000000  0.4975260000000  0.4614660000000 1.0
C      1  0.4203660000000  0.4788730000000  0.4954570000000 1.0
C      1  0.4961000000000  0.4920770000000  0.5117270000000 1.0
C      1  0.5261530000000  0.4785800000000  0.4479870000000 1.0
C      1  0.5961450000000  0.5737010000000  0.5099240000000 1.0
C      1  0.6147790000000  0.4965240000000  0.5200630000000 1.0
C      1  0.4128470000000  0.4664910000000  0.5177570000000 1.0
C      1  0.5007330000000  0.4318760000000  0.4987200000000 1.0
C      1  0.4486400000000  0.4752820000000  0.5763240000000 1.0
C      1  0.3703240000000  0.3989490000000  0.5608310000000 1.0
C      1  0.4139790000000  0.4225560000000  0.5386910000000 1.0
C      1  0.4848310000000  0.4778310000000  0.4906640000000 1.0
C      1  0.4300310000000  0.4618910000000  0.5628840000000 1.0
C      1  0.3916790000000  0.4102250000000  0.5499360000000 1.0
C      1  0.5401470000000  0.5015490000000  0.4565860000000 1.0
C      1  0.4798630000000  0.4137500000000  0.5024740000000 1.0
C      1  0.5733800000000  0.4416640000000  0.4995470000000 1.0
C      1  0.4853940000000  0.5119810000000  0.5677840000000 1.0
C      1  0.4336160000000  0.4078660000000  0.5252020000000 1.0
C      1  0.5099130000000  0.5044860000000  0.5552590000000 1.0
C      1  0.5726510000000  0.5705530000000  0.4980430000000 1.0
C      1  0.3958600000000  0.5422580000000  0.4327430000000 1.0
C      1  0.5792020000000  0.5012060000000  0.4870700000000 1.0
C      1  0.5553300000000  0.5915150000000  0.4255080000000 1.0
C      1  0.4735470000000  0.5364330000000  0.5605400000000 1.0
C      1  0.5495240000000  0.4272020000000  0.5034770000000 1.0
C      1  0.4258600000000  0.5538220000000  0.4748220000000 1.0
C      1  0.5657600000000  0.4638980000000  0.5427440000000 1.0
C      1  0.4662910000000  0.4919720000000  0.4743120000000 1.0
C      1  0.5912290000000  0.4871650000000  0.5083660000000 1.0
C      1  0.4390860000000  0.4877730000000  0.4787560000000 1.0
C      1  0.5240470000000  0.4308010000000  0.5149400000000 1.0
C      1  0.5820080000000  0.4787520000000  0.4454440000000 1.0
C      1  0.6185050000000  0.5649480000000  0.5213390000000 1.0
END
