TITL C-627109-622-881 0.012208879918971 125000 -550.543047693999 0 0 89 (C1) n - 1
REM
REM in /home/nfs/bkarasulu/CARBON/AIRSS/Generating-Clusters/LCBOP/Only-C1/SD-CG/FIRE-CG
REM
REM
REM
REM
REM
REM ./C.cell (11c1c37f851c82e70ff6c80c92926a4b)
REM AIRSS Version 0.9.1 bugfix July 2018 build 013d7b7c2542+ Fri, 06 Jul 2018 19:26:36 +0100
REM compiler GCC version 9.2.1 20190827 (Red Hat 9.2.1-1)
REM options -cpp -mtune=generic -march=x86-64 -g -O0 -fpre-include=/usr/include/finclude/math-vector-fortran.h
REM seed 1675438393 -958516618 -663132580 -1258658803 1800406878 61584153 1580209483 -1583965046 273921117 969962585 -1295268709 1189852142 -1832375067 -2007940647 302192344 -1917800682 -672608759 -855251817 698083442 78782091 1229836481 -925110942 475484023 1876775057 953825131 416346063 -434347521 -552689049 -427787772 2030183505 -1245771241 2071209015 1289770858
REM
CELL 1.54180   50.00000   50.00000   50.00000   90.00000   90.00000   90.00000
LATT -1
SFAC C  
C      1  0.4251170000000  0.4526840000000  0.4773110000000 1.0
C      1  0.5620180000000  0.4400600000000  0.4577700000000 1.0
C      1  0.5402800000000  0.4748620000000  0.5634330000000 1.0
C      1  0.4826510000000  0.4837440000000  0.5185240000000 1.0
C      1  0.4244460000000  0.4330460000000  0.4961530000000 1.0
C      1  0.6280830000000  0.5531080000000  0.4280800000000 1.0
C      1  0.4550740000000  0.4650600000000  0.4397660000000 1.0
C      1  0.4800860000000  0.5003850000000  0.4957100000000 1.0
C      1  0.4834460000000  0.4891080000000  0.4702640000000 1.0
C      1  0.4980220000000  0.5161090000000  0.5989650000000 1.0
C      1  0.5497460000000  0.4551690000000  0.5445740000000 1.0
C      1  0.4521010000000  0.5384840000000  0.5000430000000 1.0
C      1  0.5348520000000  0.5398650000000  0.4746110000000 1.0
C      1  0.4319270000000  0.6018190000000  0.5477150000000 1.0
C      1  0.6108030000000  0.5372890000000  0.4404790000000 1.0
C      1  0.4959760000000  0.5604700000000  0.5548720000000 1.0
C      1  0.4678660000000  0.4822160000000  0.6160830000000 1.0
C      1  0.4557190000000  0.4419220000000  0.5510890000000 1.0
C      1  0.5298270000000  0.4745590000000  0.4338860000000 1.0
C      1  0.5305120000000  0.4701510000000  0.4931880000000 1.0
C      1  0.5570800000000  0.5123490000000  0.5393850000000 1.0
C      1  0.5775040000000  0.4931690000000  0.5344740000000 1.0
C      1  0.5022180000000  0.5383660000000  0.5125660000000 1.0
C      1  0.5152560000000  0.5370190000000  0.5991590000000 1.0
C      1  0.5353790000000  0.5018870000000  0.5552110000000 1.0
C      1  0.4332990000000  0.5805520000000  0.4822210000000 1.0
C      1  0.5333570000000  0.5867970000000  0.5426280000000 1.0
C      1  0.5121380000000  0.5190180000000  0.4221580000000 1.0
C      1  0.4354580000000  0.4173190000000  0.5159880000000 1.0
C      1  0.4561880000000  0.4704350000000  0.6361820000000 1.0
C      1  0.5379960000000  0.4001390000000  0.5140730000000 1.0
C      1  0.4270920000000  0.5058610000000  0.5306030000000 1.0
C      1  0.5041200000000  0.4620430000000  0.4333680000000 1.0
C      1  0.4228880000000  0.5989390000000  0.4983730000000 1.0
C      1  0.5020330000000  0.4359620000000  0.4227900000000 1.0
C      1  0.4611370000000  0.5156060000000  0.4193570000000 1.0
C      1  0.5338970000000  0.5908200000000  0.5157160000000 1.0
C      1  0.4904280000000  0.4075500000000  0.5376120000000 1.0
C      1  0.4548710000000  0.4942110000000  0.4022580000000 1.0
C      1  0.5739780000000  0.5061550000000  0.4655640000000 1.0
C      1  0.5809400000000  0.4833150000000  0.4820520000000 1.0
C      1  0.5504280000000  0.5318300000000  0.5205170000000 1.0
C      1  0.6450780000000  0.5686680000000  0.4158860000000 1.0
C      1  0.4772740000000  0.4201590000000  0.4812830000000 1.0
C      1  0.4786670000000  0.5280520000000  0.5006960000000 1.0
C      1  0.4308300000000  0.4848510000000  0.5469870000000 1.0
C      1  0.5174620000000  0.4544530000000  0.5111730000000 1.0
C      1  0.5204470000000  0.5727020000000  0.5637140000000 1.0
C      1  0.5567520000000  0.4124700000000  0.4983450000000 1.0
C      1  0.4176670000000  0.5103360000000  0.4833140000000 1.0
C      1  0.4901120000000  0.4579000000000  0.5113920000000 1.0
C      1  0.4635590000000  0.4224160000000  0.5286610000000 1.0
C      1  0.5089080000000  0.5113110000000  0.5500740000000 1.0
C      1  0.4294230000000  0.5009870000000  0.4592740000000 1.0
C      1  0.5301360000000  0.5855840000000  0.4892900000000 1.0
C      1  0.4753350000000  0.4357990000000  0.5044110000000 1.0
C      1  0.4467960000000  0.5565540000000  0.4785070000000 1.0
C      1  0.4305280000000  0.5202240000000  0.5066220000000 1.0
C      1  0.5759780000000  0.4600440000000  0.4992110000000 1.0
C      1  0.5670950000000  0.4358700000000  0.4854910000000 1.0
C      1  0.4712080000000  0.5712640000000  0.5611240000000 1.0
C      1  0.5712840000000  0.4659300000000  0.5272510000000 1.0
C      1  0.5288030000000  0.4401400000000  0.5325120000000 1.0
C      1  0.4343010000000  0.4720800000000  0.4582440000000 1.0
C      1  0.5271280000000  0.5589640000000  0.5879710000000 1.0
C      1  0.5322320000000  0.4935050000000  0.4817220000000 1.0
C      1  0.4735120000000  0.4840840000000  0.5677580000000 1.0
C      1  0.5012730000000  0.5369990000000  0.5407700000000 1.0
C      1  0.4501290000000  0.5873710000000  0.5606570000000 1.0
C      1  0.4862120000000  0.5299590000000  0.4228290000000 1.0
C      1  0.4438530000000  0.5207550000000  0.4429400000000 1.0
C      1  0.4508020000000  0.4687730000000  0.5592250000000 1.0
C      1  0.5192800000000  0.4125900000000  0.5323030000000 1.0
C      1  0.4887640000000  0.4922100000000  0.5453730000000 1.0
C      1  0.4935720000000  0.4131420000000  0.4340840000000 1.0
C      1  0.4817830000000  0.4714040000000  0.4485140000000 1.0
C      1  0.4836200000000  0.4082100000000  0.4584050000000 1.0
C      1  0.5248600000000  0.5663650000000  0.4684040000000 1.0
C      1  0.4799530000000  0.4943800000000  0.5939140000000 1.0
C      1  0.4548680000000  0.5463710000000  0.4534980000000 1.0
C      1  0.4215820000000  0.6070650000000  0.5237220000000 1.0
C      1  0.5934150000000  0.5215970000000  0.4528430000000 1.0
C      1  0.5441270000000  0.5133060000000  0.4622590000000 1.0
C      1  0.4504250000000  0.4693250000000  0.4121250000000 1.0
C      1  0.5513240000000  0.4571080000000  0.4399170000000 1.0
C      1  0.5019710000000  0.5672400000000  0.4518800000000 1.0
C      1  0.5291580000000  0.5368650000000  0.5027900000000 1.0
C      1  0.4809640000000  0.5516460000000  0.4416910000000 1.0
C      1  0.5313190000000  0.5035220000000  0.4361720000000 1.0
END
