TITL C-627113-6568-788 -2.37061471290898e-07 125000 -495.557294861005 0 0 82 (C1) n - 1
REM
REM in /home/nfs/bkarasulu/CARBON/AIRSS/Generating-Clusters/LCBOP/Only-C1/SD-CG/FIRE-CG
REM
REM
REM
REM
REM
REM ./C.cell (11c1c37f851c82e70ff6c80c92926a4b)
REM AIRSS Version 0.9.1 bugfix July 2018 build 013d7b7c2542+ Fri, 06 Jul 2018 19:26:36 +0100
REM compiler GCC version 9.2.1 20190827 (Red Hat 9.2.1-1)
REM options -cpp -mtune=generic -march=x86-64 -g -O0 -fpre-include=/usr/include/finclude/math-vector-fortran.h
REM seed 117582617 -1700563353 -76493318 1872446658 198873223 1446034455 2132636801 1921521637 -1458279957 1570952243 763088580 -1419019239 698472546 -258786371 1104024626 -1965219757 -414560239 -822236649 87816459 -699537539 -666017738 -1584143133 -1169515729 587139338 216967264 1942090341 965591706 1994288821 3838970 -870086873 -1158359896 -923329476 -2029329519
REM
CELL 1.54180   50.00000   50.00000   50.00000   90.00000   90.00000   90.00000
LATT -1
SFAC C  
C      1  0.4636170000000  0.4810100000000  0.4220840000000 1.0
C      1  0.4734980000000  0.5631070000000  0.4534200000000 1.0
C      1  0.5828650000000  0.5162280000000  0.5553800000000 1.0
C      1  0.5219340000000  0.5302280000000  0.5374720000000 1.0
C      1  0.5680950000000  0.4342470000000  0.4876020000000 1.0
C      1  0.4878850000000  0.4002240000000  0.5423620000000 1.0
C      1  0.4310560000000  0.5376100000000  0.5203960000000 1.0
C      1  0.4471080000000  0.6029960000000  0.4612790000000 1.0
C      1  0.5822300000000  0.5324410000000  0.4666310000000 1.0
C      1  0.4231350000000  0.4569540000000  0.4927550000000 1.0
C      1  0.4271250000000  0.5926470000000  0.4460810000000 1.0
C      1  0.5341770000000  0.5116960000000  0.5553520000000 1.0
C      1  0.4730250000000  0.4473530000000  0.5492490000000 1.0
C      1  0.5599970000000  0.5003920000000  0.5560510000000 1.0
C      1  0.4818110000000  0.4844590000000  0.4669670000000 1.0
C      1  0.5205650000000  0.5227650000000  0.4628080000000 1.0
C      1  0.4580550000000  0.4965920000000  0.5111510000000 1.0
C      1  0.4330770000000  0.4457760000000  0.5154750000000 1.0
C      1  0.5172910000000  0.5761170000000  0.5868050000000 1.0
C      1  0.4951130000000  0.4216320000000  0.4844730000000 1.0
C      1  0.4988120000000  0.5421570000000  0.5499450000000 1.0
C      1  0.4508740000000  0.4250140000000  0.4375560000000 1.0
C      1  0.4980970000000  0.5609450000000  0.4386970000000 1.0
C      1  0.5725840000000  0.4916690000000  0.4877810000000 1.0
C      1  0.4766810000000  0.4811300000000  0.4948860000000 1.0
C      1  0.5035300000000  0.5992470000000  0.5413900000000 1.0
C      1  0.4520500000000  0.5241310000000  0.5070940000000 1.0
C      1  0.4917920000000  0.3758610000000  0.5507420000000 1.0
C      1  0.4278010000000  0.5665740000000  0.4384710000000 1.0
C      1  0.4289270000000  0.4117230000000  0.4309620000000 1.0
C      1  0.5793950000000  0.4922090000000  0.4397410000000 1.0
C      1  0.4967720000000  0.4644400000000  0.5068000000000 1.0
C      1  0.5447990000000  0.5098210000000  0.4077820000000 1.0
C      1  0.4727760000000  0.5402990000000  0.4980860000000 1.0
C      1  0.5225940000000  0.5351910000000  0.5092500000000 1.0
C      1  0.5531640000000  0.4312470000000  0.5373350000000 1.0
C      1  0.4212000000000  0.4775270000000  0.4753550000000 1.0
C      1  0.4403530000000  0.5223710000000  0.4535370000000 1.0
C      1  0.4704310000000  0.5090530000000  0.5706090000000 1.0
C      1  0.4928130000000  0.4913310000000  0.5738160000000 1.0
C      1  0.5859680000000  0.4828650000000  0.5098580000000 1.0
C      1  0.4324010000000  0.5522680000000  0.5430480000000 1.0
C      1  0.5633620000000  0.4925270000000  0.4166190000000 1.0
C      1  0.5184940000000  0.4506100000000  0.5669790000000 1.0
C      1  0.5198760000000  0.5527240000000  0.5997040000000 1.0
C      1  0.5044110000000  0.4999910000000  0.4617400000000 1.0
C      1  0.6031540000000  0.5325660000000  0.5545920000000 1.0
C      1  0.5202330000000  0.4300470000000  0.4440040000000 1.0
C      1  0.4851080000000  0.4263740000000  0.5336020000000 1.0
C      1  0.5728200000000  0.4764340000000  0.4631120000000 1.0
C      1  0.4714340000000  0.4688860000000  0.4454300000000 1.0
C      1  0.4926790000000  0.4631030000000  0.5653600000000 1.0
C      1  0.5918390000000  0.5174180000000  0.4458910000000 1.0
C      1  0.4470390000000  0.4982430000000  0.5598100000000 1.0
C      1  0.4849030000000  0.5958010000000  0.4916580000000 1.0
C      1  0.5451070000000  0.4394370000000  0.4459910000000 1.0
C      1  0.4945240000000  0.6003460000000  0.5162160000000 1.0
C      1  0.4485080000000  0.5487200000000  0.4470810000000 1.0
C      1  0.4982330000000  0.5469840000000  0.5009410000000 1.0
C      1  0.4477710000000  0.4850780000000  0.5352940000000 1.0
C      1  0.5038990000000  0.5816560000000  0.4214120000000 1.0
C      1  0.4933510000000  0.4360370000000  0.5082880000000 1.0
C      1  0.5293790000000  0.5298890000000  0.4165800000000 1.0
C      1  0.5210010000000  0.4753940000000  0.5130380000000 1.0
C      1  0.4070100000000  0.3989980000000  0.4248550000000 1.0
C      1  0.5193660000000  0.5257930000000  0.5987920000000 1.0
C      1  0.4273840000000  0.5005040000000  0.4626060000000 1.0
C      1  0.5644960000000  0.5191210000000  0.4846030000000 1.0
C      1  0.5372640000000  0.5263890000000  0.4864180000000 1.0
C      1  0.5448160000000  0.4496910000000  0.5567960000000 1.0
C      1  0.4522690000000  0.5532540000000  0.5613040000000 1.0
C      1  0.5174680000000  0.5059330000000  0.5785580000000 1.0
C      1  0.4488130000000  0.4569840000000  0.5364700000000 1.0
C      1  0.4723810000000  0.4404160000000  0.4463480000000 1.0
C      1  0.5624220000000  0.4270350000000  0.5126530000000 1.0
C      1  0.5608060000000  0.4726290000000  0.5602630000000 1.0
C      1  0.4955870000000  0.4281230000000  0.4571240000000 1.0
C      1  0.5115280000000  0.5917750000000  0.5658270000000 1.0
C      1  0.5170840000000  0.5396560000000  0.4401140000000 1.0
C      1  0.5639090000000  0.4494810000000  0.4642020000000 1.0
C      1  0.4698460000000  0.5877560000000  0.4693080000000 1.0
C      1  0.4749520000000  0.5366540000000  0.5638870000000 1.0
END
