TITL C-627110-360-598 1891.07709857683 125000 -703.589921362247 0 0 117 (C1) n - 1
REM
REM in /home/nfs/bkarasulu/CARBON/AIRSS/Generating-Clusters/LCBOP/Only-C1/SD-CG/FIRE-CG
REM
REM
REM
REM
REM
REM ./C.cell (11c1c37f851c82e70ff6c80c92926a4b)
REM AIRSS Version 0.9.1 bugfix July 2018 build 013d7b7c2542+ Fri, 06 Jul 2018 19:26:36 +0100
REM compiler GCC version 9.2.1 20190827 (Red Hat 9.2.1-1)
REM options -cpp -mtune=generic -march=x86-64 -g -O0 -fpre-include=/usr/include/finclude/math-vector-fortran.h
REM seed 296884683 1004128221 -2054530088 -420835295 -1480832120 1629814539 1011058963 -909532713 601434392 -1580992028 -1431099349 -2108736764 -894776105 -752752900 157953831 -1248458265 597184692 1351435955 -297065879 1999097991 203379516 -1079258033 1031842224 493784193 -2146474248 -1753605881 829049065 791162423 429656305 -1296871274 873625353 57777519 1323466582
REM
CELL 1.54180   50.00000   50.00000   50.00000   90.00000   90.00000   90.00000
LATT -1
SFAC C  
C      1  0.4255720000000  0.5463020000000  0.4857910000000 1.0
C      1  0.5319600000000  0.4117320000000  0.4253990000000 1.0
C      1  0.5141440000000  0.5999950000000  0.5703820000000 1.0
C      1  0.5274560000000  0.3973960000000  0.4972690000000 1.0
C      1  0.5477910000000  0.4715700000000  0.5939900000000 1.0
C      1  0.4115730000000  0.5047580000000  0.4630300000000 1.0
C      1  0.5448240000000  0.5624870000000  0.4800590000000 1.0
C      1  0.5250630000000  0.4107790000000  0.5505880000000 1.0
C      1  0.3001220000000  0.5831230000000  0.3973930000000 1.0
C      1  0.5974150000000  0.4624810000000  0.5147710000000 1.0
C      1  0.5198430000000  0.4249610000000  0.4469390000000 1.0
C      1  0.3650380000000  0.5453840000000  0.4221610000000 1.0
C      1  0.4107660000000  0.5239200000000  0.4417630000000 1.0
C      1  0.5275960000000  0.5449960000000  0.4205710000000 1.0
C      1  0.4783250000000  0.5189950000000  0.5742110000000 1.0
C      1  0.3214020000000  0.5703860000000  0.4054280000000 1.0
C      1  0.5275190000000  0.4717550000000  0.3987660000000 1.0
C      1  0.5306930000000  0.4404810000000  0.5060620000000 1.0
C      1  0.4790020000000  0.5089050000000  0.4861070000000 1.0
C      1  0.5419290000000  0.5412220000000  0.5790440000000 1.0
C      1  0.5574170000000  0.4965460000000  0.5929650000000 1.0
C      1  0.4601820000000  0.5375190000000  0.4483970000000 1.0
C      1  0.4777100000000  0.4980440000000  0.6179500000000 1.0
C      1  0.4804800000000  0.5070510000000  0.3755490000000 1.0
C      1  0.4724030000000  0.5088410000000  0.6424670000000 1.0
C      1  0.4724090000000  0.4670940000000  0.4592890000000 1.0
C      1  0.4362900000000  0.5238930000000  0.5285650000000 1.0
C      1  0.5002960000000  0.4251650000000  0.5452620000000 1.0
C      1  0.4177840000000  0.5255490000000  0.5049920000000 1.0
C      1  0.5698190000000  0.5494650000000  0.4720970000000 1.0
C      1  0.5550530000000  0.5377860000000  0.4209610000000 1.0
C      1  0.5435650000000  0.3994860000000  0.4055390000000 1.0
C      1  0.5472170000000  0.4183110000000  0.4985650000000 1.0
C      1  0.4599100000000  0.4910940000000  0.4699460000000 1.0
C      1  0.5255720000000  0.3909680000000  0.5269570000000 1.0
C      1  0.5846460000000  0.5255380000000  0.5643570000000 1.0
C      1  0.5285510000000  0.5875120000000  0.5907260000000 1.0
C      1  0.4442360000000  0.4900720000000  0.5795230000000 1.0
C      1  0.5703900000000  0.5620120000000  0.5218580000000 1.0
C      1  0.5081760000000  0.5863690000000  0.5452730000000 1.0
C      1  0.4883620000000  0.4741630000000  0.5102020000000 1.0
C      1  0.5064610000000  0.5193600000000  0.5046990000000 1.0
C      1  0.5082100000000  0.4084470000000  0.4689030000000 1.0
C      1  0.4903490000000  0.5049650000000  0.5530830000000 1.0
C      1  0.4770760000000  0.4460880000000  0.5863840000000 1.0
C      1  0.4965300000000  0.5028030000000  0.4234360000000 1.0
C      1  0.5633340000000  0.5120800000000  0.4296810000000 1.0
C      1  0.4966410000000  0.5612540000000  0.4906090000000 1.0
C      1  0.5047280000000  0.4341250000000  0.5183270000000 1.0
C      1  0.4672440000000  0.4614860000000  0.5466620000000 1.0
C      1  0.5161860000000  0.5139010000000  0.5483350000000 1.0
C      1  0.4805220000000  0.4842100000000  0.5358590000000 1.0
C      1  0.5844880000000  0.5374470000000  0.5169000000000 1.0
C      1  0.5810100000000  0.5285250000000  0.4894400000000 1.0
C      1  0.5623540000000  0.5215550000000  0.5809560000000 1.0
C      1  0.5049640000000  0.6268310000000  0.5728230000000 1.0
C      1  0.5079310000000  0.5478750000000  0.5131710000000 1.0
C      1  0.5515260000000  0.5736430000000  0.5058290000000 1.0
C      1  0.4327400000000  0.4870470000000  0.4595390000000 1.0
C      1  0.4797590000000  0.4386590000000  0.5591090000000 1.0
C      1  0.5745930000000  0.5577960000000  0.4249570000000 1.0
C      1  0.4686590000000  0.5561880000000  0.4953640000000 1.0
C      1  0.4036470000000  0.5050940000000  0.4909080000000 1.0
C      1  0.5756410000000  0.5004570000000  0.4505580000000 1.0
C      1  0.4305420000000  0.4618060000000  0.4459810000000 1.0
C      1  0.4581950000000  0.5436650000000  0.5208680000000 1.0
C      1  0.4544030000000  0.4463650000000  0.4500930000000 1.0
C      1  0.3431160000000  0.5576190000000  0.4136800000000 1.0
C      1  0.5569130000000  0.4740390000000  0.5426730000000 1.0
C      1  0.5111380000000  0.5456730000000  0.4448060000000 1.0
C      1  0.6156320000000  0.5031250000000  0.5359950000000 1.0
C      1  0.5021630000000  0.4551460000000  0.5975670000000 1.0
C      1  0.5142870000000  0.4776190000000  0.4231850000000 1.0
C      1  0.6157290000000  0.4766660000000  0.5309760000000 1.0
C      1  0.4517980000000  0.4623050000000  0.5883890000000 1.0
C      1  0.4369390000000  0.5316670000000  0.4325140000000 1.0
C      1  0.4879780000000  0.5268640000000  0.4418810000000 1.0
C      1  0.5198200000000  0.4570790000000  0.4458720000000 1.0
C      1  0.4961430000000  0.5156960000000  0.3967120000000 1.0
C      1  0.4128340000000  0.4326760000000  0.4916040000000 1.0
C      1  0.5418030000000  0.4324130000000  0.5635160000000 1.0
C      1  0.5485970000000  0.4918430000000  0.5246390000000 1.0
C      1  0.5835110000000  0.5610190000000  0.4502760000000 1.0
C      1  0.4351310000000  0.5049770000000  0.5532110000000 1.0
C      1  0.5964490000000  0.5235290000000  0.5388430000000 1.0
C      1  0.5255120000000  0.5066330000000  0.5225100000000 1.0
C      1  0.4516100000000  0.5501870000000  0.4735440000000 1.0
C      1  0.5296690000000  0.4504430000000  0.5859110000000 1.0
C      1  0.4987300000000  0.4660900000000  0.4646190000000 1.0
C      1  0.3978640000000  0.4538750000000  0.4985980000000 1.0
C      1  0.5408730000000  0.4664680000000  0.3770220000000 1.0
C      1  0.5623980000000  0.4463700000000  0.5467690000000 1.0
C      1  0.4866200000000  0.6285500000000  0.5297890000000 1.0
C      1  0.5440660000000  0.4625100000000  0.4639700000000 1.0
C      1  0.4945900000000  0.6028120000000  0.5261940000000 1.0
C      1  0.3945050000000  0.4804290000000  0.5009280000000 1.0
C      1  0.5142810000000  0.5593040000000  0.5389420000000 1.0
C      1  0.4396050000000  0.4243940000000  0.4890250000000 1.0
C      1  0.5079090000000  0.4761310000000  0.4895860000000 1.0
C      1  0.3872700000000  0.5340900000000  0.4310920000000 1.0
C      1  0.5819300000000  0.4400030000000  0.5254030000000 1.0
C      1  0.4551190000000  0.4219040000000  0.4647950000000 1.0
C      1  0.4567660000000  0.4329050000000  0.5094400000000 1.0
C      1  0.5240560000000  0.5395480000000  0.5571590000000 1.0
C      1  0.5736680000000  0.4197080000000  0.5074040000000 1.0
C      1  0.4655600000000  0.4978280000000  0.3562770000000 1.0
C      1  0.5831300000000  0.5019930000000  0.4779530000000 1.0
C      1  0.5172880000000  0.5595220000000  0.4695710000000 1.0
C      1  0.4796750000000  0.4069030000000  0.4671230000000 1.0
C      1  0.5130490000000  0.5385100000000  0.3968370000000 1.0
C      1  0.5895340000000  0.4779960000000  0.4919380000000 1.0
C      1  0.5340010000000  0.4641350000000  0.4912000000000 1.0
C      1  0.4812210000000  0.4459900000000  0.5085640000000 1.0
C      1  0.4976020000000  0.4777910000000  0.6146110000000 1.0
C      1  0.4636110000000  0.5065290000000  0.5945440000000 1.0
C      1  0.4918380000000  0.6407910000000  0.5535300000000 1.0
C      1  0.5402370000000  0.5639240000000  0.5951770000000 1.0
END
