TITL C-627107-135-1311 0.149443381828467 125000 -697.361075088768 0 0 113 (C1) n - 1
REM
REM in /home/nfs/bkarasulu/CARBON/AIRSS/Generating-Clusters/LCBOP/Only-C1/SD-CG/FIRE-CG
REM
REM
REM
REM
REM
REM ./C.cell (11c1c37f851c82e70ff6c80c92926a4b)
REM AIRSS Version 0.9.1 bugfix July 2018 build 013d7b7c2542+ Fri, 06 Jul 2018 19:26:36 +0100
REM compiler GCC version 9.2.1 20190827 (Red Hat 9.2.1-1)
REM options -cpp -mtune=generic -march=x86-64 -g -O0 -fpre-include=/usr/include/finclude/math-vector-fortran.h
REM seed 2130660957 769105447 1897953801 -721049998 -1120587224 602731017 2070714439 -1545970951 -196551612 -43853164 1637358314 182341435 -502230385 2067991498 -1601986443 1578181542 1623921285 -80656830 264919408 1743145489 1910658070 -1515539705 -227447 -1645406715 357700556 661653630 -2143356371 882314111 -1090755676 -563813674 -858343533 -433130602 -629452806
REM
CELL 1.54180   50.00000   50.00000   50.00000   90.00000   90.00000   90.00000
LATT -1
SFAC C  
C      1  0.4281770000000  0.4151060000000  0.4807610000000 1.0
C      1  0.4823430000000  0.5960470000000  0.5565850000000 1.0
C      1  0.4206480000000  0.4807730000000  0.4946330000000 1.0
C      1  0.4425530000000  0.5518400000000  0.5244130000000 1.0
C      1  0.5118420000000  0.4134330000000  0.5410680000000 1.0
C      1  0.5600880000000  0.5740840000000  0.5753930000000 1.0
C      1  0.4261140000000  0.4261750000000  0.4545370000000 1.0
C      1  0.4233540000000  0.5260940000000  0.4550210000000 1.0
C      1  0.4413690000000  0.4072380000000  0.5266820000000 1.0
C      1  0.5477740000000  0.4507470000000  0.5410410000000 1.0
C      1  0.5315260000000  0.5687820000000  0.4457960000000 1.0
C      1  0.5410870000000  0.5028920000000  0.5561700000000 1.0
C      1  0.5939110000000  0.5754810000000  0.4909730000000 1.0
C      1  0.3741130000000  0.4841520000000  0.3188090000000 1.0
C      1  0.5270810000000  0.5405180000000  0.4468270000000 1.0
C      1  0.5505660000000  0.5864170000000  0.5083420000000 1.0
C      1  0.4406550000000  0.5846410000000  0.4539940000000 1.0
C      1  0.5380370000000  0.4085960000000  0.4996500000000 1.0
C      1  0.4318060000000  0.5029390000000  0.5103550000000 1.0
C      1  0.5547840000000  0.5132600000000  0.5821580000000 1.0
C      1  0.4306920000000  0.5326580000000  0.5046480000000 1.0
C      1  0.5214710000000  0.4399290000000  0.5370960000000 1.0
C      1  0.5016810000000  0.4804380000000  0.4636330000000 1.0
C      1  0.4385040000000  0.4142860000000  0.5549280000000 1.0
C      1  0.5615190000000  0.5014320000000  0.4605890000000 1.0
C      1  0.4239870000000  0.5425270000000  0.4780370000000 1.0
C      1  0.4849850000000  0.3974050000000  0.4794260000000 1.0
C      1  0.4890160000000  0.4256100000000  0.4775820000000 1.0
C      1  0.6119520000000  0.5202010000000  0.5079010000000 1.0
C      1  0.4822000000000  0.5188740000000  0.4440730000000 1.0
C      1  0.5874210000000  0.5099470000000  0.4674860000000 1.0
C      1  0.5022290000000  0.5328770000000  0.4583250000000 1.0
C      1  0.4789420000000  0.6022990000000  0.4863040000000 1.0
C      1  0.4638740000000  0.4265080000000  0.5630770000000 1.0
C      1  0.5170090000000  0.3978030000000  0.5162170000000 1.0
C      1  0.5323460000000  0.5311540000000  0.5456130000000 1.0
C      1  0.3620950000000  0.4758250000000  0.2972250000000 1.0
C      1  0.4884100000000  0.5928190000000  0.4609050000000 1.0
C      1  0.4833150000000  0.4978650000000  0.5985140000000 1.0
C      1  0.4548400000000  0.5776780000000  0.5191380000000 1.0
C      1  0.4997170000000  0.5376120000000  0.4860060000000 1.0
C      1  0.4791690000000  0.4916170000000  0.4513020000000 1.0
C      1  0.5203970000000  0.5512650000000  0.4993800000000 1.0
C      1  0.4905340000000  0.3892380000000  0.5062620000000 1.0
C      1  0.4311210000000  0.4791220000000  0.4683110000000 1.0
C      1  0.4732240000000  0.3830730000000  0.4160830000000 1.0
C      1  0.4574610000000  0.4660930000000  0.5330730000000 1.0
C      1  0.5231540000000  0.5811730000000  0.4958610000000 1.0
C      1  0.4107650000000  0.5095430000000  0.3846350000000 1.0
C      1  0.5122810000000  0.4925700000000  0.5594880000000 1.0
C      1  0.5093150000000  0.4947690000000  0.5886390000000 1.0
C      1  0.5854290000000  0.4587090000000  0.5905320000000 1.0
C      1  0.6000000000000  0.4870090000000  0.5531540000000 1.0
C      1  0.5973350000000  0.5153690000000  0.5547180000000 1.0
C      1  0.3863330000000  0.4926180000000  0.3407550000000 1.0
C      1  0.4230080000000  0.5179170000000  0.4065770000000 1.0
C      1  0.6039960000000  0.5553420000000  0.4762950000000 1.0
C      1  0.4527700000000  0.5955690000000  0.4966490000000 1.0
C      1  0.5488180000000  0.5802770000000  0.4281050000000 1.0
C      1  0.4812050000000  0.5255910000000  0.5025950000000 1.0
C      1  0.4839570000000  0.5790740000000  0.5773760000000 1.0
C      1  0.5489780000000  0.4783210000000  0.4728000000000 1.0
C      1  0.5339200000000  0.5688470000000  0.5762720000000 1.0
C      1  0.5223270000000  0.4818610000000  0.4828770000000 1.0
C      1  0.3985490000000  0.5010810000000  0.3626950000000 1.0
C      1  0.4633480000000  0.3868120000000  0.4644580000000 1.0
C      1  0.4841530000000  0.4100340000000  0.5493100000000 1.0
C      1  0.5165340000000  0.5842830000000  0.4646360000000 1.0
C      1  0.4635010000000  0.5342210000000  0.4294450000000 1.0
C      1  0.4901150000000  0.5517730000000  0.5720350000000 1.0
C      1  0.4361860000000  0.5258220000000  0.4297490000000 1.0
C      1  0.5907480000000  0.4570360000000  0.4860340000000 1.0
C      1  0.4476440000000  0.5416830000000  0.5505930000000 1.0
C      1  0.5806610000000  0.4726900000000  0.5677140000000 1.0
C      1  0.5629820000000  0.4534570000000  0.4776210000000 1.0
C      1  0.5542790000000  0.4318840000000  0.4967840000000 1.0
C      1  0.5775870000000  0.5561820000000  0.5632650000000 1.0
C      1  0.4674260000000  0.5826840000000  0.4439500000000 1.0
C      1  0.4808450000000  0.5874120000000  0.5300550000000 1.0
C      1  0.6035400000000  0.5278020000000  0.4819040000000 1.0
C      1  0.4537470000000  0.4802800000000  0.4541060000000 1.0
C      1  0.4140290000000  0.4545680000000  0.5061040000000 1.0
C      1  0.5339190000000  0.5053400000000  0.6010730000000 1.0
C      1  0.5349460000000  0.5381180000000  0.5190090000000 1.0
C      1  0.4597350000000  0.4475890000000  0.5105930000000 1.0
C      1  0.6009510000000  0.5326000000000  0.5311410000000 1.0
C      1  0.5927370000000  0.4555610000000  0.5151380000000 1.0
C      1  0.4387630000000  0.3884160000000  0.4791930000000 1.0
C      1  0.5177720000000  0.5485200000000  0.5645820000000 1.0
C      1  0.5142180000000  0.4789490000000  0.5103190000000 1.0
C      1  0.5858640000000  0.5578130000000  0.5351640000000 1.0
C      1  0.5464210000000  0.5202090000000  0.4457570000000 1.0
C      1  0.5766910000000  0.5752110000000  0.5135700000000 1.0
C      1  0.4854200000000  0.4425260000000  0.4999510000000 1.0
C      1  0.4697610000000  0.3960410000000  0.5260290000000 1.0
C      1  0.4343000000000  0.4306400000000  0.5061940000000 1.0
C      1  0.4635600000000  0.4545330000000  0.5583580000000 1.0
C      1  0.6222550000000  0.4941170000000  0.5119860000000 1.0
C      1  0.5072300000000  0.4521220000000  0.5154880000000 1.0
C      1  0.5672580000000  0.4418060000000  0.5219400000000 1.0
C      1  0.4410350000000  0.4158980000000  0.4340250000000 1.0
C      1  0.6082900000000  0.4754840000000  0.5282230000000 1.0
C      1  0.4644780000000  0.5143980000000  0.5887670000000 1.0
C      1  0.4668210000000  0.5353590000000  0.5702750000000 1.0
C      1  0.4983620000000  0.5951980000000  0.5080060000000 1.0
C      1  0.4600050000000  0.3946300000000  0.4368700000000 1.0
C      1  0.5551710000000  0.4744650000000  0.5547550000000 1.0
C      1  0.5020360000000  0.4942140000000  0.5320440000000 1.0
C      1  0.4249710000000  0.5698930000000  0.4704540000000 1.0
C      1  0.4541430000000  0.4935530000000  0.5263950000000 1.0
C      1  0.4785430000000  0.5074460000000  0.5235430000000 1.0
C      1  0.5785370000000  0.5282530000000  0.5734750000000 1.0
C      1  0.4704010000000  0.5614630000000  0.4255590000000 1.0
END
