TITL C-627107-135-677 0.00333411937532862 125000 -112.151158800782 0 0 20 (C1) n - 1
REM
REM in /home/nfs/bkarasulu/CARBON/AIRSS/Generating-Clusters/LCBOP/Only-C1/SD-CG/FIRE-CG
REM
REM
REM
REM
REM
REM ./C.cell (11c1c37f851c82e70ff6c80c92926a4b)
REM AIRSS Version 0.9.1 bugfix July 2018 build 013d7b7c2542+ Fri, 06 Jul 2018 19:26:36 +0100
REM compiler GCC version 9.2.1 20190827 (Red Hat 9.2.1-1)
REM options -cpp -mtune=generic -march=x86-64 -g -O0 -fpre-include=/usr/include/finclude/math-vector-fortran.h
REM seed -1849687881 -402444856 1818939102 1526379919 -166330159 522295490 -1263197362 1050452400 -341630520 1735269765 2025584307 -38539615 1798850530 -441427420 -2256592 438004666 1194676975 1991014607 -1369245476 -1170869346 -189368140 1556938086 963703959 -1625314260 -540817868 1096595311 672514875 -551422700 -387262910 -780731690 1964301672 -721066859 306729931
REM
CELL 1.54180   50.00000   50.00000   50.00000   90.00000   90.00000   90.00000
LATT -1
SFAC C  
C      1  0.4518520000000  0.5264690000000  0.5267810000000 1.0
C      1  0.4643300000000  0.4454940000000  0.4728900000000 1.0
C      1  0.4658320000000  0.5581980000000  0.5606770000000 1.0
C      1  0.5792720000000  0.5159570000000  0.5084220000000 1.0
C      1  0.4630660000000  0.5692320000000  0.5841240000000 1.0
C      1  0.4902900000000  0.5552080000000  0.5185220000000 1.0
C      1  0.4897090000000  0.5801460000000  0.5072720000000 1.0
C      1  0.5547840000000  0.5079450000000  0.4992240000000 1.0
C      1  0.5489760000000  0.4636540000000  0.4681360000000 1.0
C      1  0.5397620000000  0.4409740000000  0.4545640000000 1.0
C      1  0.5115230000000  0.5377500000000  0.5133320000000 1.0
C      1  0.4691030000000  0.5466550000000  0.5354670000000 1.0
C      1  0.5125290000000  0.4347180000000  0.4560030000000 1.0
C      1  0.4868180000000  0.4362630000000  0.4622810000000 1.0
C      1  0.4405670000000  0.4821830000000  0.5013130000000 1.0
C      1  0.4420930000000  0.5046950000000  0.5152460000000 1.0
C      1  0.5317320000000  0.5221230000000  0.5063200000000 1.0
C      1  0.5569720000000  0.4253030000000  0.4402400000000 1.0
C      1  0.5526070000000  0.4855140000000  0.4826530000000 1.0
C      1  0.4481840000000  0.4615180000000  0.4865330000000 1.0
END
