TITL C-627111-6168-1907 1.57970648103363e-05 125000 -490.398042847816 0 0 83 (C1) n - 1
REM
REM in /home/nfs/bkarasulu/CARBON/AIRSS/Generating-Clusters/LCBOP/Only-C1/SD-CG/FIRE-CG
REM
REM
REM
REM
REM
REM ./C.cell (11c1c37f851c82e70ff6c80c92926a4b)
REM AIRSS Version 0.9.1 bugfix July 2018 build 013d7b7c2542+ Fri, 06 Jul 2018 19:26:36 +0100
REM compiler GCC version 9.2.1 20190827 (Red Hat 9.2.1-1)
REM options -cpp -mtune=generic -march=x86-64 -g -O0 -fpre-include=/usr/include/finclude/math-vector-fortran.h
REM seed -194027682 -1584502318 -1109378485 1152986609 996391847 1444484180 462551569 755162725 -489936425 1365384131 1036479825 1114155452 1445218126 557128941 1045218285 -1174309063 1669338458 -1331854800 -457898253 -814385008 -1261477516 -189712296 2096412355 547055695 -1590387900 -463400487 752311493 907407501 -1394739302 -2024547475 1315267283 351690720 -788768804
REM
CELL 1.54180   50.00000   50.00000   50.00000   90.00000   90.00000   90.00000
LATT -1
SFAC C  
C      1  0.5505830000000  0.4890880000000  0.5039240000000 1.0
C      1  0.4770870000000  0.5041960000000  0.4062990000000 1.0
C      1  0.4292510000000  0.4491640000000  0.5488890000000 1.0
C      1  0.5813100000000  0.4772280000000  0.5372460000000 1.0
C      1  0.4918520000000  0.5321140000000  0.4526430000000 1.0
C      1  0.4055220000000  0.5461430000000  0.4570060000000 1.0
C      1  0.5673230000000  0.4589830000000  0.4657570000000 1.0
C      1  0.5706700000000  0.5527650000000  0.5457380000000 1.0
C      1  0.5445730000000  0.5797870000000  0.4574490000000 1.0
C      1  0.5675820000000  0.4582360000000  0.5509740000000 1.0
C      1  0.4779300000000  0.4297270000000  0.5310040000000 1.0
C      1  0.4983540000000  0.4081210000000  0.4482800000000 1.0
C      1  0.4676430000000  0.5711120000000  0.4583070000000 1.0
C      1  0.4044940000000  0.4436840000000  0.5390640000000 1.0
C      1  0.4049540000000  0.5381130000000  0.5086420000000 1.0
C      1  0.4451110000000  0.5223210000000  0.5304500000000 1.0
C      1  0.5601650000000  0.5277340000000  0.5859620000000 1.0
C      1  0.4791120000000  0.5661960000000  0.4843610000000 1.0
C      1  0.5010500000000  0.5700810000000  0.5291770000000 1.0
C      1  0.5317880000000  0.4694640000000  0.5803820000000 1.0
C      1  0.4954630000000  0.4283970000000  0.5083430000000 1.0
C      1  0.5532300000000  0.4379750000000  0.4787030000000 1.0
C      1  0.4827800000000  0.5217490000000  0.5030650000000 1.0
C      1  0.4769330000000  0.5665020000000  0.5132940000000 1.0
C      1  0.5691370000000  0.5228130000000  0.6099360000000 1.0
C      1  0.5247700000000  0.4038630000000  0.4512520000000 1.0
C      1  0.5149950000000  0.4946210000000  0.4723680000000 1.0
C      1  0.4970430000000  0.4707800000000  0.4739340000000 1.0
C      1  0.4664760000000  0.4481010000000  0.4437900000000 1.0
C      1  0.5725600000000  0.4837560000000  0.4567510000000 1.0
C      1  0.4724490000000  0.4982260000000  0.5803410000000 1.0
C      1  0.4528020000000  0.5035340000000  0.4243570000000 1.0
C      1  0.4933020000000  0.4418360000000  0.4829480000000 1.0
C      1  0.5538180000000  0.5590600000000  0.4737440000000 1.0
C      1  0.4875810000000  0.5754500000000  0.5765660000000 1.0
C      1  0.5229560000000  0.4263400000000  0.5194590000000 1.0
C      1  0.5298620000000  0.5277020000000  0.5458920000000 1.0
C      1  0.5187560000000  0.4922920000000  0.5852230000000 1.0
C      1  0.5225820000000  0.4336770000000  0.5484220000000 1.0
C      1  0.5406420000000  0.4422070000000  0.5039940000000 1.0
C      1  0.4561700000000  0.4946660000000  0.4535570000000 1.0
C      1  0.4380590000000  0.5011460000000  0.4728430000000 1.0
C      1  0.5267440000000  0.5237410000000  0.5175340000000 1.0
C      1  0.4392430000000  0.4774840000000  0.4139760000000 1.0
C      1  0.4340150000000  0.4683420000000  0.5694220000000 1.0
C      1  0.4474090000000  0.5335430000000  0.4290380000000 1.0
C      1  0.4610700000000  0.4725240000000  0.5770340000000 1.0
C      1  0.5381870000000  0.5000970000000  0.3564010000000 1.0
C      1  0.4478820000000  0.4526500000000  0.4227440000000 1.0
C      1  0.4966480000000  0.5027900000000  0.3885110000000 1.0
C      1  0.4700510000000  0.5478520000000  0.4401780000000 1.0
C      1  0.4835480000000  0.4955500000000  0.5165580000000 1.0
C      1  0.4768460000000  0.4501200000000  0.5705690000000 1.0
C      1  0.4528060000000  0.4369640000000  0.5399730000000 1.0
C      1  0.4738410000000  0.4733370000000  0.4567040000000 1.0
C      1  0.4894910000000  0.5383450000000  0.4805450000000 1.0
C      1  0.5650110000000  0.5358630000000  0.4617400000000 1.0
C      1  0.5419010000000  0.4511660000000  0.5612400000000 1.0
C      1  0.4214730000000  0.5421090000000  0.4359250000000 1.0
C      1  0.5063220000000  0.4782380000000  0.5200630000000 1.0
C      1  0.4576990000000  0.4960300000000  0.5299820000000 1.0
C      1  0.5715500000000  0.5105850000000  0.4554270000000 1.0
C      1  0.5174690000000  0.5014100000000  0.3721700000000 1.0
C      1  0.5099680000000  0.5111090000000  0.4493250000000 1.0
C      1  0.5834730000000  0.5225070000000  0.5122430000000 1.0
C      1  0.5332770000000  0.4685330000000  0.5123670000000 1.0
C      1  0.4822190000000  0.4287210000000  0.4585280000000 1.0
C      1  0.4945550000000  0.4355990000000  0.5550350000000 1.0
C      1  0.5515930000000  0.5615450000000  0.5023170000000 1.0
C      1  0.5058840000000  0.5325130000000  0.5609070000000 1.0
C      1  0.5748030000000  0.4957080000000  0.5166480000000 1.0
C      1  0.5536470000000  0.5355650000000  0.5600930000000 1.0
C      1  0.5724450000000  0.5484180000000  0.5179310000000 1.0
C      1  0.5313650000000  0.5076990000000  0.4936660000000 1.0
C      1  0.4176920000000  0.5285670000000  0.5318750000000 1.0
C      1  0.5271980000000  0.5716640000000  0.5156740000000 1.0
C      1  0.4979450000000  0.5100560000000  0.5772860000000 1.0
C      1  0.4038090000000  0.5257320000000  0.5552390000000 1.0
C      1  0.5338410000000  0.5982340000000  0.4424940000000 1.0
C      1  0.4645370000000  0.5402780000000  0.5190620000000 1.0
C      1  0.4976550000000  0.5598110000000  0.5565360000000 1.0
C      1  0.5455960000000  0.4154540000000  0.4635310000000 1.0
C      1  0.4005750000000  0.5445910000000  0.4831740000000 1.0
END
