TITL C-627113-6568-232 -1.12410857685672e-06 125000 -778.334534454406 0 0 128 (C1) n - 1
REM
REM in /home/nfs/bkarasulu/CARBON/AIRSS/Generating-Clusters/LCBOP/Only-C1/SD-CG/FIRE-CG
REM
REM
REM
REM
REM
REM ./C.cell (11c1c37f851c82e70ff6c80c92926a4b)
REM AIRSS Version 0.9.1 bugfix July 2018 build 013d7b7c2542+ Fri, 06 Jul 2018 19:26:36 +0100
REM compiler GCC version 9.2.1 20190827 (Red Hat 9.2.1-1)
REM options -cpp -mtune=generic -march=x86-64 -g -O0 -fpre-include=/usr/include/finclude/math-vector-fortran.h
REM seed 2095250336 -1755236770 -732445970 36846851 -961293032 767302541 -430482071 1507287913 1893004945 1483972720 -1721055386 -1249778869 363625232 326932082 -956429937 -1621047620 -1990981266 1197761008 1601667154 -1186697227 -1787383803 1221467596 846099013 379075668 -3400393 -1103305189 1887177398 -492881217 -110209065 1158591889 -85510447 1226672686 1977104393
REM
CELL 1.54180   50.00000   50.00000   50.00000   90.00000   90.00000   90.00000
LATT -1
SFAC C  
C      1  0.4978760000000  0.4023960000000  0.4731920000000 1.0
C      1  0.4773840000000  0.4940530000000  0.5159040000000 1.0
C      1  0.4760190000000  0.4347770000000  0.5592210000000 1.0
C      1  0.4377250000000  0.4792490000000  0.5351890000000 1.0
C      1  0.4884530000000  0.5241670000000  0.5586680000000 1.0
C      1  0.5248700000000  0.6043440000000  0.4938030000000 1.0
C      1  0.4727770000000  0.4920230000000  0.6075470000000 1.0
C      1  0.4045080000000  0.5170340000000  0.5200100000000 1.0
C      1  0.5013960000000  0.5888300000000  0.3536930000000 1.0
C      1  0.4736600000000  0.4541580000000  0.4459610000000 1.0
C      1  0.5377040000000  0.5723950000000  0.5645800000000 1.0
C      1  0.4687960000000  0.4116480000000  0.5439640000000 1.0
C      1  0.4765360000000  0.5391820000000  0.4910830000000 1.0
C      1  0.4855100000000  0.3963960000000  0.4999950000000 1.0
C      1  0.5792650000000  0.4356920000000  0.5172340000000 1.0
C      1  0.5032280000000  0.5653480000000  0.3648670000000 1.0
C      1  0.5787030000000  0.4376110000000  0.4899530000000 1.0
C      1  0.5731990000000  0.5329680000000  0.5627230000000 1.0
C      1  0.4237670000000  0.5426770000000  0.5138000000000 1.0
C      1  0.5572630000000  0.4828900000000  0.5107250000000 1.0
C      1  0.4286790000000  0.5520720000000  0.5613490000000 1.0
C      1  0.5446410000000  0.4988500000000  0.4675610000000 1.0
C      1  0.4397760000000  0.4859460000000  0.5625170000000 1.0
C      1  0.4809370000000  0.5035530000000  0.3961440000000 1.0
C      1  0.3951700000000  0.3976840000000  0.5372060000000 1.0
C      1  0.5825900000000  0.4882650000000  0.5240750000000 1.0
C      1  0.4925380000000  0.4023580000000  0.5274520000000 1.0
C      1  0.4739450000000  0.5660450000000  0.5840310000000 1.0
C      1  0.5075170000000  0.5420050000000  0.5480730000000 1.0
C      1  0.5158850000000  0.5611790000000  0.5034970000000 1.0
C      1  0.3812690000000  0.4841940000000  0.4933080000000 1.0
C      1  0.4133730000000  0.5141170000000  0.4478990000000 1.0
C      1  0.4446990000000  0.5544850000000  0.4430380000000 1.0
C      1  0.5615560000000  0.4733830000000  0.4248720000000 1.0
C      1  0.5910780000000  0.5144730000000  0.5174640000000 1.0
C      1  0.4576060000000  0.4742430000000  0.5155340000000 1.0
C      1  0.5460020000000  0.5871760000000  0.4810320000000 1.0
C      1  0.5207620000000  0.4096640000000  0.5358670000000 1.0
C      1  0.5445870000000  0.5153010000000  0.6048070000000 1.0
C      1  0.5793360000000  0.5769240000000  0.5368180000000 1.0
C      1  0.5095930000000  0.5259980000000  0.4536010000000 1.0
C      1  0.5437460000000  0.4818800000000  0.4036330000000 1.0
C      1  0.4569060000000  0.5032360000000  0.4628450000000 1.0
C      1  0.4577970000000  0.4956950000000  0.4367900000000 1.0
C      1  0.6637920000000  0.5444560000000  0.5029450000000 1.0
C      1  0.5250020000000  0.5478580000000  0.5712200000000 1.0
C      1  0.4533340000000  0.5144460000000  0.4163250000000 1.0
C      1  0.5234680000000  0.4813910000000  0.5498260000000 1.0
C      1  0.4715230000000  0.5578760000000  0.4343420000000 1.0
C      1  0.5806980000000  0.5341520000000  0.4562520000000 1.0
C      1  0.5659890000000  0.4547420000000  0.4708580000000 1.0
C      1  0.4675470000000  0.5189740000000  0.6093120000000 1.0
C      1  0.4134660000000  0.5288900000000  0.5672850000000 1.0
C      1  0.4505080000000  0.4148240000000  0.4712860000000 1.0
C      1  0.5181390000000  0.4598140000000  0.4934930000000 1.0
C      1  0.4271330000000  0.5056850000000  0.5761740000000 1.0
C      1  0.4204540000000  0.4591610000000  0.4592630000000 1.0
C      1  0.4686480000000  0.5449100000000  0.6005850000000 1.0
C      1  0.4324340000000  0.5308620000000  0.4302310000000 1.0
C      1  0.5409290000000  0.5239420000000  0.5214850000000 1.0
C      1  0.5053430000000  0.4537800000000  0.4021190000000 1.0
C      1  0.4820920000000  0.5175670000000  0.5050220000000 1.0
C      1  0.5767530000000  0.4792770000000  0.6127830000000 1.0
C      1  0.4779910000000  0.4644150000000  0.4718670000000 1.0
C      1  0.5543220000000  0.4509110000000  0.4439100000000 1.0
C      1  0.3965970000000  0.4676570000000  0.5115940000000 1.0
C      1  0.5048270000000  0.5416570000000  0.3766160000000 1.0
C      1  0.5839570000000  0.4908900000000  0.4301040000000 1.0
C      1  0.4028170000000  0.4407650000000  0.5180510000000 1.0
C      1  0.4392920000000  0.5580700000000  0.5351890000000 1.0
C      1  0.5127230000000  0.5887640000000  0.5592140000000 1.0
C      1  0.5366760000000  0.4960610000000  0.5279840000000 1.0
C      1  0.5935100000000  0.5146120000000  0.4398370000000 1.0
C      1  0.5376100000000  0.4339270000000  0.5421380000000 1.0
C      1  0.5325060000000  0.5416480000000  0.4614820000000 1.0
C      1  0.5052720000000  0.5177210000000  0.3909190000000 1.0
C      1  0.5079810000000  0.4341280000000  0.4237160000000 1.0
C      1  0.5027450000000  0.4764580000000  0.4768970000000 1.0
C      1  0.5272840000000  0.4348100000000  0.4906260000000 1.0
C      1  0.5306330000000  0.4316530000000  0.4424950000000 1.0
C      1  0.4917370000000  0.5406550000000  0.4381880000000 1.0
C      1  0.5028370000000  0.5114420000000  0.5799150000000 1.0
C      1  0.4134870000000  0.4171930000000  0.5305160000000 1.0
C      1  0.6409230000000  0.5332730000000  0.5085600000000 1.0
C      1  0.4134910000000  0.4875310000000  0.5243820000000 1.0
C      1  0.5857630000000  0.5605740000000  0.4667850000000 1.0
C      1  0.5201590000000  0.5424180000000  0.5233890000000 1.0
C      1  0.5835860000000  0.5834140000000  0.5110500000000 1.0
C      1  0.5311780000000  0.5622620000000  0.4793610000000 1.0
C      1  0.5655070000000  0.4980980000000  0.5966330000000 1.0
C      1  0.5678530000000  0.5308850000000  0.5146420000000 1.0
C      1  0.4915120000000  0.4494780000000  0.5408580000000 1.0
C      1  0.4564740000000  0.3980500000000  0.4942160000000 1.0
C      1  0.4038690000000  0.5270760000000  0.4723190000000 1.0
C      1  0.4384480000000  0.4421580000000  0.4753500000000 1.0
C      1  0.5575140000000  0.4794000000000  0.4828020000000 1.0
C      1  0.5239300000000  0.5274680000000  0.5905660000000 1.0
C      1  0.4756230000000  0.4098710000000  0.4553180000000 1.0
C      1  0.4642350000000  0.5644290000000  0.4876080000000 1.0
C      1  0.4643240000000  0.5756900000000  0.5349430000000 1.0
C      1  0.5153820000000  0.4985080000000  0.4637930000000 1.0
C      1  0.5549400000000  0.5248120000000  0.4625510000000 1.0
C      1  0.5303740000000  0.5068620000000  0.3999690000000 1.0
C      1  0.4760070000000  0.4466070000000  0.5846450000000 1.0
C      1  0.5183980000000  0.4548780000000  0.5425900000000 1.0
C      1  0.5220680000000  0.4182110000000  0.4683570000000 1.0
C      1  0.4409160000000  0.4114290000000  0.5368380000000 1.0
C      1  0.4133020000000  0.4841710000000  0.4493590000000 1.0
C      1  0.4827320000000  0.5796920000000  0.5593450000000 1.0
C      1  0.4867830000000  0.4719440000000  0.5915440000000 1.0
C      1  0.4831870000000  0.4296230000000  0.4372270000000 1.0
C      1  0.5741260000000  0.5809180000000  0.4843560000000 1.0
C      1  0.4407320000000  0.5613090000000  0.4710180000000 1.0
C      1  0.5654250000000  0.4446750000000  0.5408510000000 1.0
C      1  0.4677710000000  0.4721770000000  0.4266770000000 1.0
C      1  0.4202430000000  0.5475510000000  0.4848540000000 1.0
C      1  0.5298650000000  0.4610770000000  0.3904920000000 1.0
C      1  0.4842190000000  0.4744810000000  0.4033720000000 1.0
C      1  0.6171790000000  0.5227370000000  0.5137500000000 1.0
C      1  0.5650520000000  0.5624410000000  0.5568170000000 1.0
C      1  0.5773780000000  0.4784490000000  0.5506120000000 1.0
C      1  0.5028350000000  0.5876360000000  0.5051950000000 1.0
C      1  0.4744170000000  0.5826510000000  0.5080940000000 1.0
C      1  0.4569420000000  0.4590810000000  0.4911080000000 1.0
C      1  0.5076510000000  0.4844970000000  0.5747880000000 1.0
C      1  0.5738680000000  0.5025510000000  0.5693260000000 1.0
C      1  0.3896950000000  0.5122820000000  0.4927940000000 1.0
C      1  0.3934340000000  0.5240630000000  0.5473080000000 1.0
END
