TITL C-627112-676-976 -4.65035842600151e-07 125000 -809.064893603063 0 0 132 (C1) n - 1
REM
REM in /home/nfs/bkarasulu/CARBON/AIRSS/Generating-Clusters/LCBOP/Only-C1/SD-CG/FIRE-CG
REM
REM
REM
REM
REM
REM ./C.cell (11c1c37f851c82e70ff6c80c92926a4b)
REM AIRSS Version 0.9.1 bugfix July 2018 build 013d7b7c2542+ Fri, 06 Jul 2018 19:26:36 +0100
REM compiler GCC version 9.2.1 20190827 (Red Hat 9.2.1-1)
REM options -cpp -mtune=generic -march=x86-64 -g -O0 -fpre-include=/usr/include/finclude/math-vector-fortran.h
REM seed -1558861881 2099819306 -1651239706 -1019035644 -2098549188 -1121824567 1854271327 1811328614 779994532 -880615665 -1371640481 1392670379 -502181132 545956309 -1502747226 2130843005 -1497820474 539833187 -632825757 738079687 1510816189 -1198492930 1793250504 1541099272 1174184798 592900326 -249537070 1873793459 2134626431 399333032 978296588 1082145256 1601264100
REM
CELL 1.54180   50.00000   50.00000   50.00000   90.00000   90.00000   90.00000
LATT -1
SFAC C  
C      1  0.5030990000000  0.4661910000000  0.5329820000000 1.0
C      1  0.5847430000000  0.4868710000000  0.5499330000000 1.0
C      1  0.5111440000000  0.4914150000000  0.4480970000000 1.0
C      1  0.3977270000000  0.5199440000000  0.4706360000000 1.0
C      1  0.5561570000000  0.5759990000000  0.4749750000000 1.0
C      1  0.4473330000000  0.5620510000000  0.5012580000000 1.0
C      1  0.4353000000000  0.4635380000000  0.5573670000000 1.0
C      1  0.5365360000000  0.5314040000000  0.4410750000000 1.0
C      1  0.4619910000000  0.4279030000000  0.4843420000000 1.0
C      1  0.5596440000000  0.5091140000000  0.4797690000000 1.0
C      1  0.4475600000000  0.4292560000000  0.4588750000000 1.0
C      1  0.5490140000000  0.5749380000000  0.4472640000000 1.0
C      1  0.4133620000000  0.5015940000000  0.4529250000000 1.0
C      1  0.5175240000000  0.5449490000000  0.4854430000000 1.0
C      1  0.4702090000000  0.4807050000000  0.4056330000000 1.0
C      1  0.5456140000000  0.4986310000000  0.5029900000000 1.0
C      1  0.5192730000000  0.4598200000000  0.4083500000000 1.0
C      1  0.5590300000000  0.5228910000000  0.5763570000000 1.0
C      1  0.5198680000000  0.5120080000000  0.4295530000000 1.0
C      1  0.5570200000000  0.4903520000000  0.4565310000000 1.0
C      1  0.4768120000000  0.4981790000000  0.6107340000000 1.0
C      1  0.4853520000000  0.5001960000000  0.5042070000000 1.0
C      1  0.5557200000000  0.4432100000000  0.4385640000000 1.0
C      1  0.4416430000000  0.4894480000000  0.5688990000000 1.0
C      1  0.4973680000000  0.5286930000000  0.3893540000000 1.0
C      1  0.5813160000000  0.5145900000000  0.5585880000000 1.0
C      1  0.4779120000000  0.4645690000000  0.4665010000000 1.0
C      1  0.5297500000000  0.4013140000000  0.4528470000000 1.0
C      1  0.4318470000000  0.5030130000000  0.5007210000000 1.0
C      1  0.4929610000000  0.5057630000000  0.5688920000000 1.0
C      1  0.4697020000000  0.5108930000000  0.4617730000000 1.0
C      1  0.4713580000000  0.6003740000000  0.5151810000000 1.0
C      1  0.4725470000000  0.4539030000000  0.4918340000000 1.0
C      1  0.4517310000000  0.4411110000000  0.5574610000000 1.0
C      1  0.5823910000000  0.5307190000000  0.4415340000000 1.0
C      1  0.5332440000000  0.4244240000000  0.4377490000000 1.0
C      1  0.4164000000000  0.4568690000000  0.5147800000000 1.0
C      1  0.5234540000000  0.4574440000000  0.5116950000000 1.0
C      1  0.4272000000000  0.4493480000000  0.4555300000000 1.0
C      1  0.4994500000000  0.5223500000000  0.4973010000000 1.0
C      1  0.4654720000000  0.5449040000000  0.5207440000000 1.0
C      1  0.5229610000000  0.3883560000000  0.5285930000000 1.0
C      1  0.5498780000000  0.3929780000000  0.5333880000000 1.0
C      1  0.5400390000000  0.5814460000000  0.5482690000000 1.0
C      1  0.4406810000000  0.5419480000000  0.4290920000000 1.0
C      1  0.5312460000000  0.4788900000000  0.4633390000000 1.0
C      1  0.3975620000000  0.5618430000000  0.5000010000000 1.0
C      1  0.5377470000000  0.4174850000000  0.5697790000000 1.0
C      1  0.5049630000000  0.5353820000000  0.5740050000000 1.0
C      1  0.4668580000000  0.5828810000000  0.4606710000000 1.0
C      1  0.4556500000000  0.5424910000000  0.5889130000000 1.0
C      1  0.4578090000000  0.5184630000000  0.6065330000000 1.0
C      1  0.4712990000000  0.5846490000000  0.5402420000000 1.0
C      1  0.5488370000000  0.4626190000000  0.4159100000000 1.0
C      1  0.4956280000000  0.5795820000000  0.4529370000000 1.0
C      1  0.4992150000000  0.4806530000000  0.4016460000000 1.0
C      1  0.5688570000000  0.4413630000000  0.5119610000000 1.0
C      1  0.5115220000000  0.4345980000000  0.4211810000000 1.0
C      1  0.3975470000000  0.5336040000000  0.4968830000000 1.0
C      1  0.4854250000000  0.4245710000000  0.4229120000000 1.0
C      1  0.5893480000000  0.5069330000000  0.4833800000000 1.0
C      1  0.4748070000000  0.4086860000000  0.5260260000000 1.0
C      1  0.4107330000000  0.4662030000000  0.5411010000000 1.0
C      1  0.5592000000000  0.4143340000000  0.5510670000000 1.0
C      1  0.4749640000000  0.4447290000000  0.5717510000000 1.0
C      1  0.4831260000000  0.5336370000000  0.4524040000000 1.0
C      1  0.5094320000000  0.5078110000000  0.4036600000000 1.0
C      1  0.4800670000000  0.4724010000000  0.5129010000000 1.0
C      1  0.3965790000000  0.4866250000000  0.5559270000000 1.0
C      1  0.4142700000000  0.4996360000000  0.5733070000000 1.0
C      1  0.4909800000000  0.3885370000000  0.4833490000000 1.0
C      1  0.5167520000000  0.4676990000000  0.5815750000000 1.0
C      1  0.5429160000000  0.5180600000000  0.5222070000000 1.0
C      1  0.6062550000000  0.5438480000000  0.5169040000000 1.0
C      1  0.5454310000000  0.4681840000000  0.5758800000000 1.0
C      1  0.5011100000000  0.4046010000000  0.5386960000000 1.0
C      1  0.5408100000000  0.4360140000000  0.5079900000000 1.0
C      1  0.4230130000000  0.5877440000000  0.5358880000000 1.0
C      1  0.4375190000000  0.5524830000000  0.5658020000000 1.0
C      1  0.5589110000000  0.5495210000000  0.4352100000000 1.0
C      1  0.4148210000000  0.5213450000000  0.5175810000000 1.0
C      1  0.4741390000000  0.4057820000000  0.4973940000000 1.0
C      1  0.5819280000000  0.5761930000000  0.4887810000000 1.0
C      1  0.4182120000000  0.4744540000000  0.4655330000000 1.0
C      1  0.4629980000000  0.5870830000000  0.4903950000000 1.0
C      1  0.5059750000000  0.5434150000000  0.5446150000000 1.0
C      1  0.5391920000000  0.5296510000000  0.4703120000000 1.0
C      1  0.5994600000000  0.4835530000000  0.5254360000000 1.0
C      1  0.5733740000000  0.4470470000000  0.4619280000000 1.0
C      1  0.5120890000000  0.4223950000000  0.5587150000000 1.0
C      1  0.5460480000000  0.5821590000000  0.5208080000000 1.0
C      1  0.4319350000000  0.5126880000000  0.4316080000000 1.0
C      1  0.5994500000000  0.5531750000000  0.4893820000000 1.0
C      1  0.5294550000000  0.4775810000000  0.4926070000000 1.0
C      1  0.5730340000000  0.5016720000000  0.4344530000000 1.0
C      1  0.4482110000000  0.5170250000000  0.4801760000000 1.0
C      1  0.4844860000000  0.4882520000000  0.4556070000000 1.0
C      1  0.5190420000000  0.5198610000000  0.5346100000000 1.0
C      1  0.4856450000000  0.5598680000000  0.5348340000000 1.0
C      1  0.5679630000000  0.4643310000000  0.5576960000000 1.0
C      1  0.5617810000000  0.5376450000000  0.5258460000000 1.0
C      1  0.4481020000000  0.4935890000000  0.4158020000000 1.0
C      1  0.5345890000000  0.5695230000000  0.4958590000000 1.0
C      1  0.4288010000000  0.5323560000000  0.5429180000000 1.0
C      1  0.5356980000000  0.5403820000000  0.5801410000000 1.0
C      1  0.4623720000000  0.4212020000000  0.4361310000000 1.0
C      1  0.4214100000000  0.4768590000000  0.4944240000000 1.0
C      1  0.5817670000000  0.4554450000000  0.4893420000000 1.0
C      1  0.5971260000000  0.5317880000000  0.4691160000000 1.0
C      1  0.4207790000000  0.5740480000000  0.5111220000000 1.0
C      1  0.4426980000000  0.5451600000000  0.4773150000000 1.0
C      1  0.4295630000000  0.4310480000000  0.5166440000000 1.0
C      1  0.4752610000000  0.5438210000000  0.3901900000000 1.0
C      1  0.5739300000000  0.5884850000000  0.5139350000000 1.0
C      1  0.5081470000000  0.4955700000000  0.5445730000000 1.0
C      1  0.4978240000000  0.4881520000000  0.5929500000000 1.0
C      1  0.5409150000000  0.5678640000000  0.5716200000000 1.0
C      1  0.5876830000000  0.5340860000000  0.5368700000000 1.0
C      1  0.5710120000000  0.4392820000000  0.5414700000000 1.0
C      1  0.4530840000000  0.5487490000000  0.4044040000000 1.0
C      1  0.4471770000000  0.5594700000000  0.4521050000000 1.0
C      1  0.5220750000000  0.5867670000000  0.4420680000000 1.0
C      1  0.4997690000000  0.5531540000000  0.4628270000000 1.0
C      1  0.5018210000000  0.4501690000000  0.5606430000000 1.0
C      1  0.5128430000000  0.3875180000000  0.4681300000000 1.0
C      1  0.4444290000000  0.5792340000000  0.5532030000000 1.0
C      1  0.4562170000000  0.5227580000000  0.5369660000000 1.0
C      1  0.4835420000000  0.5513870000000  0.5876550000000 1.0
C      1  0.5667940000000  0.4847920000000  0.4122270000000 1.0
C      1  0.4638300000000  0.5048350000000  0.5582470000000 1.0
C      1  0.5948030000000  0.4814840000000  0.4971360000000 1.0
C      1  0.4509760000000  0.4234730000000  0.5351310000000 1.0
END
