TITL C-627107-135-1540 0.136447031880373 125000 -330.536891326255 0 0 56 (C1) n - 1
REM
REM in /home/nfs/bkarasulu/CARBON/AIRSS/Generating-Clusters/LCBOP/Only-C1/SD-CG/FIRE-CG
REM
REM
REM
REM
REM
REM ./C.cell (11c1c37f851c82e70ff6c80c92926a4b)
REM AIRSS Version 0.9.1 bugfix July 2018 build 013d7b7c2542+ Fri, 06 Jul 2018 19:26:36 +0100
REM compiler GCC version 9.2.1 20190827 (Red Hat 9.2.1-1)
REM options -cpp -mtune=generic -march=x86-64 -g -O0 -fpre-include=/usr/include/finclude/math-vector-fortran.h
REM seed 437555274 -2147417205 2026659808 -408849431 217678202 -1840109998 297275715 1010404199 -918787357 -785809355 334321783 216688268 -152274978 1718562831 -104846910 606026783 687753200 -1582658378 -2069729929 -204378328 759216898 -743313700 -1276738967 -373053662 -1470675129 997416988 616295370 -1533702040 979815407 -773140722 454026802 -411724719 -468816271
REM
CELL 1.54180   50.00000   50.00000   50.00000   90.00000   90.00000   90.00000
LATT -1
SFAC C  
C      1  0.6075400000000  0.4740680000000  0.5292020000000 1.0
C      1  0.5617100000000  0.5961190000000  0.4939510000000 1.0
C      1  0.5981060000000  0.5914640000000  0.5548310000000 1.0
C      1  0.5255620000000  0.4805100000000  0.3506640000000 1.0
C      1  0.5485120000000  0.5305530000000  0.5067990000000 1.0
C      1  0.4129590000000  0.4861210000000  0.4666000000000 1.0
C      1  0.5815120000000  0.4757430000000  0.5391710000000 1.0
C      1  0.5471170000000  0.4364550000000  0.5486070000000 1.0
C      1  0.4458580000000  0.4671420000000  0.5903880000000 1.0
C      1  0.4872730000000  0.5293980000000  0.4945340000000 1.0
C      1  0.5345190000000  0.5507080000000  0.4930670000000 1.0
C      1  0.4448290000000  0.4091570000000  0.6786080000000 1.0
C      1  0.5505320000000  0.5160270000000  0.3832780000000 1.0
C      1  0.4670130000000  0.4526250000000  0.3970170000000 1.0
C      1  0.4455970000000  0.4525900000000  0.6125320000000 1.0
C      1  0.4216690000000  0.5437430000000  0.5127530000000 1.0
C      1  0.5882440000000  0.5426100000000  0.5680400000000 1.0
C      1  0.5680850000000  0.4527200000000  0.5475870000000 1.0
C      1  0.3946130000000  0.4537480000000  0.4353900000000 1.0
C      1  0.5684310000000  0.5009800000000  0.5404910000000 1.0
C      1  0.4463280000000  0.4815340000000  0.5681430000000 1.0
C      1  0.4529980000000  0.4510680000000  0.4194470000000 1.0
C      1  0.5670930000000  0.5472820000000  0.4221630000000 1.0
C      1  0.4842380000000  0.4582480000000  0.3776720000000 1.0
C      1  0.5073860000000  0.5456520000000  0.4881240000000 1.0
C      1  0.5233590000000  0.4925650000000  0.5216780000000 1.0
C      1  0.4450820000000  0.4234760000000  0.6568240000000 1.0
C      1  0.4970600000000  0.4860560000000  0.5140820000000 1.0
C      1  0.4480150000000  0.4949520000000  0.5453720000000 1.0
C      1  0.6318830000000  0.4732110000000  0.5199360000000 1.0
C      1  0.5471150000000  0.5075040000000  0.5228240000000 1.0
C      1  0.4163970000000  0.4647940000000  0.4488630000000 1.0
C      1  0.5917510000000  0.6065850000000  0.5338620000000 1.0
C      1  0.5009320000000  0.4395490000000  0.5274230000000 1.0
C      1  0.4071560000000  0.5930080000000  0.5258110000000 1.0
C      1  0.5782780000000  0.6081490000000  0.5109480000000 1.0
C      1  0.5962530000000  0.5679290000000  0.5670870000000 1.0
C      1  0.4143440000000  0.5683500000000  0.5192630000000 1.0
C      1  0.4895610000000  0.4587940000000  0.5105780000000 1.0
C      1  0.4181100000000  0.5035960000000  0.4858290000000 1.0
C      1  0.4784360000000  0.5071620000000  0.5091720000000 1.0
C      1  0.5593450000000  0.5320140000000  0.4025010000000 1.0
C      1  0.3746020000000  0.4432210000000  0.4224310000000 1.0
C      1  0.5776740000000  0.5201130000000  0.5587340000000 1.0
C      1  0.4727440000000  0.4511710000000  0.4896710000000 1.0
C      1  0.5397550000000  0.4992040000000  0.3658780000000 1.0
C      1  0.5036780000000  0.4674780000000  0.3622190000000 1.0
C      1  0.4523510000000  0.5065980000000  0.5203520000000 1.0
C      1  0.4583780000000  0.4488900000000  0.4675380000000 1.0
C      1  0.5329630000000  0.4750640000000  0.3249110000000 1.0
C      1  0.4305050000000  0.5180790000000  0.5062290000000 1.0
C      1  0.4453390000000  0.4380350000000  0.6346750000000 1.0
C      1  0.5464610000000  0.5752930000000  0.4876040000000 1.0
C      1  0.4000880000000  0.6172610000000  0.5322520000000 1.0
C      1  0.4425750000000  0.4543300000000  0.4451320000000 1.0
C      1  0.5220860000000  0.4313030000000  0.5412610000000 1.0
END
