TITL C-627107-135-1626 0.017579100449031 125000 -210.453132124377 0 0 37 (C1) n - 1
REM
REM in /home/nfs/bkarasulu/CARBON/AIRSS/Generating-Clusters/LCBOP/Only-C1/SD-CG/FIRE-CG
REM
REM
REM
REM
REM
REM ./C.cell (11c1c37f851c82e70ff6c80c92926a4b)
REM AIRSS Version 0.9.1 bugfix July 2018 build 013d7b7c2542+ Fri, 06 Jul 2018 19:26:36 +0100
REM compiler GCC version 9.2.1 20190827 (Red Hat 9.2.1-1)
REM options -cpp -mtune=generic -march=x86-64 -g -O0 -fpre-include=/usr/include/finclude/math-vector-fortran.h
REM seed 62686502 -1213451749 -544309044 461062965 -302002786 -1480459708 927522110 -259617106 1967619458 -471933705 1026646476 -482408925 -271066657 925542860 1206040582 -126506723 -180293343 1741430196 -1822253518 -2043058699 47504397 2005289381 -1943450939 1025842750 1380538306 1828126925 -332243725 -1877841575 75351129 -911543330 -754200564 -399635021 2096026093
REM
CELL 1.54180   50.00000   50.00000   50.00000   90.00000   90.00000   90.00000
LATT -1
SFAC C  
C      1  0.5349500000000  0.6227550000000  0.4516490000000 1.0
C      1  0.5590010000000  0.5282220000000  0.4963790000000 1.0
C      1  0.5085300000000  0.5542360000000  0.4367440000000 1.0
C      1  0.4694050000000  0.3902210000000  0.4755680000000 1.0
C      1  0.5828040000000  0.5176200000000  0.4960780000000 1.0
C      1  0.4831100000000  0.5064460000000  0.5394550000000 1.0
C      1  0.4886300000000  0.4027070000000  0.5744100000000 1.0
C      1  0.4588620000000  0.4792310000000  0.5705400000000 1.0
C      1  0.4757420000000  0.4383720000000  0.4819780000000 1.0
C      1  0.5020190000000  0.5306090000000  0.4469980000000 1.0
C      1  0.5200380000000  0.5778780000000  0.4405410000000 1.0
C      1  0.4548510000000  0.4216250000000  0.4412380000000 1.0
C      1  0.4968650000000  0.5153070000000  0.5172470000000 1.0
C      1  0.4734930000000  0.4582780000000  0.5268800000000 1.0
C      1  0.5336150000000  0.5955150000000  0.4574730000000 1.0
C      1  0.4939790000000  0.4865080000000  0.4658530000000 1.0
C      1  0.4460820000000  0.4584380000000  0.5823090000000 1.0
C      1  0.5305010000000  0.5679180000000  0.4981260000000 1.0
C      1  0.4835220000000  0.4050570000000  0.5485200000000 1.0
C      1  0.5106800000000  0.5227090000000  0.4941330000000 1.0
C      1  0.5021030000000  0.5130330000000  0.4687310000000 1.0
C      1  0.4758220000000  0.4358180000000  0.5105290000000 1.0
C      1  0.4765130000000  0.5215790000000  0.5631550000000 1.0
C      1  0.5456420000000  0.5850890000000  0.4811170000000 1.0
C      1  0.5134590000000  0.5787320000000  0.5166530000000 1.0
C      1  0.5335010000000  0.5396530000000  0.4960740000000 1.0
C      1  0.4677530000000  0.3680640000000  0.4597730000000 1.0
C      1  0.5383380000000  0.6742570000000  0.4417010000000 1.0
C      1  0.5715110000000  0.5914660000000  0.4874670000000 1.0
C      1  0.4933230000000  0.4012830000000  0.6000140000000 1.0
C      1  0.5366260000000  0.6487110000000  0.4466080000000 1.0
C      1  0.4852990000000  0.4618890000000  0.4703000000000 1.0
C      1  0.4780140000000  0.4096190000000  0.5216650000000 1.0
C      1  0.4743760000000  0.3886990000000  0.5032310000000 1.0
C      1  0.4719380000000  0.4797660000000  0.5442970000000 1.0
C      1  0.4665610000000  0.4168180000000  0.4654960000000 1.0
C      1  0.4625370000000  0.5058740000000  0.5810710000000 1.0
END
