TITL C-627113-6568-271 7.87079780331539e-07 125000 -1126.82379125784 0 0 183 (C1) n - 1
REM
REM in /home/nfs/bkarasulu/CARBON/AIRSS/Generating-Clusters/LCBOP/Only-C1/SD-CG/FIRE-CG
REM
REM
REM
REM
REM
REM ./C.cell (11c1c37f851c82e70ff6c80c92926a4b)
REM AIRSS Version 0.9.1 bugfix July 2018 build 013d7b7c2542+ Fri, 06 Jul 2018 19:26:36 +0100
REM compiler GCC version 9.2.1 20190827 (Red Hat 9.2.1-1)
REM options -cpp -mtune=generic -march=x86-64 -g -O0 -fpre-include=/usr/include/finclude/math-vector-fortran.h
REM seed -1204138791 -1646114600 -1849265856 -1055528067 -348011397 -584602401 1653320325 -1187773632 -776032994 -1335340335 -1684284212 -1874467864 571264851 1784430821 -1404755963 1213377790 -1081301201 -14939546 -1534696950 1872235934 -1919253701 869153878 -402791771 -1446525783 -945401489 -1176670085 881817700 233271463 -1924412755 -1234407180 -1392425704 1939720372 -421122453
REM
CELL 1.54180   50.00000   50.00000   50.00000   90.00000   90.00000   90.00000
LATT -1
SFAC C  
C      1  0.5859840000000  0.5994060000000  0.5092910000000 1.0
C      1  0.5100210000000  0.6081470000000  0.4457840000000 1.0
C      1  0.5242920000000  0.5645310000000  0.4980140000000 1.0
C      1  0.4933370000000  0.5560210000000  0.3965800000000 1.0
C      1  0.5216270000000  0.4007510000000  0.4780790000000 1.0
C      1  0.6023270000000  0.4763240000000  0.4944210000000 1.0
C      1  0.4661630000000  0.5976340000000  0.5438060000000 1.0
C      1  0.5808960000000  0.4149080000000  0.4465630000000 1.0
C      1  0.4945750000000  0.4150880000000  0.5611500000000 1.0
C      1  0.3874360000000  0.5559220000000  0.4720800000000 1.0
C      1  0.3821110000000  0.5045620000000  0.5106490000000 1.0
C      1  0.5420280000000  0.6037740000000  0.5253870000000 1.0
C      1  0.5554940000000  0.5174450000000  0.5603870000000 1.0
C      1  0.4210020000000  0.4376550000000  0.4889420000000 1.0
C      1  0.5398280000000  0.5536930000000  0.4767460000000 1.0
C      1  0.5129630000000  0.3033270000000  0.4929180000000 1.0
C      1  0.4237080000000  0.4856790000000  0.5302270000000 1.0
C      1  0.4423700000000  0.4494200000000  0.5542800000000 1.0
C      1  0.5017240000000  0.3825920000000  0.4872650000000 1.0
C      1  0.5230470000000  0.4975680000000  0.6211870000000 1.0
C      1  0.4421340000000  0.5204390000000  0.4746720000000 1.0
C      1  0.4119380000000  0.5519340000000  0.4298970000000 1.0
C      1  0.5606970000000  0.5867450000000  0.6060460000000 1.0
C      1  0.5464630000000  0.5645620000000  0.4507850000000 1.0
C      1  0.4391310000000  0.5892640000000  0.4824300000000 1.0
C      1  0.5212920000000  0.5512550000000  0.5706970000000 1.0
C      1  0.5457070000000  0.5118210000000  0.5014270000000 1.0
C      1  0.5555570000000  0.4913090000000  0.5190280000000 1.0
C      1  0.4634720000000  0.4945770000000  0.5602580000000 1.0
C      1  0.4445860000000  0.5783490000000  0.5062590000000 1.0
C      1  0.5472030000000  0.5448880000000  0.5590150000000 1.0
C      1  0.4683070000000  0.4704210000000  0.4275150000000 1.0
C      1  0.5233280000000  0.5721290000000  0.6624850000000 1.0
C      1  0.4644450000000  0.5225440000000  0.4241410000000 1.0
C      1  0.4575570000000  0.5693700000000  0.5323490000000 1.0
C      1  0.5858100000000  0.4775440000000  0.5528720000000 1.0
C      1  0.4484770000000  0.4042510000000  0.5502350000000 1.0
C      1  0.4623590000000  0.5237220000000  0.3948980000000 1.0
C      1  0.6157780000000  0.5585180000000  0.4487460000000 1.0
C      1  0.5353720000000  0.4337940000000  0.5983970000000 1.0
C      1  0.5378050000000  0.5761670000000  0.5203040000000 1.0
C      1  0.4858470000000  0.5318450000000  0.3820640000000 1.0
C      1  0.5617450000000  0.4305100000000  0.5889280000000 1.0
C      1  0.5577370000000  0.5436110000000  0.4069000000000 1.0
C      1  0.4148990000000  0.4378150000000  0.5184620000000 1.0
C      1  0.5553760000000  0.4049030000000  0.5159640000000 1.0
C      1  0.5166780000000  0.5411030000000  0.5970250000000 1.0
C      1  0.3574270000000  0.4487770000000  0.4473000000000 1.0
C      1  0.4672630000000  0.4476260000000  0.4667220000000 1.0
C      1  0.4539930000000  0.4007860000000  0.4806470000000 1.0
C      1  0.5461060000000  0.6206370000000  0.4824620000000 1.0
C      1  0.4469120000000  0.5490590000000  0.6170160000000 1.0
C      1  0.5077280000000  0.4405260000000  0.5565260000000 1.0
C      1  0.5051790000000  0.3551400000000  0.4887440000000 1.0
C      1  0.5089720000000  0.4602820000000  0.3701970000000 1.0
C      1  0.3969460000000  0.4541950000000  0.3973930000000 1.0
C      1  0.4862120000000  0.5398520000000  0.4799310000000 1.0
C      1  0.5936870000000  0.4855690000000  0.4429900000000 1.0
C      1  0.4620570000000  0.5511620000000  0.4372250000000 1.0
C      1  0.5478860000000  0.4687940000000  0.3978980000000 1.0
C      1  0.4198750000000  0.5055250000000  0.5536400000000 1.0
C      1  0.5750970000000  0.6100810000000  0.4843290000000 1.0
C      1  0.5490060000000  0.4014990000000  0.4879580000000 1.0
C      1  0.5650250000000  0.3804490000000  0.5558480000000 1.0
C      1  0.4956930000000  0.5151620000000  0.4685480000000 1.0
C      1  0.4509140000000  0.4742330000000  0.5400030000000 1.0
C      1  0.4349230000000  0.5873370000000  0.4559360000000 1.0
C      1  0.5130640000000  0.5635300000000  0.6401260000000 1.0
C      1  0.5262620000000  0.4415440000000  0.4499120000000 1.0
C      1  0.5105740000000  0.4207260000000  0.4610070000000 1.0
C      1  0.5398940000000  0.6018400000000  0.5991120000000 1.0
C      1  0.4236120000000  0.4544000000000  0.4408550000000 1.0
C      1  0.3788660000000  0.4470320000000  0.4631410000000 1.0
C      1  0.4764140000000  0.4058550000000  0.5405880000000 1.0
C      1  0.5690780000000  0.4280710000000  0.5608750000000 1.0
C      1  0.4779930000000  0.3960820000000  0.4947030000000 1.0
C      1  0.5320990000000  0.4904860000000  0.4083850000000 1.0
C      1  0.3892980000000  0.5580830000000  0.4454190000000 1.0
C      1  0.5301330000000  0.4493210000000  0.3856720000000 1.0
C      1  0.5332860000000  0.5041230000000  0.5730700000000 1.0
C      1  0.6041880000000  0.5823470000000  0.4524510000000 1.0
C      1  0.5972450000000  0.5729650000000  0.5127860000000 1.0
C      1  0.5450650000000  0.5312250000000  0.3868950000000 1.0
C      1  0.4211130000000  0.5456480000000  0.6185600000000 1.0
C      1  0.5424880000000  0.4331130000000  0.4289700000000 1.0
C      1  0.5630450000000  0.4052570000000  0.5437980000000 1.0
C      1  0.5574270000000  0.5439650000000  0.4345720000000 1.0
C      1  0.5270300000000  0.5099230000000  0.3880800000000 1.0
C      1  0.4895000000000  0.4817260000000  0.3705740000000 1.0
C      1  0.4731580000000  0.5522830000000  0.6153760000000 1.0
C      1  0.5152740000000  0.6092190000000  0.5921940000000 1.0
C      1  0.6079610000000  0.4996850000000  0.5067110000000 1.0
C      1  0.4030680000000  0.4620860000000  0.5306190000000 1.0
C      1  0.5160300000000  0.4717330000000  0.6224020000000 1.0
C      1  0.4928010000000  0.4677240000000  0.4706310000000 1.0
C      1  0.3796300000000  0.4741430000000  0.5437930000000 1.0
C      1  0.5005660000000  0.5557060000000  0.5519660000000 1.0
C      1  0.5053310000000  0.5047380000000  0.5293740000000 1.0
C      1  0.5739820000000  0.5027820000000  0.5413600000000 1.0
C      1  0.5950310000000  0.5183540000000  0.5244830000000 1.0
C      1  0.5663040000000  0.5234620000000  0.4532470000000 1.0
C      1  0.4835730000000  0.4251460000000  0.4502300000000 1.0
C      1  0.4613470000000  0.4727610000000  0.3736480000000 1.0
C      1  0.4381840000000  0.5098610000000  0.4313360000000 1.0
C      1  0.4222240000000  0.4541320000000  0.4098160000000 1.0
C      1  0.5263820000000  0.5144240000000  0.5992780000000 1.0
C      1  0.5531390000000  0.5598660000000  0.5367910000000 1.0
C      1  0.4843370000000  0.5667330000000  0.4222350000000 1.0
C      1  0.4721420000000  0.4686870000000  0.5202780000000 1.0
C      1  0.4813420000000  0.4249490000000  0.4213170000000 1.0
C      1  0.5230360000000  0.5208120000000  0.5155160000000 1.0
C      1  0.6126530000000  0.5319270000000  0.4471920000000 1.0
C      1  0.4940050000000  0.5909120000000  0.4330070000000 1.0
C      1  0.4416250000000  0.6059720000000  0.5847150000000 1.0
C      1  0.5606370000000  0.4513500000000  0.4970100000000 1.0
C      1  0.5017180000000  0.6239840000000  0.5112750000000 1.0
C      1  0.4068440000000  0.4463680000000  0.4644550000000 1.0
C      1  0.5268280000000  0.4503070000000  0.5359970000000 1.0
C      1  0.3763880000000  0.5033140000000  0.5391110000000 1.0
C      1  0.4496360000000  0.4680290000000  0.4509200000000 1.0
C      1  0.4459530000000  0.5189290000000  0.5586760000000 1.0
C      1  0.5032190000000  0.4143390000000  0.4067330000000 1.0
C      1  0.5010360000000  0.5529030000000  0.6172600000000 1.0
C      1  0.5524950000000  0.5267990000000  0.4786330000000 1.0
C      1  0.4898180000000  0.6090100000000  0.5844780000000 1.0
C      1  0.5813090000000  0.5966650000000  0.4593030000000 1.0
C      1  0.4413540000000  0.4970580000000  0.4569750000000 1.0
C      1  0.4389860000000  0.3816400000000  0.4684890000000 1.0
C      1  0.5758780000000  0.5658370000000  0.6124180000000 1.0
C      1  0.5003100000000  0.4592930000000  0.5775800000000 1.0
C      1  0.4800680000000  0.4428940000000  0.5128920000000 1.0
C      1  0.4157940000000  0.5247360000000  0.4228260000000 1.0
C      1  0.5717780000000  0.4406810000000  0.4324050000000 1.0
C      1  0.5014200000000  0.5088330000000  0.3755270000000 1.0
C      1  0.4321280000000  0.4258680000000  0.5403350000000 1.0
C      1  0.5816680000000  0.4411310000000  0.6060410000000 1.0
C      1  0.4089630000000  0.5477470000000  0.5439200000000 1.0
C      1  0.4893080000000  0.4848190000000  0.5692890000000 1.0
C      1  0.3704200000000  0.4535190000000  0.4003940000000 1.0
C      1  0.4205060000000  0.5244900000000  0.4918530000000 1.0
C      1  0.4947300000000  0.5103960000000  0.4396070000000 1.0
C      1  0.4799030000000  0.4067800000000  0.5852450000000 1.0
C      1  0.4470380000000  0.4549550000000  0.3926340000000 1.0
C      1  0.5858660000000  0.5416680000000  0.6172980000000 1.0
C      1  0.5354900000000  0.6109170000000  0.4569130000000 1.0
C      1  0.4922100000000  0.4919250000000  0.4846190000000 1.0
C      1  0.5837010000000  0.4507490000000  0.5521490000000 1.0
C      1  0.5281820000000  0.4274510000000  0.4041780000000 1.0
C      1  0.5824620000000  0.4615340000000  0.4529580000000 1.0
C      1  0.5919370000000  0.4633460000000  0.6166700000000 1.0
C      1  0.5697810000000  0.4025450000000  0.4681880000000 1.0
C      1  0.5982270000000  0.5466730000000  0.5201990000000 1.0
C      1  0.4808150000000  0.6147800000000  0.5257660000000 1.0
C      1  0.4395680000000  0.5475630000000  0.5482180000000 1.0
C      1  0.4880950000000  0.4902860000000  0.5122590000000 1.0
C      1  0.4682690000000  0.4474560000000  0.4107490000000 1.0
C      1  0.5732080000000  0.4581070000000  0.4070120000000 1.0
C      1  0.5090530000000  0.3290150000000  0.4908080000000 1.0
C      1  0.3962900000000  0.5218820000000  0.5516970000000 1.0
C      1  0.4654200000000  0.6039950000000  0.5714360000000 1.0
C      1  0.4854150000000  0.5576160000000  0.5277680000000 1.0
C      1  0.5103970000000  0.4989320000000  0.5565710000000 1.0
C      1  0.4032520000000  0.5477350000000  0.4936700000000 1.0
C      1  0.5695240000000  0.6090220000000  0.5306870000000 1.0
C      1  0.4472160000000  0.4288670000000  0.4810230000000 1.0
C      1  0.4358740000000  0.5667660000000  0.4362040000000 1.0
C      1  0.4533930000000  0.4001990000000  0.5789010000000 1.0
C      1  0.5946340000000  0.4895060000000  0.6208000000000 1.0
C      1  0.5139080000000  0.4668700000000  0.4505540000000 1.0
C      1  0.5293660000000  0.6205440000000  0.5061720000000 1.0
C      1  0.5549720000000  0.5911290000000  0.4484190000000 1.0
C      1  0.4970060000000  0.5554620000000  0.5011800000000 1.0
C      1  0.4608910000000  0.5419740000000  0.4675430000000 1.0
C      1  0.5827110000000  0.4600080000000  0.4815040000000 1.0
C      1  0.5143530000000  0.4895830000000  0.4316920000000 1.0
C      1  0.5920880000000  0.5159840000000  0.6203210000000 1.0
C      1  0.3998320000000  0.5587440000000  0.5194990000000 1.0
C      1  0.5919600000000  0.5128830000000  0.4480220000000 1.0
C      1  0.4109380000000  0.5023830000000  0.5062970000000 1.0
C      1  0.5459730000000  0.4637300000000  0.5181690000000 1.0
C      1  0.4811540000000  0.4150880000000  0.5151770000000 1.0
C      1  0.3533060000000  0.4514040000000  0.4209290000000 1.0
C      1  0.5147970000000  0.4531210000000  0.6015690000000 1.0
END
