TITL C-627108-131-2002 -672.727736073573 125000 -794.072028765887 0 0 131 (C1) n - 1
REM
REM in /home/nfs/bkarasulu/CARBON/AIRSS/Generating-Clusters/LCBOP/Only-C1/SD-CG/FIRE-CG
REM
REM
REM
REM
REM
REM ./C.cell (11c1c37f851c82e70ff6c80c92926a4b)
REM AIRSS Version 0.9.1 bugfix July 2018 build 013d7b7c2542+ Fri, 06 Jul 2018 19:26:36 +0100
REM compiler GCC version 9.2.1 20190827 (Red Hat 9.2.1-1)
REM options -cpp -mtune=generic -march=x86-64 -g -O0 -fpre-include=/usr/include/finclude/math-vector-fortran.h
REM seed -1048735193 -1273553488 2090049556 1486734020 1590991488 -1426606769 1602303403 -318981338 1385293401 -371986878 524023853 1399687956 -1174580966 -524470738 -863833435 2133176789 1519296013 -78617827 1817689903 952934910 914168701 522485087 -1536257922 -1244565369 556813424 -2108401005 -1096404087 716541294 -9443537 506048574 1102574123 -1998711444 1957111810
REM
CELL 1.54180   50.00000   50.00000   50.00000   90.00000   90.00000   90.00000
LATT -1
SFAC C  
C      1  0.4381480000000  0.4374900000000  0.5757380000000 1.0
C      1  0.4253280000000  0.5333290000000  0.5783570000000 1.0
C      1  0.4483450000000  0.4698570000000  0.5272500000000 1.0
C      1  0.4749590000000  0.6333130000000  0.4843340000000 1.0
C      1  0.5378300000000  0.5995650000000  0.5704710000000 1.0
C      1  0.4672070000000  0.5501220000000  0.5657230000000 1.0
C      1  0.5822260000000  0.4206060000000  0.5394710000000 1.0
C      1  0.4061860000000  0.4637420000000  0.6653650000000 1.0
C      1  0.5550960000000  0.4079110000000  0.3678790000000 1.0
C      1  0.4248650000000  0.4809320000000  0.6193470000000 1.0
C      1  0.5020320000000  0.5635510000000  0.4186740000000 1.0
C      1  0.4814290000000  0.4090020000000  0.5068580000000 1.0
C      1  0.4386700000000  0.5293030000000  0.4371960000000 1.0
C      1  0.5347500000000  0.5197710000000  0.5440290000000 1.0
C      1  0.4171940000000  0.5476240000000  0.5540500000000 1.0
C      1  0.4851060000000  0.4484670000000  0.4367890000000 1.0
C      1  0.5171380000000  0.4939050000000  0.3933880000000 1.0
C      1  0.5082660000000  0.4116220000000  0.5167440000000 1.0
C      1  0.5788710000000  0.4379660000000  0.4858780000000 1.0
C      1  0.4152660000000  0.4723720000000  0.6425040000000 1.0
C      1  0.5836760000000  0.5405350000000  0.5628540000000 1.0
C      1  0.5774620000000  0.3736630000000  0.3341680000000 1.0
C      1  0.4881690000000  0.5658240000000  0.4732370000000 1.0
C      1  0.4162100000000  0.4492880000000  0.4913240000000 1.0
C      1  0.5347780000000  0.6082900000000  0.4801660000000 1.0
C      1  0.5655210000000  0.5262430000000  0.4312780000000 1.0
C      1  0.5533750000000  0.4267550000000  0.4476140000000 1.0
C      1  0.5661400000000  0.4487400000000  0.4627720000000 1.0
C      1  0.4786660000000  0.4964300000000  0.5661610000000 1.0
C      1  0.4975330000000  0.5601850000000  0.4989130000000 1.0
C      1  0.5467070000000  0.5481080000000  0.4315620000000 1.0
C      1  0.4941790000000  0.4761840000000  0.6351530000000 1.0
C      1  0.5513260000000  0.5124600000000  0.4984360000000 1.0
C      1  0.5334430000000  0.4212700000000  0.5259020000000 1.0
C      1  0.5125180000000  0.6053340000000  0.5764880000000 1.0
C      1  0.4436580000000  0.5401790000000  0.6002540000000 1.0
C      1  0.4509710000000  0.5559680000000  0.4331980000000 1.0
C      1  0.5662670000000  0.3907810000000  0.3510270000000 1.0
C      1  0.4873930000000  0.5966480000000  0.5750490000000 1.0
C      1  0.5601120000000  0.4606650000000  0.5277630000000 1.0
C      1  0.4736420000000  0.5565820000000  0.4141390000000 1.0
C      1  0.5779260000000  0.5501180000000  0.4987730000000 1.0
C      1  0.4248600000000  0.4794820000000  0.5348410000000 1.0
C      1  0.5557610000000  0.5888310000000  0.5276500000000 1.0
C      1  0.4459070000000  0.4811470000000  0.4303490000000 1.0
C      1  0.5710160000000  0.5115460000000  0.4542120000000 1.0
C      1  0.4886850000000  0.4951620000000  0.4756440000000 1.0
C      1  0.5679050000000  0.4113260000000  0.4920820000000 1.0
C      1  0.5968680000000  0.5239350000000  0.5434960000000 1.0
C      1  0.6057710000000  0.4685790000000  0.5512980000000 1.0
C      1  0.4954690000000  0.4667350000000  0.5139450000000 1.0
C      1  0.5246800000000  0.5517670000000  0.5074230000000 1.0
C      1  0.5539830000000  0.5818720000000  0.5554000000000 1.0
C      1  0.4427550000000  0.5707630000000  0.4582160000000 1.0
C      1  0.5056660000000  0.4858800000000  0.5594160000000 1.0
C      1  0.4982930000000  0.5166560000000  0.4606990000000 1.0
C      1  0.5229710000000  0.5438210000000  0.4140540000000 1.0
C      1  0.4070820000000  0.5458020000000  0.4990680000000 1.0
C      1  0.4117650000000  0.4928650000000  0.5537310000000 1.0
C      1  0.4538980000000  0.5154990000000  0.3949520000000 1.0
C      1  0.4909160000000  0.5318150000000  0.5341570000000 1.0
C      1  0.4698600000000  0.5367440000000  0.6085430000000 1.0
C      1  0.5118060000000  0.5858090000000  0.4347870000000 1.0
C      1  0.4965450000000  0.5317490000000  0.6039290000000 1.0
C      1  0.4401800000000  0.4335920000000  0.4858270000000 1.0
C      1  0.5115670000000  0.4487970000000  0.4463060000000 1.0
C      1  0.5218230000000  0.4673910000000  0.3946130000000 1.0
C      1  0.5884790000000  0.3568320000000  0.3175850000000 1.0
C      1  0.4546600000000  0.5326040000000  0.5044630000000 1.0
C      1  0.4442770000000  0.4393180000000  0.4576230000000 1.0
C      1  0.4719770000000  0.4704560000000  0.4251010000000 1.0
C      1  0.4665890000000  0.4283400000000  0.4441990000000 1.0
C      1  0.6059730000000  0.4963360000000  0.5488780000000 1.0
C      1  0.5489300000000  0.4710490000000  0.4685380000000 1.0
C      1  0.4641260000000  0.6096220000000  0.4788540000000 1.0
C      1  0.5299860000000  0.5179760000000  0.4001710000000 1.0
C      1  0.5328320000000  0.4426420000000  0.4032810000000 1.0
C      1  0.4653120000000  0.5831310000000  0.4704290000000 1.0
C      1  0.4757090000000  0.5242770000000  0.5568020000000 1.0
C      1  0.4305070000000  0.5276750000000  0.4640650000000 1.0
C      1  0.4631440000000  0.4310700000000  0.5031380000000 1.0
C      1  0.5944420000000  0.5352200000000  0.5171460000000 1.0
C      1  0.4117910000000  0.4717210000000  0.4726430000000 1.0
C      1  0.5239720000000  0.6341700000000  0.4839900000000 1.0
C      1  0.5348360000000  0.4489820000000  0.5338250000000 1.0
C      1  0.4454840000000  0.5153030000000  0.4844530000000 1.0
C      1  0.5612830000000  0.5571320000000  0.5692280000000 1.0
C      1  0.5556930000000  0.4041330000000  0.4664130000000 1.0
C      1  0.4992770000000  0.6442720000000  0.4862470000000 1.0
C      1  0.5210640000000  0.5267130000000  0.5892620000000 1.0
C      1  0.4809390000000  0.4798150000000  0.6130160000000 1.0
C      1  0.4695340000000  0.4555010000000  0.5163630000000 1.0
C      1  0.4422760000000  0.5074130000000  0.4197490000000 1.0
C      1  0.4629730000000  0.4498980000000  0.5798020000000 1.0
C      1  0.5213610000000  0.4634700000000  0.4691260000000 1.0
C      1  0.3946830000000  0.5194900000000  0.4934770000000 1.0
C      1  0.5440180000000  0.4250050000000  0.3848080000000 1.0
C      1  0.4940410000000  0.5428450000000  0.4576910000000 1.0
C      1  0.5583040000000  0.5134710000000  0.4065990000000 1.0
C      1  0.4712260000000  0.5762020000000  0.5697800000000 1.0
C      1  0.5038690000000  0.4750360000000  0.4877250000000 1.0
C      1  0.5238300000000  0.5073740000000  0.5673120000000 1.0
C      1  0.5512360000000  0.5063980000000  0.5263560000000 1.0
C      1  0.5181920000000  0.5381640000000  0.5323690000000 1.0
C      1  0.4630730000000  0.3594080000000  0.4955730000000 1.0
C      1  0.4230550000000  0.5544310000000  0.4745790000000 1.0
C      1  0.4115460000000  0.5515370000000  0.5273680000000 1.0
C      1  0.4361670000000  0.4888150000000  0.5949480000000 1.0
C      1  0.5499210000000  0.5418740000000  0.4966830000000 1.0
C      1  0.4309360000000  0.4654510000000  0.4499900000000 1.0
C      1  0.4161070000000  0.4239280000000  0.5726430000000 1.0
C      1  0.5975610000000  0.4420010000000  0.5491010000000 1.0
C      1  0.5639250000000  0.4855000000000  0.5381350000000 1.0
C      1  0.4722240000000  0.3831930000000  0.5010210000000 1.0
C      1  0.5482960000000  0.5973790000000  0.5029540000000 1.0
C      1  0.4213590000000  0.5050260000000  0.5769260000000 1.0
C      1  0.4613210000000  0.4935660000000  0.4793330000000 1.0
C      1  0.5266740000000  0.5955300000000  0.4555930000000 1.0
C      1  0.5891790000000  0.5682510000000  0.4816320000000 1.0
C      1  0.4684880000000  0.5384290000000  0.3923890000000 1.0
C      1  0.5321760000000  0.4359510000000  0.4310470000000 1.0
C      1  0.3979010000000  0.4949880000000  0.4816850000000 1.0
C      1  0.4776590000000  0.5448140000000  0.5134000000000 1.0
C      1  0.4859480000000  0.4349750000000  0.5790420000000 1.0
C      1  0.5576750000000  0.4975050000000  0.4748430000000 1.0
C      1  0.5420500000000  0.5463430000000  0.5879210000000 1.0
C      1  0.4694500000000  0.4020050000000  0.4380780000000 1.0
C      1  0.4640560000000  0.4795050000000  0.5878070000000 1.0
C      1  0.5120570000000  0.4667380000000  0.5374970000000 1.0
C      1  0.5790270000000  0.4546160000000  0.5079080000000 1.0
C      1  0.5607310000000  0.4109220000000  0.5204830000000 1.0
END
