TITL C-627108-131-1900 -58.6485045511965 125000 -171.999909121718 0 0 30 (C1) n - 1
REM
REM in /home/nfs/bkarasulu/CARBON/AIRSS/Generating-Clusters/LCBOP/Only-C1/SD-CG/FIRE-CG
REM
REM
REM
REM
REM
REM ./C.cell (11c1c37f851c82e70ff6c80c92926a4b)
REM AIRSS Version 0.9.1 bugfix July 2018 build 013d7b7c2542+ Fri, 06 Jul 2018 19:26:36 +0100
REM compiler GCC version 9.2.1 20190827 (Red Hat 9.2.1-1)
REM options -cpp -mtune=generic -march=x86-64 -g -O0 -fpre-include=/usr/include/finclude/math-vector-fortran.h
REM seed 1841404172 975844434 2086260955 -997335911 -1695071739 1274263985 1676851680 -1247976396 1292905097 2025429512 -1405946151 -2074133419 465581625 -2098855544 1699992120 389668817 1887349013 -1022301220 1774590560 -1680113618 -1122128968 -270614104 1808548440 -1292877926 -1758018319 -1369869137 -1729446814 -1434808681 42825757 1772970935 1233764657 -1875058664 -392729844
REM
CELL 1.54180   50.00000   50.00000   50.00000   90.00000   90.00000   90.00000
LATT -1
SFAC C  
C      1  0.4679960000000  0.5852590000000  0.4240890000000 1.0
C      1  0.4832870000000  0.4975560000000  0.5180980000000 1.0
C      1  0.4557570000000  0.5416100000000  0.5325680000000 1.0
C      1  0.5028730000000  0.4791580000000  0.4552340000000 1.0
C      1  0.4987330000000  0.5017630000000  0.4713200000000 1.0
C      1  0.5045080000000  0.5003390000000  0.4992400000000 1.0
C      1  0.4669060000000  0.5738320000000  0.4489160000000 1.0
C      1  0.5271670000000  0.4312620000000  0.4939780000000 1.0
C      1  0.5456520000000  0.4501020000000  0.5039570000000 1.0
C      1  0.4890530000000  0.5255090000000  0.4603390000000 1.0
C      1  0.5069190000000  0.4223860000000  0.5119610000000 1.0
C      1  0.4888470000000  0.4622310000000  0.5521800000000 1.0
C      1  0.5629280000000  0.5715690000000  0.5308010000000 1.0
C      1  0.5315990000000  0.5005630000000  0.5082440000000 1.0
C      1  0.5210140000000  0.4335190000000  0.4665560000000 1.0
C      1  0.4786620000000  0.5488880000000  0.4535330000000 1.0
C      1  0.4770740000000  0.4718010000000  0.5282710000000 1.0
C      1  0.5723330000000  0.5948070000000  0.5379560000000 1.0
C      1  0.5533620000000  0.5479440000000  0.5235260000000 1.0
C      1  0.4420790000000  0.5989940000000  0.4897760000000 1.0
C      1  0.4540210000000  0.5869580000000  0.4699830000000 1.0
C      1  0.5435470000000  0.5244610000000  0.5161980000000 1.0
C      1  0.4645240000000  0.4522870000000  0.5113520000000 1.0
C      1  0.5457940000000  0.4763690000000  0.5088820000000 1.0
C      1  0.4802090000000  0.4295000000000  0.5053880000000 1.0
C      1  0.5110060000000  0.4539160000000  0.4522960000000 1.0
C      1  0.5039210000000  0.4404250000000  0.5574000000000 1.0
C      1  0.4391920000000  0.4555190000000  0.5017760000000 1.0
C      1  0.4688230000000  0.5199380000000  0.5263520000000 1.0
C      1  0.5122150000000  0.4215350000000  0.5398330000000 1.0
END
