TITL C-627107-135-1636 17014.3372732629 125000 -1101.09570333021 0 0 183 (C1) n - 1
REM
REM in /home/nfs/bkarasulu/CARBON/AIRSS/Generating-Clusters/LCBOP/Only-C1/SD-CG/FIRE-CG
REM
REM
REM
REM
REM
REM ./C.cell (11c1c37f851c82e70ff6c80c92926a4b)
REM AIRSS Version 0.9.1 bugfix July 2018 build 013d7b7c2542+ Fri, 06 Jul 2018 19:26:36 +0100
REM compiler GCC version 9.2.1 20190827 (Red Hat 9.2.1-1)
REM options -cpp -mtune=generic -march=x86-64 -g -O0 -fpre-include=/usr/include/finclude/math-vector-fortran.h
REM seed 1746269660 1693886087 1683066713 -324432331 -915974656 2023663033 1698664591 867882967 -1083927349 1422264440 -1972058710 382881904 654708843 952621128 1820964003 19355427 -977989840 268800050 -34484665 219277110 804616577 587682943 -107049080 319144204 1846727767 -481200099 1258081414 1209458191 -988559515 -618964116 329433334 333446881 1749222500
REM
CELL 1.54180   50.00000   50.00000   50.00000   90.00000   90.00000   90.00000
LATT -1
SFAC C  
C      1  0.4997210000000  0.4453160000000  0.5316550000000 1.0
C      1  0.4527140000000  0.5031400000000  0.4782410000000 1.0
C      1  0.4843800000000  0.5871440000000  0.4115660000000 1.0
C      1  0.5653040000000  0.5119690000000  0.4284200000000 1.0
C      1  0.4756920000000  0.4381600000000  0.5459590000000 1.0
C      1  0.5459870000000  0.4435510000000  0.4773390000000 1.0
C      1  0.5374670000000  0.6159600000000  0.4996920000000 1.0
C      1  0.5744600000000  0.5559000000000  0.4967350000000 1.0
C      1  0.4484380000000  0.4088960000000  0.6366030000000 1.0
C      1  0.4941050000000  0.5446110000000  0.4986380000000 1.0
C      1  0.4816610000000  0.3745150000000  0.5487150000000 1.0
C      1  0.5470380000000  0.5998600000000  0.5203830000000 1.0
C      1  0.5693450000000  0.5274520000000  0.5950790000000 1.0
C      1  0.5055970000000  0.5840270000000  0.4543270000000 1.0
C      1  0.4065340000000  0.5661190000000  0.4726360000000 1.0
C      1  0.4707390000000  0.6370210000000  0.5372420000000 1.0
C      1  0.5391250000000  0.4202700000000  0.4918510000000 1.0
C      1  0.5363420000000  0.4069960000000  0.5480660000000 1.0
C      1  0.3676670000000  0.4722610000000  0.4241830000000 1.0
C      1  0.4828830000000  0.4938840000000  0.5157780000000 1.0
C      1  0.3975470000000  0.5203830000000  0.5245700000000 1.0
C      1  0.4155700000000  0.4809240000000  0.4251890000000 1.0
C      1  0.5052690000000  0.5566200000000  0.5435450000000 1.0
C      1  0.4859200000000  0.5486880000000  0.5256140000000 1.0
C      1  0.4992740000000  0.4973920000000  0.5616000000000 1.0
C      1  0.6254390000000  0.4736640000000  0.4802160000000 1.0
C      1  0.5467800000000  0.4061160000000  0.4423270000000 1.0
C      1  0.5844210000000  0.5197100000000  0.5435460000000 1.0
C      1  0.4945430000000  0.4787820000000  0.3839940000000 1.0
C      1  0.4990730000000  0.3780960000000  0.5270250000000 1.0
C      1  0.4221410000000  0.5899360000000  0.4335940000000 1.0
C      1  0.5359910000000  0.5337830000000  0.5045880000000 1.0
C      1  0.5218860000000  0.4815990000000  0.4946690000000 1.0
C      1  0.6159160000000  0.4559800000000  0.5287310000000 1.0
C      1  0.5225810000000  0.4364350000000  0.4054090000000 1.0
C      1  0.4703230000000  0.4852030000000  0.4914720000000 1.0
C      1  0.4061860000000  0.3766690000000  0.5152450000000 1.0
C      1  0.5142380000000  0.4994160000000  0.3777850000000 1.0
C      1  0.4774860000000  0.5328860000000  0.3709870000000 1.0
C      1  0.4962630000000  0.6028650000000  0.4741430000000 1.0
C      1  0.5556640000000  0.4959930000000  0.4495590000000 1.0
C      1  0.4439330000000  0.6044450000000  0.4860830000000 1.0
C      1  0.3941490000000  0.4466140000000  0.4957780000000 1.0
C      1  0.5267350000000  0.4557500000000  0.4588930000000 1.0
C      1  0.4957010000000  0.4935430000000  0.6612760000000 1.0
C      1  0.4467040000000  0.4514670000000  0.4003010000000 1.0
C      1  0.4274170000000  0.5233600000000  0.4424070000000 1.0
C      1  0.5214950000000  0.6187440000000  0.4767610000000 1.0
C      1  0.4666720000000  0.6100450000000  0.5397570000000 1.0
C      1  0.4499350000000  0.5196800000000  0.5456650000000 1.0
C      1  0.5050580000000  0.5959340000000  0.4279240000000 1.0
C      1  0.5529320000000  0.5601470000000  0.5426520000000 1.0
C      1  0.6061540000000  0.4993940000000  0.5431540000000 1.0
C      1  0.5913410000000  0.4492790000000  0.4583760000000 1.0
C      1  0.5949900000000  0.4677980000000  0.4388280000000 1.0
C      1  0.5367750000000  0.4718220000000  0.5167290000000 1.0
C      1  0.3847160000000  0.4685800000000  0.4840910000000 1.0
C      1  0.4623430000000  0.5649480000000  0.4721770000000 1.0
C      1  0.5630990000000  0.4188530000000  0.5424560000000 1.0
C      1  0.4074440000000  0.5463620000000  0.5680990000000 1.0
C      1  0.4725610000000  0.4393920000000  0.4048730000000 1.0
C      1  0.5683610000000  0.4872020000000  0.4732590000000 1.0
C      1  0.4481030000000  0.4397030000000  0.6783090000000 1.0
C      1  0.4565370000000  0.3884510000000  0.5898020000000 1.0
C      1  0.4569660000000  0.5567240000000  0.5840630000000 1.0
C      1  0.5538210000000  0.5125240000000  0.5448840000000 1.0
C      1  0.4616310000000  0.4629250000000  0.6853370000000 1.0
C      1  0.4017300000000  0.5732460000000  0.5008920000000 1.0
C      1  0.4340610000000  0.5236930000000  0.3955950000000 1.0
C      1  0.4236690000000  0.5082310000000  0.4179010000000 1.0
C      1  0.4847830000000  0.5966390000000  0.5609060000000 1.0
C      1  0.5850090000000  0.4642470000000  0.5684890000000 1.0
C      1  0.5065880000000  0.5131760000000  0.6470750000000 1.0
C      1  0.4752380000000  0.5290640000000  0.4412100000000 1.0
C      1  0.5493570000000  0.4465800000000  0.4013440000000 1.0
C      1  0.5295120000000  0.5505250000000  0.5559730000000 1.0
C      1  0.4897430000000  0.3808100000000  0.4993960000000 1.0
C      1  0.5097710000000  0.5275060000000  0.6236330000000 1.0
C      1  0.4537700000000  0.5135870000000  0.4517430000000 1.0
C      1  0.5203140000000  0.5538330000000  0.4914840000000 1.0
C      1  0.3959040000000  0.5324740000000  0.5483650000000 1.0
C      1  0.5018480000000  0.5062070000000  0.5336510000000 1.0
C      1  0.4567170000000  0.4299700000000  0.6523870000000 1.0
C      1  0.5028920000000  0.5238570000000  0.3679990000000 1.0
C      1  0.5412310000000  0.5010110000000  0.3851810000000 1.0
C      1  0.5598370000000  0.5105640000000  0.4019930000000 1.0
C      1  0.4634360000000  0.5719300000000  0.4219560000000 1.0
C      1  0.5708100000000  0.4576430000000  0.4760330000000 1.0
C      1  0.4956390000000  0.4193450000000  0.4659390000000 1.0
C      1  0.5271760000000  0.5318370000000  0.5771950000000 1.0
C      1  0.4388420000000  0.4688970000000  0.5413590000000 1.0
C      1  0.5318050000000  0.3708460000000  0.4833920000000 1.0
C      1  0.5630720000000  0.4821510000000  0.5165800000000 1.0
C      1  0.4482570000000  0.3943720000000  0.6143560000000 1.0
C      1  0.6015220000000  0.5520340000000  0.4898800000000 1.0
C      1  0.5253040000000  0.5364980000000  0.4289310000000 1.0
C      1  0.6161430000000  0.5480960000000  0.5141200000000 1.0
C      1  0.4473350000000  0.4394950000000  0.4465090000000 1.0
C      1  0.4910680000000  0.5457560000000  0.6130250000000 1.0
C      1  0.4664170000000  0.4880460000000  0.3788290000000 1.0
C      1  0.4329860000000  0.4573570000000  0.4256930000000 1.0
C      1  0.4869970000000  0.3797130000000  0.4346910000000 1.0
C      1  0.4414620000000  0.4380040000000  0.5026780000000 1.0
C      1  0.3898090000000  0.4805750000000  0.4379830000000 1.0
C      1  0.4095770000000  0.5163980000000  0.4996610000000 1.0
C      1  0.4730390000000  0.3932250000000  0.5679840000000 1.0
C      1  0.5101960000000  0.5004160000000  0.4795910000000 1.0
C      1  0.5770690000000  0.4113400000000  0.5160710000000 1.0
C      1  0.5226800000000  0.5643120000000  0.4653040000000 1.0
C      1  0.4931710000000  0.4087300000000  0.4384430000000 1.0
C      1  0.4212860000000  0.5894520000000  0.4620770000000 1.0
C      1  0.5620630000000  0.5296870000000  0.4960440000000 1.0
C      1  0.4361540000000  0.5736480000000  0.4146970000000 1.0
C      1  0.5252700000000  0.5791090000000  0.5904820000000 1.0
C      1  0.6142620000000  0.5200880000000  0.4740210000000 1.0
C      1  0.5217630000000  0.4152690000000  0.4266490000000 1.0
C      1  0.5399830000000  0.5550590000000  0.4447090000000 1.0
C      1  0.3875630000000  0.4893780000000  0.4652410000000 1.0
C      1  0.5370730000000  0.3929300000000  0.5011320000000 1.0
C      1  0.4371690000000  0.5211240000000  0.4932590000000 1.0
C      1  0.4469070000000  0.5485950000000  0.4915310000000 1.0
C      1  0.5724340000000  0.4391660000000  0.5613260000000 1.0
C      1  0.6041390000000  0.4720730000000  0.5492340000000 1.0
C      1  0.5216060000000  0.4618880000000  0.5389180000000 1.0
C      1  0.4404510000000  0.4947640000000  0.5476480000000 1.0
C      1  0.5263410000000  0.5207340000000  0.6019650000000 1.0
C      1  0.4515820000000  0.4458040000000  0.5304450000000 1.0
C      1  0.4771080000000  0.4495630000000  0.6448510000000 1.0
C      1  0.5223300000000  0.4793730000000  0.5626260000000 1.0
C      1  0.5371050000000  0.6192810000000  0.4512150000000 1.0
C      1  0.5345570000000  0.6048470000000  0.5458270000000 1.0
C      1  0.4143290000000  0.4283190000000  0.5024170000000 1.0
C      1  0.4463010000000  0.4685020000000  0.3784470000000 1.0
C      1  0.6292970000000  0.5054750000000  0.5273090000000 1.0
C      1  0.5602330000000  0.5746530000000  0.4401550000000 1.0
C      1  0.5612300000000  0.5740440000000  0.5178850000000 1.0
C      1  0.5990110000000  0.5445810000000  0.5373340000000 1.0
C      1  0.4991020000000  0.4272450000000  0.5104580000000 1.0
C      1  0.4419150000000  0.5580300000000  0.5184330000000 1.0
C      1  0.4719350000000  0.5334070000000  0.5940290000000 1.0
C      1  0.5156320000000  0.4162960000000  0.5661270000000 1.0
C      1  0.5052790000000  0.3638510000000  0.4822650000000 1.0
C      1  0.6301260000000  0.5239060000000  0.5067080000000 1.0
C      1  0.3946200000000  0.5155060000000  0.4749230000000 1.0
C      1  0.5199990000000  0.6395030000000  0.4088690000000 1.0
C      1  0.6142380000000  0.4928030000000  0.4625700000000 1.0
C      1  0.4236820000000  0.5793460000000  0.5189620000000 1.0
C      1  0.5418360000000  0.4723180000000  0.4400060000000 1.0
C      1  0.4595410000000  0.5436060000000  0.5343950000000 1.0
C      1  0.5792460000000  0.4044250000000  0.4882490000000 1.0
C      1  0.5472090000000  0.4936860000000  0.5661590000000 1.0
C      1  0.5008180000000  0.5248870000000  0.4301660000000 1.0
C      1  0.4979320000000  0.4514250000000  0.3966170000000 1.0
C      1  0.4762820000000  0.4613090000000  0.4775140000000 1.0
C      1  0.4403820000000  0.6028650000000  0.5156090000000 1.0
C      1  0.4803780000000  0.4708360000000  0.6646560000000 1.0
C      1  0.4996080000000  0.4486060000000  0.4657560000000 1.0
C      1  0.4905570000000  0.4085250000000  0.4912430000000 1.0
C      1  0.5294290000000  0.5177870000000  0.5274620000000 1.0
C      1  0.4756190000000  0.5791880000000  0.5829900000000 1.0
C      1  0.4525480000000  0.4446040000000  0.4753950000000 1.0
C      1  0.4815010000000  0.5101480000000  0.5799800000000 1.0
C      1  0.4683120000000  0.5564690000000  0.4453630000000 1.0
C      1  0.5161480000000  0.5970700000000  0.5659050000000 1.0
C      1  0.6242140000000  0.4593920000000  0.5031470000000 1.0
C      1  0.4694280000000  0.4257540000000  0.4298470000000 1.0
C      1  0.5686520000000  0.4926850000000  0.5836510000000 1.0
C      1  0.4279190000000  0.5520680000000  0.3977670000000 1.0
C      1  0.5670340000000  0.4024750000000  0.4621130000000 1.0
C      1  0.4861760000000  0.4183400000000  0.5649530000000 1.0
C      1  0.4293950000000  0.5561740000000  0.5797790000000 1.0
C      1  0.4088160000000  0.4017210000000  0.5085640000000 1.0
C      1  0.5593380000000  0.6010830000000  0.4477270000000 1.0
C      1  0.5541960000000  0.5592300000000  0.5970740000000 1.0
C      1  0.5699890000000  0.5021520000000  0.4967350000000 1.0
C      1  0.5621580000000  0.4616960000000  0.4213840000000 1.0
C      1  0.5205050000000  0.6198290000000  0.4275100000000 1.0
C      1  0.4069350000000  0.5378270000000  0.4591990000000 1.0
C      1  0.4985300000000  0.5714940000000  0.6016510000000 1.0
C      1  0.5263910000000  0.3890330000000  0.5280010000000 1.0
C      1  0.4691270000000  0.5934430000000  0.4786490000000 1.0
C      1  0.4575230000000  0.5154030000000  0.3808340000000 1.0
C      1  0.4931760000000  0.5210370000000  0.4828930000000 1.0
END
