TITL C-627113-6568-1372 -1.12544867788204e-07 125000 -350.469948960251 0 0 59 (C1) n - 1
REM
REM in /home/nfs/bkarasulu/CARBON/AIRSS/Generating-Clusters/LCBOP/Only-C1/SD-CG/FIRE-CG
REM
REM
REM
REM
REM
REM ./C.cell (11c1c37f851c82e70ff6c80c92926a4b)
REM AIRSS Version 0.9.1 bugfix July 2018 build 013d7b7c2542+ Fri, 06 Jul 2018 19:26:36 +0100
REM compiler GCC version 9.2.1 20190827 (Red Hat 9.2.1-1)
REM options -cpp -mtune=generic -march=x86-64 -g -O0 -fpre-include=/usr/include/finclude/math-vector-fortran.h
REM seed 1165601206 617931595 1903213917 -396518796 -1707697848 -207511294 -799565885 1626320147 882682606 1310100432 -867674040 -773421384 546034223 -1798253718 149191336 -965244402 -1584528622 -660430792 -457280801 -934923412 1804349006 -149496340 -499596216 1164149162 1835281061 245969856 641475177 2120048122 -708557003 -1665923817 -564813933 -1965721123 1184049287
REM
CELL 1.54180   50.00000   50.00000   50.00000   90.00000   90.00000   90.00000
LATT -1
SFAC C  
C      1  0.4799200000000  0.5286230000000  0.5709890000000 1.0
C      1  0.5388930000000  0.5340460000000  0.4807370000000 1.0
C      1  0.5777620000000  0.5079140000000  0.5083780000000 1.0
C      1  0.4930550000000  0.4509540000000  0.4353760000000 1.0
C      1  0.4972330000000  0.5008460000000  0.4287110000000 1.0
C      1  0.4332600000000  0.5743920000000  0.5029770000000 1.0
C      1  0.5113720000000  0.4334080000000  0.5217110000000 1.0
C      1  0.5699710000000  0.5052280000000  0.5362230000000 1.0
C      1  0.4897280000000  0.4361580000000  0.5036860000000 1.0
C      1  0.5019960000000  0.5722320000000  0.4341060000000 1.0
C      1  0.5587410000000  0.4897370000000  0.4704870000000 1.0
C      1  0.4165490000000  0.5220590000000  0.5320570000000 1.0
C      1  0.5794180000000  0.4445940000000  0.4713690000000 1.0
C      1  0.4824790000000  0.4769500000000  0.4287600000000 1.0
C      1  0.5171730000000  0.4359120000000  0.4388270000000 1.0
C      1  0.5654770000000  0.4779160000000  0.5444260000000 1.0
C      1  0.4505200000000  0.5032770000000  0.5035060000000 1.0
C      1  0.4973620000000  0.4953480000000  0.5067870000000 1.0
C      1  0.5302910000000  0.5571800000000  0.4943910000000 1.0
C      1  0.5887280000000  0.4801960000000  0.5024580000000 1.0
C      1  0.4710190000000  0.4843090000000  0.5054480000000 1.0
C      1  0.5162410000000  0.5204560000000  0.4687080000000 1.0
C      1  0.5611480000000  0.5159320000000  0.4854420000000 1.0
C      1  0.5326430000000  0.4784570000000  0.4737410000000 1.0
C      1  0.5613330000000  0.4393790000000  0.5152320000000 1.0
C      1  0.5042340000000  0.5420120000000  0.5774750000000 1.0
C      1  0.5418110000000  0.4625350000000  0.5502440000000 1.0
C      1  0.5119990000000  0.4956360000000  0.4827080000000 1.0
C      1  0.4504280000000  0.4543530000000  0.4535140000000 1.0
C      1  0.4531950000000  0.5596490000000  0.5463020000000 1.0
C      1  0.4308150000000  0.5320440000000  0.5789840000000 1.0
C      1  0.4386180000000  0.5262470000000  0.5144870000000 1.0
C      1  0.4542580000000  0.4777900000000  0.4372440000000 1.0
C      1  0.4197000000000  0.5299220000000  0.6315900000000 1.0
C      1  0.4746370000000  0.4392800000000  0.4565760000000 1.0
C      1  0.4842200000000  0.5065730000000  0.5530740000000 1.0
C      1  0.5178540000000  0.4218450000000  0.4642040000000 1.0
C      1  0.5026880000000  0.5240600000000  0.4441540000000 1.0
C      1  0.4516030000000  0.5543500000000  0.5164020000000 1.0
C      1  0.5151370000000  0.5946200000000  0.4318230000000 1.0
C      1  0.4248510000000  0.5309530000000  0.6060640000000 1.0
C      1  0.4388710000000  0.5008170000000  0.4349900000000 1.0
C      1  0.4607340000000  0.5459940000000  0.4357860000000 1.0
C      1  0.5813260000000  0.4723720000000  0.4755190000000 1.0
C      1  0.5254940000000  0.5238610000000  0.5387910000000 1.0
C      1  0.5629290000000  0.4289990000000  0.4886700000000 1.0
C      1  0.4886900000000  0.5481180000000  0.4380530000000 1.0
C      1  0.5039270000000  0.5066970000000  0.5320260000000 1.0
C      1  0.4703370000000  0.4563740000000  0.5085350000000 1.0
C      1  0.5257450000000  0.5399320000000  0.5608220000000 1.0
C      1  0.4132060000000  0.5230960000000  0.5587650000000 1.0
C      1  0.4793850000000  0.5573020000000  0.5054630000000 1.0
C      1  0.5052130000000  0.5636620000000  0.5021620000000 1.0
C      1  0.4415340000000  0.5274160000000  0.4346680000000 1.0
C      1  0.4553360000000  0.5424480000000  0.5688040000000 1.0
C      1  0.5789710000000  0.4617640000000  0.5228000000000 1.0
C      1  0.4918440000000  0.4273160000000  0.4766660000000 1.0
C      1  0.5415060000000  0.4150290000000  0.4771950000000 1.0
C      1  0.5365930000000  0.4414310000000  0.5309080000000 1.0
END
