TITL C-627110-360-1461 0.514487570033786 125000 -429.462933949894 0 0 71 (C1) n - 1
REM
REM in /home/nfs/bkarasulu/CARBON/AIRSS/Generating-Clusters/LCBOP/Only-C1/SD-CG/FIRE-CG
REM
REM
REM
REM
REM
REM ./C.cell (11c1c37f851c82e70ff6c80c92926a4b)
REM AIRSS Version 0.9.1 bugfix July 2018 build 013d7b7c2542+ Fri, 06 Jul 2018 19:26:36 +0100
REM compiler GCC version 9.2.1 20190827 (Red Hat 9.2.1-1)
REM options -cpp -mtune=generic -march=x86-64 -g -O0 -fpre-include=/usr/include/finclude/math-vector-fortran.h
REM seed -1390567106 1960864682 -12118368 -1813730167 -1486749025 1924207391 997815491 -837639173 -2143754535 -586925042 -1951154151 -1927701492 420292622 -2143568911 1105816486 2106175464 -787563283 -874558628 1082193399 1991399393 -1345919730 -739951560 -1284304807 -1490128601 1908105613 795844220 -907257091 -586087038 1681504122 2029020624 -634438665 -1881942617 -2058020079
REM
CELL 1.54180   50.00000   50.00000   50.00000   90.00000   90.00000   90.00000
LATT -1
SFAC C  
C      1  0.4961470000000  0.5153270000000  0.5267030000000 1.0
C      1  0.5346340000000  0.4778380000000  0.4807120000000 1.0
C      1  0.4541380000000  0.5066370000000  0.5496210000000 1.0
C      1  0.3958690000000  0.5245080000000  0.4492520000000 1.0
C      1  0.3631770000000  0.5425820000000  0.5131970000000 1.0
C      1  0.5864030000000  0.4820540000000  0.5205190000000 1.0
C      1  0.3388570000000  0.4776330000000  0.5020870000000 1.0
C      1  0.5367300000000  0.4450870000000  0.5468620000000 1.0
C      1  0.4845470000000  0.5053570000000  0.4381110000000 1.0
C      1  0.5228120000000  0.4043820000000  0.5259730000000 1.0
C      1  0.5705560000000  0.4074180000000  0.5139050000000 1.0
C      1  0.5573830000000  0.5480600000000  0.5368240000000 1.0
C      1  0.5023530000000  0.5510580000000  0.4945690000000 1.0
C      1  0.5265400000000  0.4614220000000  0.5018680000000 1.0
C      1  0.5469410000000  0.5029760000000  0.4813280000000 1.0
C      1  0.4179190000000  0.5391530000000  0.4481890000000 1.0
C      1  0.5849230000000  0.4303950000000  0.5156530000000 1.0
C      1  0.5430020000000  0.4872410000000  0.5757900000000 1.0
C      1  0.5867530000000  0.5616850000000  0.5011750000000 1.0
C      1  0.5742850000000  0.4865570000000  0.4453620000000 1.0
C      1  0.5385820000000  0.4043690000000  0.4787650000000 1.0
C      1  0.4706890000000  0.5101060000000  0.4619630000000 1.0
C      1  0.4970090000000  0.4925650000000  0.5692630000000 1.0
C      1  0.5571590000000  0.4375120000000  0.4428450000000 1.0
C      1  0.3840320000000  0.4622980000000  0.4962240000000 1.0
C      1  0.4626480000000  0.5366650000000  0.4680050000000 1.0
C      1  0.3609660000000  0.4843600000000  0.4595480000000 1.0
C      1  0.5127300000000  0.5279770000000  0.5077470000000 1.0
C      1  0.6027110000000  0.4940910000000  0.5007750000000 1.0
C      1  0.5315210000000  0.4621130000000  0.5692200000000 1.0
C      1  0.4578270000000  0.5657350000000  0.5063490000000 1.0
C      1  0.4937760000000  0.5982690000000  0.4491670000000 1.0
C      1  0.5435700000000  0.4017620000000  0.5064260000000 1.0
C      1  0.5742300000000  0.4563890000000  0.5183510000000 1.0
C      1  0.4664880000000  0.4887580000000  0.4796320000000 1.0
C      1  0.5012890000000  0.4636170000000  0.5700250000000 1.0
C      1  0.5214570000000  0.5067290000000  0.5778370000000 1.0
C      1  0.5415970000000  0.5794900000000  0.5041410000000 1.0
C      1  0.4709580000000  0.5914240000000  0.4371900000000 1.0
C      1  0.5278440000000  0.5340350000000  0.5759270000000 1.0
C      1  0.5728230000000  0.5006450000000  0.5376570000000 1.0
C      1  0.5636590000000  0.5673730000000  0.5166720000000 1.0
C      1  0.4436110000000  0.5495430000000  0.4509880000000 1.0
C      1  0.4764090000000  0.4685670000000  0.4939660000000 1.0
C      1  0.4052360000000  0.5197880000000  0.5349570000000 1.0
C      1  0.3769440000000  0.5063700000000  0.4530710000000 1.0
C      1  0.5715030000000  0.5048030000000  0.4667040000000 1.0
C      1  0.5575110000000  0.5215820000000  0.5259140000000 1.0
C      1  0.5158410000000  0.4246050000000  0.5443870000000 1.0
C      1  0.4988050000000  0.4571300000000  0.5030630000000 1.0
C      1  0.5974400000000  0.5411330000000  0.4874490000000 1.0
C      1  0.4286770000000  0.5115950000000  0.5442210000000 1.0
C      1  0.5682620000000  0.4614040000000  0.4383050000000 1.0
C      1  0.5432100000000  0.5505150000000  0.5610470000000 1.0
C      1  0.5183040000000  0.4959210000000  0.3989640000000 1.0
C      1  0.4741370000000  0.5513880000000  0.4895690000000 1.0
C      1  0.5183620000000  0.5742660000000  0.4892220000000 1.0
C      1  0.5394600000000  0.5185050000000  0.5038690000000 1.0
C      1  0.5453930000000  0.4179280000000  0.4567020000000 1.0
C      1  0.4937150000000  0.4378880000000  0.5583640000000 1.0
C      1  0.3457040000000  0.4720900000000  0.4404410000000 1.0
C      1  0.4517440000000  0.5729430000000  0.4378860000000 1.0
C      1  0.5108340000000  0.5914680000000  0.4684370000000 1.0
C      1  0.5010980000000  0.5006950000000  0.4179570000000 1.0
C      1  0.5457380000000  0.4555830000000  0.5221910000000 1.0
C      1  0.5940110000000  0.5136690000000  0.4820050000000 1.0
C      1  0.3610100000000  0.4746880000000  0.4863000000000 1.0
C      1  0.4063440000000  0.4523530000000  0.5053070000000 1.0
C      1  0.5676070000000  0.4943830000000  0.5645740000000 1.0
C      1  0.4819030000000  0.5048910000000  0.5486470000000 1.0
C      1  0.3836520000000  0.5306500000000  0.5240610000000 1.0
END
