TITL C-627112-676-2159 -1.65955893935915 125000 -190.886439411822 0 0 33 (C1) n - 1
REM
REM in /home/nfs/bkarasulu/CARBON/AIRSS/Generating-Clusters/LCBOP/Only-C1/SD-CG/FIRE-CG
REM
REM
REM
REM
REM
REM ./C.cell (11c1c37f851c82e70ff6c80c92926a4b)
REM AIRSS Version 0.9.1 bugfix July 2018 build 013d7b7c2542+ Fri, 06 Jul 2018 19:26:36 +0100
REM compiler GCC version 9.2.1 20190827 (Red Hat 9.2.1-1)
REM options -cpp -mtune=generic -march=x86-64 -g -O0 -fpre-include=/usr/include/finclude/math-vector-fortran.h
REM seed -92807984 1385846127 649226432 -1197311052 1854863416 -1227692902 -622916114 -608572628 201026473 -1004396112 -335467825 -1394668235 -1633693867 -34323789 -807137636 -145017226 62309243 1171616426 52673633 1819444185 -1031824516 1307811530 663826534 600453666 155684548 1737762747 2111496570 326733531 -554868500 -814931647 30350261 -2124623615 1338589267
REM
CELL 1.54180   50.00000   50.00000   50.00000   90.00000   90.00000   90.00000
LATT -1
SFAC C  
C      1  0.5016830000000  0.5080310000000  0.4866200000000 1.0
C      1  0.4915590000000  0.4660430000000  0.6038780000000 1.0
C      1  0.4937430000000  0.4608130000000  0.3573800000000 1.0
C      1  0.5126010000000  0.4805760000000  0.3682470000000 1.0
C      1  0.4997510000000  0.4817230000000  0.4982570000000 1.0
C      1  0.4979640000000  0.4637200000000  0.4520090000000 1.0
C      1  0.5036770000000  0.5411360000000  0.5411450000000 1.0
C      1  0.5574380000000  0.5549140000000  0.4934650000000 1.0
C      1  0.5203120000000  0.5273780000000  0.4948580000000 1.0
C      1  0.4706640000000  0.5342490000000  0.5819260000000 1.0
C      1  0.4976850000000  0.4577180000000  0.3298550000000 1.0
C      1  0.4987580000000  0.4771080000000  0.5256150000000 1.0
C      1  0.5451180000000  0.5586110000000  0.5179270000000 1.0
C      1  0.5214730000000  0.5421140000000  0.5200790000000 1.0
C      1  0.4878830000000  0.4649260000000  0.6301040000000 1.0
C      1  0.5469610000000  0.5273940000000  0.4513740000000 1.0
C      1  0.4989230000000  0.4897300000000  0.4405850000000 1.0
C      1  0.4412540000000  0.5182190000000  0.6229420000000 1.0
C      1  0.5277050000000  0.4884870000000  0.3442990000000 1.0
C      1  0.5175920000000  0.4974490000000  0.4206720000000 1.0
C      1  0.4840460000000  0.4642300000000  0.6558800000000 1.0
C      1  0.4916820000000  0.5095700000000  0.4598960000000 1.0
C      1  0.5183800000000  0.4745810000000  0.3218840000000 1.0
C      1  0.5428910000000  0.5357680000000  0.4775300000000 1.0
C      1  0.4868340000000  0.5389660000000  0.5614710000000 1.0
C      1  0.4947240000000  0.4681720000000  0.5776550000000 1.0
C      1  0.4156610000000  0.4973280000000  0.6638320000000 1.0
C      1  0.5153910000000  0.4893960000000  0.3941920000000 1.0
C      1  0.4554400000000  0.5271660000000  0.6024270000000 1.0
C      1  0.5384330000000  0.5140300000000  0.4298770000000 1.0
C      1  0.4985740000000  0.4606310000000  0.4790750000000 1.0
C      1  0.4280560000000  0.5079750000000  0.6435190000000 1.0
C      1  0.4971460000000  0.4718480000000  0.5515240000000 1.0
END
