TITL C-627109-622-1802 572.486332100122 125000 -714.989213792011 0 0 117 (C1) n - 1
REM
REM in /home/nfs/bkarasulu/CARBON/AIRSS/Generating-Clusters/LCBOP/Only-C1/SD-CG/FIRE-CG
REM
REM
REM
REM
REM
REM ./C.cell (11c1c37f851c82e70ff6c80c92926a4b)
REM AIRSS Version 0.9.1 bugfix July 2018 build 013d7b7c2542+ Fri, 06 Jul 2018 19:26:36 +0100
REM compiler GCC version 9.2.1 20190827 (Red Hat 9.2.1-1)
REM options -cpp -mtune=generic -march=x86-64 -g -O0 -fpre-include=/usr/include/finclude/math-vector-fortran.h
REM seed -1280020036 -124847025 -1160371519 -1883012209 1621333869 -128606957 1073459521 -1046198072 -278376122 1918090937 396212763 726727778 430300379 1324744 -1968469988 -857436869 -624789429 2087117277 1127323500 1866966085 -60328164 -347908380 -566020676 643758494 -1573631039 893541391 945680572 -1406804070 -149257115 -35085058 -1515438371 -314238239 -1282801995
REM
CELL 1.54180   50.00000   50.00000   50.00000   90.00000   90.00000   90.00000
LATT -1
SFAC C  
C      1  0.5209650000000  0.5493390000000  0.5868400000000 1.0
C      1  0.5587550000000  0.5640060000000  0.4987810000000 1.0
C      1  0.5819870000000  0.4804290000000  0.5250340000000 1.0
C      1  0.5855390000000  0.5218640000000  0.3839430000000 1.0
C      1  0.5128010000000  0.4107730000000  0.5221890000000 1.0
C      1  0.4872700000000  0.5283610000000  0.4717990000000 1.0
C      1  0.5467130000000  0.4997150000000  0.4037420000000 1.0
C      1  0.5119290000000  0.4479880000000  0.5626120000000 1.0
C      1  0.5333480000000  0.5086430000000  0.4710480000000 1.0
C      1  0.5526240000000  0.5089360000000  0.5743370000000 1.0
C      1  0.5164640000000  0.4379290000000  0.5152160000000 1.0
C      1  0.4827870000000  0.3883640000000  0.4931950000000 1.0
C      1  0.4499310000000  0.4431630000000  0.5555820000000 1.0
C      1  0.4330460000000  0.5327480000000  0.5899630000000 1.0
C      1  0.4079720000000  0.5062640000000  0.4879160000000 1.0
C      1  0.4588630000000  0.5272820000000  0.4254450000000 1.0
C      1  0.4358230000000  0.5472240000000  0.5229060000000 1.0
C      1  0.4729240000000  0.4078860000000  0.4636670000000 1.0
C      1  0.4004210000000  0.5055780000000  0.5151630000000 1.0
C      1  0.5162070000000  0.4866940000000  0.5351450000000 1.0
C      1  0.4386340000000  0.4665100000000  0.5065250000000 1.0
C      1  0.5073990000000  0.5513850000000  0.4224440000000 1.0
C      1  0.4644920000000  0.5491400000000  0.4679990000000 1.0
C      1  0.5501660000000  0.4910800000000  0.4825300000000 1.0
C      1  0.5674980000000  0.3909150000000  0.4931900000000 1.0
C      1  0.4905050000000  0.4602100000000  0.5784770000000 1.0
C      1  0.5752290000000  0.4688800000000  0.5523990000000 1.0
C      1  0.5198580000000  0.4414590000000  0.4869250000000 1.0
C      1  0.5541680000000  0.4732810000000  0.4083170000000 1.0
C      1  0.6013700000000  0.5125970000000  0.4921340000000 1.0
C      1  0.5636540000000  0.4828500000000  0.5776320000000 1.0
C      1  0.4610230000000  0.4815410000000  0.4993510000000 1.0
C      1  0.4725870000000  0.5713540000000  0.4496310000000 1.0
C      1  0.4412930000000  0.4270410000000  0.5341450000000 1.0
C      1  0.5481540000000  0.5361640000000  0.5846440000000 1.0
C      1  0.5547560000000  0.5145530000000  0.5454420000000 1.0
C      1  0.4571610000000  0.5180080000000  0.5501730000000 1.0
C      1  0.5613810000000  0.4428200000000  0.5545910000000 1.0
C      1  0.5677990000000  0.5511700000000  0.4744090000000 1.0
C      1  0.4816900000000  0.5039150000000  0.4560140000000 1.0
C      1  0.4402600000000  0.5606420000000  0.4796540000000 1.0
C      1  0.5463320000000  0.4645850000000  0.5927690000000 1.0
C      1  0.5026740000000  0.5026240000000  0.5541430000000 1.0
C      1  0.4198120000000  0.5123450000000  0.4633340000000 1.0
C      1  0.4120830000000  0.5598800000000  0.4791930000000 1.0
C      1  0.4347550000000  0.5120050000000  0.4375350000000 1.0
C      1  0.4812510000000  0.4687190000000  0.4855320000000 1.0
C      1  0.4966950000000  0.4907980000000  0.4120010000000 1.0
C      1  0.4470130000000  0.5207350000000  0.5237010000000 1.0
C      1  0.4496200000000  0.4001370000000  0.5300280000000 1.0
C      1  0.5157220000000  0.5670730000000  0.5201730000000 1.0
C      1  0.4954760000000  0.5345190000000  0.5900610000000 1.0
C      1  0.4788260000000  0.5560640000000  0.4265430000000 1.0
C      1  0.5165670000000  0.5310660000000  0.4653060000000 1.0
C      1  0.5037490000000  0.5912090000000  0.5277060000000 1.0
C      1  0.4901990000000  0.4630520000000  0.4144580000000 1.0
C      1  0.4566190000000  0.3896270000000  0.5048550000000 1.0
C      1  0.4257070000000  0.4243520000000  0.4868180000000 1.0
C      1  0.4813880000000  0.6055240000000  0.5200690000000 1.0
C      1  0.6009550000000  0.5020870000000  0.5187600000000 1.0
C      1  0.5385940000000  0.4437890000000  0.5731470000000 1.0
C      1  0.4813040000000  0.4329840000000  0.4540750000000 1.0
C      1  0.5486050000000  0.5720130000000  0.5520220000000 1.0
C      1  0.4435560000000  0.4578490000000  0.4305700000000 1.0
C      1  0.5545780000000  0.5514200000000  0.4477230000000 1.0
C      1  0.4644960000000  0.5082220000000  0.5066990000000 1.0
C      1  0.6210150000000  0.5230030000000  0.3451740000000 1.0
C      1  0.4542350000000  0.5654130000000  0.5352550000000 1.0
C      1  0.5436650000000  0.4332840000000  0.4735880000000 1.0
C      1  0.4508980000000  0.5858370000000  0.4896120000000 1.0
C      1  0.4680510000000  0.5948830000000  0.4665010000000 1.0
C      1  0.4644130000000  0.4646920000000  0.5666940000000 1.0
C      1  0.5441090000000  0.5682010000000  0.5230960000000 1.0
C      1  0.5526200000000  0.3696570000000  0.5000550000000 1.0
C      1  0.5667220000000  0.5204490000000  0.4045630000000 1.0
C      1  0.5576880000000  0.4851440000000  0.5088280000000 1.0
C      1  0.4989390000000  0.5067670000000  0.5823300000000 1.0
C      1  0.4679050000000  0.5444720000000  0.5842430000000 1.0
C      1  0.5676420000000  0.5394710000000  0.4255040000000 1.0
C      1  0.4015550000000  0.5241860000000  0.5390150000000 1.0
C      1  0.4263230000000  0.5314480000000  0.6159530000000 1.0
C      1  0.5252100000000  0.5733420000000  0.5704300000000 1.0
C      1  0.4127280000000  0.4338300000000  0.4639540000000 1.0
C      1  0.5479520000000  0.4398170000000  0.4468310000000 1.0
C      1  0.5407370000000  0.4980010000000  0.5276800000000 1.0
C      1  0.5139300000000  0.5344200000000  0.4006410000000 1.0
C      1  0.5623040000000  0.4159980000000  0.4855510000000 1.0
C      1  0.4136010000000  0.5251010000000  0.5671060000000 1.0
C      1  0.4868920000000  0.5242180000000  0.5008380000000 1.0
C      1  0.5021070000000  0.5429660000000  0.5152900000000 1.0
C      1  0.4588830000000  0.5882680000000  0.5174520000000 1.0
C      1  0.4357520000000  0.4849050000000  0.4266200000000 1.0
C      1  0.5190120000000  0.5063190000000  0.4019090000000 1.0
C      1  0.5064410000000  0.3874960000000  0.5074760000000 1.0
C      1  0.5251360000000  0.4747440000000  0.6086400000000 1.0
C      1  0.5768060000000  0.5337850000000  0.5462570000000 1.0
C      1  0.5256000000000  0.5495140000000  0.4457430000000 1.0
C      1  0.4713960000000  0.4487450000000  0.4312360000000 1.0
C      1  0.5539030000000  0.4521360000000  0.4242240000000 1.0
C      1  0.5262550000000  0.3678240000000  0.5049190000000 1.0
C      1  0.5129710000000  0.4579190000000  0.5352870000000 1.0
C      1  0.4229110000000  0.4415470000000  0.4404380000000 1.0
C      1  0.5657990000000  0.5526950000000  0.5651220000000 1.0
C      1  0.4434550000000  0.4032890000000  0.4823620000000 1.0
C      1  0.4793820000000  0.5064250000000  0.4279650000000 1.0
C      1  0.3960290000000  0.5589810000000  0.5011800000000 1.0
C      1  0.4309960000000  0.4398890000000  0.5103680000000 1.0
C      1  0.5890380000000  0.5321930000000  0.4781400000000 1.0
C      1  0.4817430000000  0.6187110000000  0.4730980000000 1.0
C      1  0.4850550000000  0.6249940000000  0.4994940000000 1.0
C      1  0.4075220000000  0.5492060000000  0.5249230000000 1.0
C      1  0.6033950000000  0.5224970000000  0.3643810000000 1.0
C      1  0.6012620000000  0.5230340000000  0.5381410000000 1.0
C      1  0.4648520000000  0.5468850000000  0.5563730000000 1.0
C      1  0.5006200000000  0.4815840000000  0.5959120000000 1.0
C      1  0.4959360000000  0.4485020000000  0.4733740000000 1.0
C      1  0.4565870000000  0.4919360000000  0.5618580000000 1.0
END
