TITL C-627107-135-671 -1.90907429228591e-07 125000 -1121.93428423487 0 0 181 (C1) n - 1
REM
REM in /home/nfs/bkarasulu/CARBON/AIRSS/Generating-Clusters/LCBOP/Only-C1/SD-CG/FIRE-CG
REM
REM
REM
REM
REM
REM ./C.cell (11c1c37f851c82e70ff6c80c92926a4b)
REM AIRSS Version 0.9.1 bugfix July 2018 build 013d7b7c2542+ Fri, 06 Jul 2018 19:26:36 +0100
REM compiler GCC version 9.2.1 20190827 (Red Hat 9.2.1-1)
REM options -cpp -mtune=generic -march=x86-64 -g -O0 -fpre-include=/usr/include/finclude/math-vector-fortran.h
REM seed 1194964961 1115835235 -276514971 744116891 488190271 1946539291 1535461865 -460106623 -871921533 1154812782 1069062836 -2061835734 1986094042 -763237454 -1682379837 1870198797 1545905469 -1229225310 -81002422 1728736496 -561056669 -447952567 1234596126 -543244083 824438258 17895542 -217804656 -1635066303 -1633322367 -2015273433 1065516239 1884579918 -216544559
REM
CELL 1.54180   50.00000   50.00000   50.00000   90.00000   90.00000   90.00000
LATT -1
SFAC C  
C      1  0.5268530000000  0.5175510000000  0.4328320000000 1.0
C      1  0.5529890000000  0.5313440000000  0.5966240000000 1.0
C      1  0.4577980000000  0.3918730000000  0.4564510000000 1.0
C      1  0.4972130000000  0.4866580000000  0.4514210000000 1.0
C      1  0.4477260000000  0.4964900000000  0.5780760000000 1.0
C      1  0.4771930000000  0.5702130000000  0.4342590000000 1.0
C      1  0.3843870000000  0.4777660000000  0.4471970000000 1.0
C      1  0.4123740000000  0.3877470000000  0.4824240000000 1.0
C      1  0.4713180000000  0.4023570000000  0.4330900000000 1.0
C      1  0.4713280000000  0.4970890000000  0.4455640000000 1.0
C      1  0.4187170000000  0.5169810000000  0.4359300000000 1.0
C      1  0.4560770000000  0.5441710000000  0.3980320000000 1.0
C      1  0.4966600000000  0.5690890000000  0.5573680000000 1.0
C      1  0.4541180000000  0.4786560000000  0.4322910000000 1.0
C      1  0.5584350000000  0.5010900000000  0.5610970000000 1.0
C      1  0.5720940000000  0.4294450000000  0.4574170000000 1.0
C      1  0.4213090000000  0.5682740000000  0.5412110000000 1.0
C      1  0.4277980000000  0.4764510000000  0.5711790000000 1.0
C      1  0.4646080000000  0.5239720000000  0.4590640000000 1.0
C      1  0.4236420000000  0.4268890000000  0.4195630000000 1.0
C      1  0.5312550000000  0.6045380000000  0.4972410000000 1.0
C      1  0.4989550000000  0.5687930000000  0.6031960000000 1.0
C      1  0.4863100000000  0.4954250000000  0.3839360000000 1.0
C      1  0.5087450000000  0.4450400000000  0.6104880000000 1.0
C      1  0.3925090000000  0.4707010000000  0.3977080000000 1.0
C      1  0.5368690000000  0.4988260000000  0.4132600000000 1.0
C      1  0.4980870000000  0.5003190000000  0.5772060000000 1.0
C      1  0.4861620000000  0.4021340000000  0.5657910000000 1.0
C      1  0.3946870000000  0.5341510000000  0.4304100000000 1.0
C      1  0.5268210000000  0.5278880000000  0.6067280000000 1.0
C      1  0.4023070000000  0.4866990000000  0.5653990000000 1.0
C      1  0.4035660000000  0.3893010000000  0.5079130000000 1.0
C      1  0.4894320000000  0.6193380000000  0.5447850000000 1.0
C      1  0.4748170000000  0.3879040000000  0.5079190000000 1.0
C      1  0.5706990000000  0.5206220000000  0.5448890000000 1.0
C      1  0.5351150000000  0.6105990000000  0.5266710000000 1.0
C      1  0.5222520000000  0.3875790000000  0.4544030000000 1.0
C      1  0.4860730000000  0.5442480000000  0.4454000000000 1.0
C      1  0.4635420000000  0.6283280000000  0.5345840000000 1.0
C      1  0.5798090000000  0.5129520000000  0.5202320000000 1.0
C      1  0.5323810000000  0.5595600000000  0.5038440000000 1.0
C      1  0.6342430000000  0.4853460000000  0.5031770000000 1.0
C      1  0.3773320000000  0.4759190000000  0.4195110000000 1.0
C      1  0.4738720000000  0.4855200000000  0.5747580000000 1.0
C      1  0.4496350000000  0.6065600000000  0.5207200000000 1.0
C      1  0.5459160000000  0.6028290000000  0.4720670000000 1.0
C      1  0.5817870000000  0.5424700000000  0.5599180000000 1.0
C      1  0.4268410000000  0.5691380000000  0.4300920000000 1.0
C      1  0.5208550000000  0.3797250000000  0.5319540000000 1.0
C      1  0.5457300000000  0.5868080000000  0.5421290000000 1.0
C      1  0.5307450000000  0.4118080000000  0.4633390000000 1.0
C      1  0.6240020000000  0.5611130000000  0.4986480000000 1.0
C      1  0.5137400000000  0.5023220000000  0.6007630000000 1.0
C      1  0.4648800000000  0.4710410000000  0.5075610000000 1.0
C      1  0.5884060000000  0.4891820000000  0.5934290000000 1.0
C      1  0.4824830000000  0.4432410000000  0.3980380000000 1.0
C      1  0.5604920000000  0.5282090000000  0.4809180000000 1.0
C      1  0.6001930000000  0.5750660000000  0.4941200000000 1.0
C      1  0.4973380000000  0.4702920000000  0.3970890000000 1.0
C      1  0.5601150000000  0.4119080000000  0.5043950000000 1.0
C      1  0.5029640000000  0.5202430000000  0.5582360000000 1.0
C      1  0.5022510000000  0.4995910000000  0.5158410000000 1.0
C      1  0.4250350000000  0.5941880000000  0.5261280000000 1.0
C      1  0.4225770000000  0.4933140000000  0.5016910000000 1.0
C      1  0.5835890000000  0.5214380000000  0.3961160000000 1.0
C      1  0.5613260000000  0.5532370000000  0.5782110000000 1.0
C      1  0.4264350000000  0.4419800000000  0.4441500000000 1.0
C      1  0.5536100000000  0.5687990000000  0.5207340000000 1.0
C      1  0.5939910000000  0.5469540000000  0.4440620000000 1.0
C      1  0.4573730000000  0.4393740000000  0.3842490000000 1.0
C      1  0.3970160000000  0.5497350000000  0.4741420000000 1.0
C      1  0.5794850000000  0.4182990000000  0.4826160000000 1.0
C      1  0.5443360000000  0.4319240000000  0.4462800000000 1.0
C      1  0.4108830000000  0.4683950000000  0.5088970000000 1.0
C      1  0.6444810000000  0.4688090000000  0.4833560000000 1.0
C      1  0.5573940000000  0.4124100000000  0.5343960000000 1.0
C      1  0.6243520000000  0.5166300000000  0.5523960000000 1.0
C      1  0.5008280000000  0.5868670000000  0.4332010000000 1.0
C      1  0.4863590000000  0.4936060000000  0.3559860000000 1.0
C      1  0.4493160000000  0.5241180000000  0.5831120000000 1.0
C      1  0.5142550000000  0.5223780000000  0.4785490000000 1.0
C      1  0.4509430000000  0.4914850000000  0.4955060000000 1.0
C      1  0.3768510000000  0.5025900000000  0.4606800000000 1.0
C      1  0.4713020000000  0.5872440000000  0.5175040000000 1.0
C      1  0.4756230000000  0.5217050000000  0.3935910000000 1.0
C      1  0.6246170000000  0.4751230000000  0.5282250000000 1.0
C      1  0.4929570000000  0.4742390000000  0.5118770000000 1.0
C      1  0.4374070000000  0.4844710000000  0.4093060000000 1.0
C      1  0.3853340000000  0.5332570000000  0.5481710000000 1.0
C      1  0.6172570000000  0.4880560000000  0.5530250000000 1.0
C      1  0.5144680000000  0.5803210000000  0.4963490000000 1.0
C      1  0.4474680000000  0.5812290000000  0.5894700000000 1.0
C      1  0.5515640000000  0.4648300000000  0.4906960000000 1.0
C      1  0.4278560000000  0.5766260000000  0.5710240000000 1.0
C      1  0.4529720000000  0.4532210000000  0.4460320000000 1.0
C      1  0.5174240000000  0.4515670000000  0.5638860000000 1.0
C      1  0.4704930000000  0.4601700000000  0.5625740000000 1.0
C      1  0.5242640000000  0.4721770000000  0.4108580000000 1.0
C      1  0.4279080000000  0.5357000000000  0.3959440000000 1.0
C      1  0.4030730000000  0.3970350000000  0.5338380000000 1.0
C      1  0.5355450000000  0.4191640000000  0.4908390000000 1.0
C      1  0.5971390000000  0.5206000000000  0.3723910000000 1.0
C      1  0.4226530000000  0.5574150000000  0.4582040000000 1.0
C      1  0.4274730000000  0.5100720000000  0.4097780000000 1.0
C      1  0.5789620000000  0.4565890000000  0.5577220000000 1.0
C      1  0.4311120000000  0.4400260000000  0.3950380000000 1.0
C      1  0.4826370000000  0.4380720000000  0.4836980000000 1.0
C      1  0.4576260000000  0.4048690000000  0.5237230000000 1.0
C      1  0.5747170000000  0.4301000000000  0.5489870000000 1.0
C      1  0.5332780000000  0.4000800000000  0.5478470000000 1.0
C      1  0.4177350000000  0.4422020000000  0.5133600000000 1.0
C      1  0.5040440000000  0.4524400000000  0.4977620000000 1.0
C      1  0.4424890000000  0.4270580000000  0.5118300000000 1.0
C      1  0.4441330000000  0.5474770000000  0.5363610000000 1.0
C      1  0.4359650000000  0.5309280000000  0.4541630000000 1.0
C      1  0.5744080000000  0.5673360000000  0.4500550000000 1.0
C      1  0.5184440000000  0.4331820000000  0.5856710000000 1.0
C      1  0.4426500000000  0.4511130000000  0.5654730000000 1.0
C      1  0.5017790000000  0.4590620000000  0.4477680000000 1.0
C      1  0.5926440000000  0.5377260000000  0.4171640000000 1.0
C      1  0.5493470000000  0.5816880000000  0.4518660000000 1.0
C      1  0.4601080000000  0.4444210000000  0.4993400000000 1.0
C      1  0.4841550000000  0.4199190000000  0.4161890000000 1.0
C      1  0.4577220000000  0.5288840000000  0.6103020000000 1.0
C      1  0.5779310000000  0.5745670000000  0.5085150000000 1.0
C      1  0.5571030000000  0.4744760000000  0.5525640000000 1.0
C      1  0.4939840000000  0.4518240000000  0.5505480000000 1.0
C      1  0.5266380000000  0.4526140000000  0.4337460000000 1.0
C      1  0.5170900000000  0.5050840000000  0.4565210000000 1.0
C      1  0.4193160000000  0.5215610000000  0.5049770000000 1.0
C      1  0.4867230000000  0.5799790000000  0.4956360000000 1.0
C      1  0.3813980000000  0.5311940000000  0.4561240000000 1.0
C      1  0.6105630000000  0.5418300000000  0.5591690000000 1.0
C      1  0.4081430000000  0.5532400000000  0.4120850000000 1.0
C      1  0.4457530000000  0.5346660000000  0.5105830000000 1.0
C      1  0.4864800000000  0.5429110000000  0.5572560000000 1.0
C      1  0.4298380000000  0.3894110000000  0.4617770000000 1.0
C      1  0.4975870000000  0.3760360000000  0.5193390000000 1.0
C      1  0.5156430000000  0.5439470000000  0.4358970000000 1.0
C      1  0.4936130000000  0.5177030000000  0.4965030000000 1.0
C      1  0.5165230000000  0.5110220000000  0.5361860000000 1.0
C      1  0.5992450000000  0.4740620000000  0.5707850000000 1.0
C      1  0.6260010000000  0.5350740000000  0.4860630000000 1.0
C      1  0.5146940000000  0.4079610000000  0.5706300000000 1.0
C      1  0.3883280000000  0.5086830000000  0.5587170000000 1.0
C      1  0.4203740000000  0.4661790000000  0.3954270000000 1.0
C      1  0.4791210000000  0.4444500000000  0.4566340000000 1.0
C      1  0.4866680000000  0.5899790000000  0.5421920000000 1.0
C      1  0.5603960000000  0.5060050000000  0.3998690000000 1.0
C      1  0.4542510000000  0.5667270000000  0.4182480000000 1.0
C      1  0.4726440000000  0.3864760000000  0.4798810000000 1.0
C      1  0.4041710000000  0.4577350000000  0.4542760000000 1.0
C      1  0.4954140000000  0.4958070000000  0.6228250000000 1.0
C      1  0.5721520000000  0.4819670000000  0.4825640000000 1.0
C      1  0.4382260000000  0.4228880000000  0.5625490000000 1.0
C      1  0.4613200000000  0.4076680000000  0.5525000000000 1.0
C      1  0.4718340000000  0.5792480000000  0.6016490000000 1.0
C      1  0.6369710000000  0.5141230000000  0.5032910000000 1.0
C      1  0.5305740000000  0.4467070000000  0.4952700000000 1.0
C      1  0.5722940000000  0.5073320000000  0.4946380000000 1.0
C      1  0.5354560000000  0.5382200000000  0.4865780000000 1.0
C      1  0.5042140000000  0.5438620000000  0.6169830000000 1.0
C      1  0.4823510000000  0.5236180000000  0.6245840000000 1.0
C      1  0.5152220000000  0.5738020000000  0.5788830000000 1.0
C      1  0.6350930000000  0.5679340000000  0.5240140000000 1.0
C      1  0.6429410000000  0.5213820000000  0.5305680000000 1.0
C      1  0.5257410000000  0.5719080000000  0.4378310000000 1.0
C      1  0.4584790000000  0.5389770000000  0.5596030000000 1.0
C      1  0.3967660000000  0.5523520000000  0.5301650000000 1.0
C      1  0.6548780000000  0.4523550000000  0.4660230000000 1.0
C      1  0.6249670000000  0.5643200000000  0.5490400000000 1.0
C      1  0.3997390000000  0.5424990000000  0.5021730000000 1.0
C      1  0.4976130000000  0.4665950000000  0.6241210000000 1.0
C      1  0.5654430000000  0.5060310000000  0.5891040000000 1.0
C      1  0.4644570000000  0.5191240000000  0.4907140000000 1.0
C      1  0.6105770000000  0.5295640000000  0.4615140000000 1.0
C      1  0.4135060000000  0.4105690000000  0.5549720000000 1.0
C      1  0.5426160000000  0.5743420000000  0.5690930000000 1.0
C      1  0.6075650000000  0.5016500000000  0.4550940000000 1.0
C      1  0.5159000000000  0.6275240000000  0.5394370000000 1.0
C      1  0.5914290000000  0.4809310000000  0.4619250000000 1.0
END
