TITL C-627109-622-1221 8489.03092093983 125000 -1133.56512160843 0 0 188 (C1) n - 1
REM
REM in /home/nfs/bkarasulu/CARBON/AIRSS/Generating-Clusters/LCBOP/Only-C1/SD-CG/FIRE-CG
REM
REM
REM
REM
REM
REM ./C.cell (11c1c37f851c82e70ff6c80c92926a4b)
REM AIRSS Version 0.9.1 bugfix July 2018 build 013d7b7c2542+ Fri, 06 Jul 2018 19:26:36 +0100
REM compiler GCC version 9.2.1 20190827 (Red Hat 9.2.1-1)
REM options -cpp -mtune=generic -march=x86-64 -g -O0 -fpre-include=/usr/include/finclude/math-vector-fortran.h
REM seed -2105278432 1325710236 -2065994921 -1813843888 1475689769 -1850966779 -1591345992 1045728161 101154917 40622232 -551684937 1119835850 -812621129 -774740961 44004379 1894466674 -1039912938 -1140297552 1246901195 2937504 1362402806 -51540117 157012948 -138928797 -148940493 -1721699154 1681795951 -300021992 217800138 -1089524748 205443067 755533355 -366094867
REM
CELL 1.54180   50.00000   50.00000   50.00000   90.00000   90.00000   90.00000
LATT -1
SFAC C  
C      1  0.4499750000000  0.5926750000000  0.5267050000000 1.0
C      1  0.6182280000000  0.4540370000000  0.4721530000000 1.0
C      1  0.5166390000000  0.6420030000000  0.5311320000000 1.0
C      1  0.5972170000000  0.5457530000000  0.5282660000000 1.0
C      1  0.5433460000000  0.4869600000000  0.4049530000000 1.0
C      1  0.5496960000000  0.5286650000000  0.5718670000000 1.0
C      1  0.6316480000000  0.4475290000000  0.5417430000000 1.0
C      1  0.3919420000000  0.5540920000000  0.5085280000000 1.0
C      1  0.4468660000000  0.4734880000000  0.4029020000000 1.0
C      1  0.5928460000000  0.3950790000000  0.5493130000000 1.0
C      1  0.5164960000000  0.6176100000000  0.5472380000000 1.0
C      1  0.3740290000000  0.3893670000000  0.5716550000000 1.0
C      1  0.4213290000000  0.5826030000000  0.4836730000000 1.0
C      1  0.5951850000000  0.5166980000000  0.4184360000000 1.0
C      1  0.4391670000000  0.5028080000000  0.4908590000000 1.0
C      1  0.4537610000000  0.4262860000000  0.4331630000000 1.0
C      1  0.5210670000000  0.5484540000000  0.5390060000000 1.0
C      1  0.5066530000000  0.5138040000000  0.5890610000000 1.0
C      1  0.6055260000000  0.4662300000000  0.4920060000000 1.0
C      1  0.4535330000000  0.4572960000000  0.3828370000000 1.0
C      1  0.4261210000000  0.5601550000000  0.4387430000000 1.0
C      1  0.4836550000000  0.4436390000000  0.5040310000000 1.0
C      1  0.4414460000000  0.4600900000000  0.5700830000000 1.0
C      1  0.5351860000000  0.3984590000000  0.5317190000000 1.0
C      1  0.5412040000000  0.5237840000000  0.4846630000000 1.0
C      1  0.4754860000000  0.4245150000000  0.6047950000000 1.0
C      1  0.5155310000000  0.4528500000000  0.5492210000000 1.0
C      1  0.4967920000000  0.3908900000000  0.5673520000000 1.0
C      1  0.4485510000000  0.5495300000000  0.4157300000000 1.0
C      1  0.3797650000000  0.5018510000000  0.5568200000000 1.0
C      1  0.5112700000000  0.4454450000000  0.4641670000000 1.0
C      1  0.4230480000000  0.5444400000000  0.5506710000000 1.0
C      1  0.5336790000000  0.6003670000000  0.4306340000000 1.0
C      1  0.3970520000000  0.5196790000000  0.4582460000000 1.0
C      1  0.5688130000000  0.5809240000000  0.4607770000000 1.0
C      1  0.4072470000000  0.4272470000000  0.4201810000000 1.0
C      1  0.5019700000000  0.4325170000000  0.4419020000000 1.0
C      1  0.5598970000000  0.4145480000000  0.4884600000000 1.0
C      1  0.4888280000000  0.6063430000000  0.4545890000000 1.0
C      1  0.5246360000000  0.5057720000000  0.4956520000000 1.0
C      1  0.4859950000000  0.3898260000000  0.4319880000000 1.0
C      1  0.4678670000000  0.4565370000000  0.5664400000000 1.0
C      1  0.6018710000000  0.5313420000000  0.3979440000000 1.0
C      1  0.5253220000000  0.5379480000000  0.4359450000000 1.0
C      1  0.5998480000000  0.4766550000000  0.5174340000000 1.0
C      1  0.4732100000000  0.5048270000000  0.5475760000000 1.0
C      1  0.5856640000000  0.5024880000000  0.4409990000000 1.0
C      1  0.5184510000000  0.4899950000000  0.5178290000000 1.0
C      1  0.4414720000000  0.5165330000000  0.5932150000000 1.0
C      1  0.5754860000000  0.5581780000000  0.4729650000000 1.0
C      1  0.4077580000000  0.5629860000000  0.5321090000000 1.0
C      1  0.4975410000000  0.6009360000000  0.5308530000000 1.0
C      1  0.4611560000000  0.6204430000000  0.4903090000000 1.0
C      1  0.4671880000000  0.5348280000000  0.4343400000000 1.0
C      1  0.4189820000000  0.4516230000000  0.4574970000000 1.0
C      1  0.6136020000000  0.5210950000000  0.4873450000000 1.0
C      1  0.5503750000000  0.5870770000000  0.5157940000000 1.0
C      1  0.5210890000000  0.5425940000000  0.3890480000000 1.0
C      1  0.6470540000000  0.4271330000000  0.5468450000000 1.0
C      1  0.4031770000000  0.4535620000000  0.4805360000000 1.0
C      1  0.5746950000000  0.5344060000000  0.5151600000000 1.0
C      1  0.4615840000000  0.5927720000000  0.4998040000000 1.0
C      1  0.5049420000000  0.4349860000000  0.4888300000000 1.0
C      1  0.4292090000000  0.4950900000000  0.4424030000000 1.0
C      1  0.5970510000000  0.5104820000000  0.5867310000000 1.0
C      1  0.5556630000000  0.4629760000000  0.5250410000000 1.0
C      1  0.5356150000000  0.5216470000000  0.5932860000000 1.0
C      1  0.5508900000000  0.4181020000000  0.5490910000000 1.0
C      1  0.5148320000000  0.4477800000000  0.6093300000000 1.0
C      1  0.5738470000000  0.4083120000000  0.5659330000000 1.0
C      1  0.5099270000000  0.4072200000000  0.4915300000000 1.0
C      1  0.4823580000000  0.4189140000000  0.4241800000000 1.0
C      1  0.5843320000000  0.4035000000000  0.4991260000000 1.0
C      1  0.5030660000000  0.6381080000000  0.5054430000000 1.0
C      1  0.4767840000000  0.6427870000000  0.4948650000000 1.0
C      1  0.5763030000000  0.4947360000000  0.5991770000000 1.0
C      1  0.4487920000000  0.5293160000000  0.3912190000000 1.0
C      1  0.5317440000000  0.4618270000000  0.3979790000000 1.0
C      1  0.4730600000000  0.5396850000000  0.4805780000000 1.0
C      1  0.5027130000000  0.5960190000000  0.4777520000000 1.0
C      1  0.5630420000000  0.5125570000000  0.5291000000000 1.0
C      1  0.4719820000000  0.5967490000000  0.5443840000000 1.0
C      1  0.4653350000000  0.4707320000000  0.4514060000000 1.0
C      1  0.4711910000000  0.5326080000000  0.5422860000000 1.0
C      1  0.4876300000000  0.3802110000000  0.4574080000000 1.0
C      1  0.4680060000000  0.5648270000000  0.4935820000000 1.0
C      1  0.5277140000000  0.4645340000000  0.5256830000000 1.0
C      1  0.4760150000000  0.5978950000000  0.5724370000000 1.0
C      1  0.5199500000000  0.4361880000000  0.3928270000000 1.0
C      1  0.5327450000000  0.5688690000000  0.5240530000000 1.0
C      1  0.4683800000000  0.5948740000000  0.4144130000000 1.0
C      1  0.4920370000000  0.4290720000000  0.3969650000000 1.0
C      1  0.5635630000000  0.4838130000000  0.4347050000000 1.0
C      1  0.5186610000000  0.5034520000000  0.5427070000000 1.0
C      1  0.6201980000000  0.4724210000000  0.5368510000000 1.0
C      1  0.5357890000000  0.4031180000000  0.5027020000000 1.0
C      1  0.5334080000000  0.5530130000000  0.4122020000000 1.0
C      1  0.4964490000000  0.5420740000000  0.5814820000000 1.0
C      1  0.6205530000000  0.4983030000000  0.5767140000000 1.0
C      1  0.4009530000000  0.5618620000000  0.4818500000000 1.0
C      1  0.5253840000000  0.5130770000000  0.3863960000000 1.0
C      1  0.4862080000000  0.3928310000000  0.4830050000000 1.0
C      1  0.5393540000000  0.5240310000000  0.5449000000000 1.0
C      1  0.4375800000000  0.4490170000000  0.5106330000000 1.0
C      1  0.5515670000000  0.5916730000000  0.5706460000000 1.0
C      1  0.6359940000000  0.5171560000000  0.5329160000000 1.0
C      1  0.4722490000000  0.4385060000000  0.3793260000000 1.0
C      1  0.3812840000000  0.5012290000000  0.4420270000000 1.0
C      1  0.5579780000000  0.4729510000000  0.6046930000000 1.0
C      1  0.4375190000000  0.5839140000000  0.4561740000000 1.0
C      1  0.5103400000000  0.4918850000000  0.4584540000000 1.0
C      1  0.4292990000000  0.4109160000000  0.4296990000000 1.0
C      1  0.4945240000000  0.5459690000000  0.5522880000000 1.0
C      1  0.4005830000000  0.4222600000000  0.5397310000000 1.0
C      1  0.4258330000000  0.3929590000000  0.4516010000000 1.0
C      1  0.5947280000000  0.5372320000000  0.5771970000000 1.0
C      1  0.4619480000000  0.5965660000000  0.4439300000000 1.0
C      1  0.4766500000000  0.5250230000000  0.3805210000000 1.0
C      1  0.6303620000000  0.4423180000000  0.4522820000000 1.0
C      1  0.5365170000000  0.4164330000000  0.3831070000000 1.0
C      1  0.4595640000000  0.4044370000000  0.4902860000000 1.0
C      1  0.4679470000000  0.5103950000000  0.4817140000000 1.0
C      1  0.5641180000000  0.5391200000000  0.4897480000000 1.0
C      1  0.4059490000000  0.4999800000000  0.5659790000000 1.0
C      1  0.4822140000000  0.4892400000000  0.4671090000000 1.0
C      1  0.4697860000000  0.5691530000000  0.4028310000000 1.0
C      1  0.4901700000000  0.6126880000000  0.4090200000000 1.0
C      1  0.4372100000000  0.3935800000000  0.4762610000000 1.0
C      1  0.4584740000000  0.4311430000000  0.5026170000000 1.0
C      1  0.4831550000000  0.5456910000000  0.4548920000000 1.0
C      1  0.4167200000000  0.4379540000000  0.5257280000000 1.0
C      1  0.5159770000000  0.5098900000000  0.4362230000000 1.0
C      1  0.5652010000000  0.4380290000000  0.5320720000000 1.0
C      1  0.5736000000000  0.5779440000000  0.5621430000000 1.0
C      1  0.3563930000000  0.5041600000000  0.5445630000000 1.0
C      1  0.4974600000000  0.5049470000000  0.3886050000000 1.0
C      1  0.4037010000000  0.5475460000000  0.4563790000000 1.0
C      1  0.6193680000000  0.5314950000000  0.5148240000000 1.0
C      1  0.5955190000000  0.3949410000000  0.5222560000000 1.0
C      1  0.5052190000000  0.4923720000000  0.6101610000000 1.0
C      1  0.5260270000000  0.4686340000000  0.4606760000000 1.0
C      1  0.5996450000000  0.5097020000000  0.4660590000000 1.0
C      1  0.6295130000000  0.4955440000000  0.5501480000000 1.0
C      1  0.5296640000000  0.4331620000000  0.5643330000000 1.0
C      1  0.5617690000000  0.4381980000000  0.4692640000000 1.0
C      1  0.4217750000000  0.5234960000000  0.5723170000000 1.0
C      1  0.5187970000000  0.4270750000000  0.5897710000000 1.0
C      1  0.4950820000000  0.4096150000000  0.5885530000000 1.0
C      1  0.4941430000000  0.4665590000000  0.5622180000000 1.0
C      1  0.4451640000000  0.5377730000000  0.5331210000000 1.0
C      1  0.4849540000000  0.4507800000000  0.6142920000000 1.0
C      1  0.3810080000000  0.4586110000000  0.4934800000000 1.0
C      1  0.4348940000000  0.5252580000000  0.5100680000000 1.0
C      1  0.5671240000000  0.6067160000000  0.5117740000000 1.0
C      1  0.4202510000000  0.5045890000000  0.4673050000000 1.0
C      1  0.4525840000000  0.4864260000000  0.4285230000000 1.0
C      1  0.4585930000000  0.4869300000000  0.5318360000000 1.0
C      1  0.4480590000000  0.4477500000000  0.4522500000000 1.0
C      1  0.4238100000000  0.5846340000000  0.5201260000000 1.0
C      1  0.3342470000000  0.5067580000000  0.5310590000000 1.0
C      1  0.5103550000000  0.5536940000000  0.4544370000000 1.0
C      1  0.5773620000000  0.4239780000000  0.5893770000000 1.0
C      1  0.5209500000000  0.5765480000000  0.4682190000000 1.0
C      1  0.5016840000000  0.5915210000000  0.5845090000000 1.0
C      1  0.5287340000000  0.4732560000000  0.6103730000000 1.0
C      1  0.4018230000000  0.4522310000000  0.4334730000000 1.0
C      1  0.5430590000000  0.5897710000000  0.4554580000000 1.0
C      1  0.5249960000000  0.6028800000000  0.5704320000000 1.0
C      1  0.4428360000000  0.4778510000000  0.5096100000000 1.0
C      1  0.5131200000000  0.3866070000000  0.5459400000000 1.0
C      1  0.4708640000000  0.5084280000000  0.4263340000000 1.0
C      1  0.5731250000000  0.4853500000000  0.5243580000000 1.0
C      1  0.5394100000000  0.5807230000000  0.4109520000000 1.0
C      1  0.4958870000000  0.5023310000000  0.4168660000000 1.0
C      1  0.4978610000000  0.4967400000000  0.5629500000000 1.0
C      1  0.4564560000000  0.4976860000000  0.6069260000000 1.0
C      1  0.5910760000000  0.5557550000000  0.5555480000000 1.0
C      1  0.5039210000000  0.6079920000000  0.5031980000000 1.0
C      1  0.3622170000000  0.3726920000000  0.5878450000000 1.0
C      1  0.4191610000000  0.4750630000000  0.5690810000000 1.0
C      1  0.4786060000000  0.4799560000000  0.6136390000000 1.0
C      1  0.4910520000000  0.5516950000000  0.3866540000000 1.0
C      1  0.5700260000000  0.4469080000000  0.6016260000000 1.0
C      1  0.5077660000000  0.6132060000000  0.4317710000000 1.0
C      1  0.5537460000000  0.4637910000000  0.4548580000000 1.0
C      1  0.5019100000000  0.5657140000000  0.5960820000000 1.0
C      1  0.3852320000000  0.4757700000000  0.4318610000000 1.0
C      1  0.3865790000000  0.4060750000000  0.5553490000000 1.0
END
