TITL C-627106-156-407 0.0363876076857035 125000 -1184.14781638635 0 0 190 (C1) n - 1
REM
REM in /home/nfs/bkarasulu/CARBON/AIRSS/Generating-Clusters/LCBOP/Only-C1/SD-CG/FIRE-CG
REM
REM
REM
REM
REM
REM ./C.cell (11c1c37f851c82e70ff6c80c92926a4b)
REM AIRSS Version 0.9.1 bugfix July 2018 build 013d7b7c2542+ Fri, 06 Jul 2018 19:26:36 +0100
REM compiler GCC version 9.2.1 20190827 (Red Hat 9.2.1-1)
REM options -cpp -mtune=generic -march=x86-64 -g -O0 -fpre-include=/usr/include/finclude/math-vector-fortran.h
REM seed 221145819 -1464891480 1904754580 1309882662 1584647562 464463951 123807456 -98696284 922575035 514766087 -2060222939 1401188007 1819613063 1055217602 333935433 2131063639 -120421473 836502023 1426693506 -1993604636 467237043 2112745143 957018629 205092073 965568585 620309501 -1975619929 -560227068 -1516632764 823878048 -1410441645 -1950846240 225051728
REM
CELL 1.54180   50.00000   50.00000   50.00000   90.00000   90.00000   90.00000
LATT -1
SFAC C  
C      1  0.5285940000000  0.5881310000000  0.4006370000000 1.0
C      1  0.5585570000000  0.5253440000000  0.5401230000000 1.0
C      1  0.6074360000000  0.4762890000000  0.5624740000000 1.0
C      1  0.4285820000000  0.5830420000000  0.4620410000000 1.0
C      1  0.5671480000000  0.3631960000000  0.4931700000000 1.0
C      1  0.4508690000000  0.3798550000000  0.4990240000000 1.0
C      1  0.4810170000000  0.4999670000000  0.3715610000000 1.0
C      1  0.5835840000000  0.6192330000000  0.4233410000000 1.0
C      1  0.4948610000000  0.4058480000000  0.5568100000000 1.0
C      1  0.5177760000000  0.5882730000000  0.5885730000000 1.0
C      1  0.4745250000000  0.4583230000000  0.5509540000000 1.0
C      1  0.4790370000000  0.4860230000000  0.4245800000000 1.0
C      1  0.4525410000000  0.4186530000000  0.4050070000000 1.0
C      1  0.5852400000000  0.5127900000000  0.5370810000000 1.0
C      1  0.5873330000000  0.4777420000000  0.6360700000000 1.0
C      1  0.4645920000000  0.6084940000000  0.5150980000000 1.0
C      1  0.4132160000000  0.4076420000000  0.4504730000000 1.0
C      1  0.4839470000000  0.6199620000000  0.5312450000000 1.0
C      1  0.4645200000000  0.4378790000000  0.3876450000000 1.0
C      1  0.4739150000000  0.5221090000000  0.5725480000000 1.0
C      1  0.3895240000000  0.5428390000000  0.4849660000000 1.0
C      1  0.4522060000000  0.5647140000000  0.5679400000000 1.0
C      1  0.4620270000000  0.5440940000000  0.5870950000000 1.0
C      1  0.4856640000000  0.3914140000000  0.5334970000000 1.0
C      1  0.4823810000000  0.5542250000000  0.4847840000000 1.0
C      1  0.5567720000000  0.5489510000000  0.5241560000000 1.0
C      1  0.4521580000000  0.4545460000000  0.5670240000000 1.0
C      1  0.5209880000000  0.4467230000000  0.5392570000000 1.0
C      1  0.4695040000000  0.4768080000000  0.3595330000000 1.0
C      1  0.4418690000000  0.4886320000000  0.5369940000000 1.0
C      1  0.5055850000000  0.4529220000000  0.5120950000000 1.0
C      1  0.5855750000000  0.5166260000000  0.6069490000000 1.0
C      1  0.4928440000000  0.4809280000000  0.5134090000000 1.0
C      1  0.4248260000000  0.4550390000000  0.6031630000000 1.0
C      1  0.5956630000000  0.4464310000000  0.5176340000000 1.0
C      1  0.5412290000000  0.4070160000000  0.4857710000000 1.0
C      1  0.5254170000000  0.5404180000000  0.4168350000000 1.0
C      1  0.5606820000000  0.6102970000000  0.4360310000000 1.0
C      1  0.4891940000000  0.4471530000000  0.3993280000000 1.0
C      1  0.6002970000000  0.5036680000000  0.4691640000000 1.0
C      1  0.4583310000000  0.5048840000000  0.4156480000000 1.0
C      1  0.5647970000000  0.4473720000000  0.4703070000000 1.0
C      1  0.4288390000000  0.5743690000000  0.5565420000000 1.0
C      1  0.4128650000000  0.4916460000000  0.4659700000000 1.0
C      1  0.4592620000000  0.4826640000000  0.4794000000000 1.0
C      1  0.5296650000000  0.6045270000000  0.4717140000000 1.0
C      1  0.4138610000000  0.4735410000000  0.5832530000000 1.0
C      1  0.3861430000000  0.5390970000000  0.4571600000000 1.0
C      1  0.4799160000000  0.5753790000000  0.4216410000000 1.0
C      1  0.5167390000000  0.4909180000000  0.6638570000000 1.0
C      1  0.5444770000000  0.5916520000000  0.5482870000000 1.0
C      1  0.4570190000000  0.5280070000000  0.4340530000000 1.0
C      1  0.3909460000000  0.4879010000000  0.5861450000000 1.0
C      1  0.5622290000000  0.3863440000000  0.5573500000000 1.0
C      1  0.5777970000000  0.5067240000000  0.4504530000000 1.0
C      1  0.4919770000000  0.5881260000000  0.4464720000000 1.0
C      1  0.4673290000000  0.4758310000000  0.5294180000000 1.0
C      1  0.4310870000000  0.4293630000000  0.5192300000000 1.0
C      1  0.4066800000000  0.4039830000000  0.5588970000000 1.0
C      1  0.3996710000000  0.4266010000000  0.4637700000000 1.0
C      1  0.5204660000000  0.5585680000000  0.6301050000000 1.0
C      1  0.5336030000000  0.5343550000000  0.4434710000000 1.0
C      1  0.5020870000000  0.5438380000000  0.5053300000000 1.0
C      1  0.4754170000000  0.4369410000000  0.4442790000000 1.0
C      1  0.5136380000000  0.5890490000000  0.4902510000000 1.0
C      1  0.5375070000000  0.5039130000000  0.5350230000000 1.0
C      1  0.5014300000000  0.5033580000000  0.4265780000000 1.0
C      1  0.4310170000000  0.4742830000000  0.5601270000000 1.0
C      1  0.4150650000000  0.5493890000000  0.4984740000000 1.0
C      1  0.4924490000000  0.5263880000000  0.5279760000000 1.0
C      1  0.3954420000000  0.3923930000000  0.5793630000000 1.0
C      1  0.4613900000000  0.5143030000000  0.3877270000000 1.0
C      1  0.5917800000000  0.4893650000000  0.6110870000000 1.0
C      1  0.4784590000000  0.5452930000000  0.4247450000000 1.0
C      1  0.5578710000000  0.6056660000000  0.4647190000000 1.0
C      1  0.4326800000000  0.4430590000000  0.4950460000000 1.0
C      1  0.5168960000000  0.5100420000000  0.4491590000000 1.0
C      1  0.5491560000000  0.4550450000000  0.5306470000000 1.0
C      1  0.4340290000000  0.5872110000000  0.4360190000000 1.0
C      1  0.5559880000000  0.5126910000000  0.3988640000000 1.0
C      1  0.4508880000000  0.5804890000000  0.4142320000000 1.0
C      1  0.5204960000000  0.4190110000000  0.5521240000000 1.0
C      1  0.6065000000000  0.4555710000000  0.5426860000000 1.0
C      1  0.4406960000000  0.4009200000000  0.4505980000000 1.0
C      1  0.4256130000000  0.5868200000000  0.5329530000000 1.0
C      1  0.5403610000000  0.5710110000000  0.5295190000000 1.0
C      1  0.5856200000000  0.4444550000000  0.3965080000000 1.0
C      1  0.4431300000000  0.5640330000000  0.3919520000000 1.0
C      1  0.5741480000000  0.3676250000000  0.5425840000000 1.0
C      1  0.5093620000000  0.5024380000000  0.5287920000000 1.0
C      1  0.5355190000000  0.6041230000000  0.4232920000000 1.0
C      1  0.5044600000000  0.6194850000000  0.5499140000000 1.0
C      1  0.4562320000000  0.5477480000000  0.4787630000000 1.0
C      1  0.4830960000000  0.4578310000000  0.4254310000000 1.0
C      1  0.3970860000000  0.5093580000000  0.3867210000000 1.0
C      1  0.4854680000000  0.4909750000000  0.4864000000000 1.0
C      1  0.5625130000000  0.5429550000000  0.4969040000000 1.0
C      1  0.5759890000000  0.3577810000000  0.5178200000000 1.0
C      1  0.5018120000000  0.4619320000000  0.5585770000000 1.0
C      1  0.5973670000000  0.4872760000000  0.4117230000000 1.0
C      1  0.3892080000000  0.5268530000000  0.4064400000000 1.0
C      1  0.4515860000000  0.4578740000000  0.3714560000000 1.0
C      1  0.4921580000000  0.5577910000000  0.6288190000000 1.0
C      1  0.4907690000000  0.5797440000000  0.5868620000000 1.0
C      1  0.3980170000000  0.4730270000000  0.4814450000000 1.0
C      1  0.4688080000000  0.5250790000000  0.5437060000000 1.0
C      1  0.4979490000000  0.5075080000000  0.5807660000000 1.0
C      1  0.4488900000000  0.5263460000000  0.4611710000000 1.0
C      1  0.6055890000000  0.6267820000000  0.4115990000000 1.0
C      1  0.5050080000000  0.5066210000000  0.4741880000000 1.0
C      1  0.4996910000000  0.4341870000000  0.4907300000000 1.0
C      1  0.5577670000000  0.4291110000000  0.4908960000000 1.0
C      1  0.5146830000000  0.4501770000000  0.3886660000000 1.0
C      1  0.5038840000000  0.4792130000000  0.5809160000000 1.0
C      1  0.5196910000000  0.5242630000000  0.4908040000000 1.0
C      1  0.5764320000000  0.5047400000000  0.4206200000000 1.0
C      1  0.5542290000000  0.4823280000000  0.5247080000000 1.0
C      1  0.5532200000000  0.5518820000000  0.4530760000000 1.0
C      1  0.3922520000000  0.5221460000000  0.5271620000000 1.0
C      1  0.5465970000000  0.5408290000000  0.3978360000000 1.0
C      1  0.5801270000000  0.4938700000000  0.5154750000000 1.0
C      1  0.3910630000000  0.5225380000000  0.4346190000000 1.0
C      1  0.5502190000000  0.4716850000000  0.4676710000000 1.0
C      1  0.6055480000000  0.5034030000000  0.5536510000000 1.0
C      1  0.4357050000000  0.5686380000000  0.4877880000000 1.0
C      1  0.3752220000000  0.5292990000000  0.5063620000000 1.0
C      1  0.5557020000000  0.4996620000000  0.4680390000000 1.0
C      1  0.4136970000000  0.4494710000000  0.6273480000000 1.0
C      1  0.5439720000000  0.4055600000000  0.5595920000000 1.0
C      1  0.4493590000000  0.5395500000000  0.3818180000000 1.0
C      1  0.5595500000000  0.5622970000000  0.6018820000000 1.0
C      1  0.5158230000000  0.6043640000000  0.4448530000000 1.0
C      1  0.4053970000000  0.4777430000000  0.4197740000000 1.0
C      1  0.5936060000000  0.4492120000000  0.4674050000000 1.0
C      1  0.4574000000000  0.4165140000000  0.4333310000000 1.0
C      1  0.4787790000000  0.5602130000000  0.6047640000000 1.0
C      1  0.4192500000000  0.4166260000000  0.5392840000000 1.0
C      1  0.4996570000000  0.5299830000000  0.4139570000000 1.0
C      1  0.5362610000000  0.4937550000000  0.3852000000000 1.0
C      1  0.4918580000000  0.5781000000000  0.4732840000000 1.0
C      1  0.6036380000000  0.4599390000000  0.4924270000000 1.0
C      1  0.4493490000000  0.3857320000000  0.4728490000000 1.0
C      1  0.5672510000000  0.5607840000000  0.4758770000000 1.0
C      1  0.5754240000000  0.5877120000000  0.4777560000000 1.0
C      1  0.4493920000000  0.4435010000000  0.5931340000000 1.0
C      1  0.5819820000000  0.4661530000000  0.6592860000000 1.0
C      1  0.4197960000000  0.5308820000000  0.5221320000000 1.0
C      1  0.5467750000000  0.5683340000000  0.3894460000000 1.0
C      1  0.5044310000000  0.3913680000000  0.5121380000000 1.0
C      1  0.4081180000000  0.4834450000000  0.3920810000000 1.0
C      1  0.4774410000000  0.5782610000000  0.5613310000000 1.0
C      1  0.4252670000000  0.4672570000000  0.3766400000000 1.0
C      1  0.5100000000000  0.5024020000000  0.3744260000000 1.0
C      1  0.5983310000000  0.5958820000000  0.4911310000000 1.0
C      1  0.5053150000000  0.4652030000000  0.6049760000000 1.0
C      1  0.5761030000000  0.4548160000000  0.6820130000000 1.0
C      1  0.4923900000000  0.4483010000000  0.6465710000000 1.0
C      1  0.5626090000000  0.4506040000000  0.3842600000000 1.0
C      1  0.5316300000000  0.5385360000000  0.6465810000000 1.0
C      1  0.5000690000000  0.5831150000000  0.3994190000000 1.0
C      1  0.6194070000000  0.6029220000000  0.5047430000000 1.0
C      1  0.4729410000000  0.4297530000000  0.6017250000000 1.0
C      1  0.5278910000000  0.5145080000000  0.6578960000000 1.0
C      1  0.4081760000000  0.4468140000000  0.4811660000000 1.0
C      1  0.5998000000000  0.4593310000000  0.4156800000000 1.0
C      1  0.6021240000000  0.4737030000000  0.5899380000000 1.0
C      1  0.4606220000000  0.3824270000000  0.5241380000000 1.0
C      1  0.5139240000000  0.4094220000000  0.4928800000000 1.0
C      1  0.4920680000000  0.5765630000000  0.5374710000000 1.0
C      1  0.4829900000000  0.4106420000000  0.5824460000000 1.0
C      1  0.6047030000000  0.4495710000000  0.4416870000000 1.0
C      1  0.5475170000000  0.5201900000000  0.4874890000000 1.0
C      1  0.5674910000000  0.4376560000000  0.5167330000000 1.0
C      1  0.5196970000000  0.5232430000000  0.5872160000000 1.0
C      1  0.5762040000000  0.5413170000000  0.6028010000000 1.0
C      1  0.5248240000000  0.6039620000000  0.5647840000000 1.0
C      1  0.5338420000000  0.5725560000000  0.6078570000000 1.0
C      1  0.4556480000000  0.4545460000000  0.4832790000000 1.0
C      1  0.4777070000000  0.4394500000000  0.4726560000000 1.0
C      1  0.4423530000000  0.5172430000000  0.5335460000000 1.0
C      1  0.5135100000000  0.5712570000000  0.5162550000000 1.0
C      1  0.4428540000000  0.5895640000000  0.5102150000000 1.0
C      1  0.3739830000000  0.4783160000000  0.4931340000000 1.0
C      1  0.4906560000000  0.4451960000000  0.6186400000000 1.0
C      1  0.5983600000000  0.4883770000000  0.4939780000000 1.0
C      1  0.4394890000000  0.5008270000000  0.4706540000000 1.0
C      1  0.4020240000000  0.4966210000000  0.4405650000000 1.0
C      1  0.5386120000000  0.4648870000000  0.3855780000000 1.0
C      1  0.5530000000000  0.3821010000000  0.4806300000000 1.0
C      1  0.5036020000000  0.4676630000000  0.6616470000000 1.0
END
