TITL C-627109-622-1482 6.55765354883629e-06 125000 -159.260040790278 0 0 28 (C1) n - 1
REM
REM in /home/nfs/bkarasulu/CARBON/AIRSS/Generating-Clusters/LCBOP/Only-C1/SD-CG/FIRE-CG
REM
REM
REM
REM
REM
REM ./C.cell (11c1c37f851c82e70ff6c80c92926a4b)
REM AIRSS Version 0.9.1 bugfix July 2018 build 013d7b7c2542+ Fri, 06 Jul 2018 19:26:36 +0100
REM compiler GCC version 9.2.1 20190827 (Red Hat 9.2.1-1)
REM options -cpp -mtune=generic -march=x86-64 -g -O0 -fpre-include=/usr/include/finclude/math-vector-fortran.h
REM seed 1893040169 1828172139 -1431967001 -926762769 -1379732878 -197697471 -148766157 -323467184 -118016183 909682527 1448627228 -524624474 -1801611937 2064732398 1674993423 795301056 -18341895 566983314 1055880332 -890129052 -433580189 -1373867466 1542397410 2039327024 -2001948865 1137891937 -158743464 -779215988 -2001926892 1708288888 857521878 -1691981874 -565933851
REM
CELL 1.54180   50.00000   50.00000   50.00000   90.00000   90.00000   90.00000
LATT -1
SFAC C  
C      1  0.4491730000000  0.5284750000000  0.5623230000000 1.0
C      1  0.5120250000000  0.4785710000000  0.4673380000000 1.0
C      1  0.4654640000000  0.4851540000000  0.4939000000000 1.0
C      1  0.5802130000000  0.5056900000000  0.4009070000000 1.0
C      1  0.5119270000000  0.5395670000000  0.5227010000000 1.0
C      1  0.5643470000000  0.5031970000000  0.4219920000000 1.0
C      1  0.4681890000000  0.5143820000000  0.4860830000000 1.0
C      1  0.5270300000000  0.4714760000000  0.5388390000000 1.0
C      1  0.4721870000000  0.5242820000000  0.5474150000000 1.0
C      1  0.5320080000000  0.4983590000000  0.4653070000000 1.0
C      1  0.4175160000000  0.4647390000000  0.4742020000000 1.0
C      1  0.5470530000000  0.4777010000000  0.5206850000000 1.0
C      1  0.5269060000000  0.5172380000000  0.5334470000000 1.0
C      1  0.4399260000000  0.4742500000000  0.4834640000000 1.0
C      1  0.4544870000000  0.4585120000000  0.5351050000000 1.0
C      1  0.4875720000000  0.5325480000000  0.4816980000000 1.0
C      1  0.5340700000000  0.5157910000000  0.4876210000000 1.0
C      1  0.4271830000000  0.5315250000000  0.5759710000000 1.0
C      1  0.5451110000000  0.5053160000000  0.5123880000000 1.0
C      1  0.4882030000000  0.5452780000000  0.5368210000000 1.0
C      1  0.4890810000000  0.4724730000000  0.4796740000000 1.0
C      1  0.5958190000000  0.5081420000000  0.3801680000000 1.0
C      1  0.4823950000000  0.4980970000000  0.5410950000000 1.0
C      1  0.4674410000000  0.4807930000000  0.5239850000000 1.0
C      1  0.5485060000000  0.5007220000000  0.4430760000000 1.0
C      1  0.4426680000000  0.4378280000000  0.5456670000000 1.0
C      1  0.5129130000000  0.5352380000000  0.4937870000000 1.0
C      1  0.5105860000000  0.4946550000000  0.5443430000000 1.0
END
