TITL C-627113-6568-272 0.000204863357971402 125000 -93.853508838754 0 0 17 (Cs) n - 1
REM
REM in /home/nfs/bkarasulu/CARBON/AIRSS/Generating-Clusters/LCBOP/Only-C1/SD-CG/FIRE-CG
REM
REM
REM
REM
REM
REM ./C.cell (11c1c37f851c82e70ff6c80c92926a4b)
REM AIRSS Version 0.9.1 bugfix July 2018 build 013d7b7c2542+ Fri, 06 Jul 2018 19:26:36 +0100
REM compiler GCC version 9.2.1 20190827 (Red Hat 9.2.1-1)
REM options -cpp -mtune=generic -march=x86-64 -g -O0 -fpre-include=/usr/include/finclude/math-vector-fortran.h
REM seed 1636836771 2034243350 -1829588621 -391334648 -1687383937 -84003374 174245256 1060389265 -1626409422 -20938639 -673429904 254397116 -243342566 -1087264569 -846934979 1157494270 -68151002 920338053 -1810738379 659823086 410091441 -149228940 911504455 -2049030953 1403474714 -1912542402 -489226133 -108139893 532543616 1221177356 1973424533 797567488 -1515394458
REM
CELL 1.54180   50.00000   50.00000   50.00000   90.00000   90.00000   90.00000
LATT -1
SFAC C  
C      1  0.5923560000000  0.4970120000000  0.4860890000000 1.0
C      1  0.4945620000000  0.5035190000000  0.5120000000000 1.0
C      1  0.4553440000000  0.5233050000000  0.5798300000000 1.0
C      1  0.4936370000000  0.4892610000000  0.4643560000000 1.0
C      1  0.4256880000000  0.4960150000000  0.4898250000000 1.0
C      1  0.5381690000000  0.4966690000000  0.4872420000000 1.0
C      1  0.4420690000000  0.5295780000000  0.6013720000000 1.0
C      1  0.5658680000000  0.4968440000000  0.4866530000000 1.0
C      1  0.4819300000000  0.5104820000000  0.5358200000000 1.0
C      1  0.5227620000000  0.5032590000000  0.5099350000000 1.0
C      1  0.4669850000000  0.4755260000000  0.4195520000000 1.0
C      1  0.5218950000000  0.4898790000000  0.4652250000000 1.0
C      1  0.4801020000000  0.4821300000000  0.4410820000000 1.0
C      1  0.4796670000000  0.4962990000000  0.4884850000000 1.0
C      1  0.6184200000000  0.4971760000000  0.4855340000000 1.0
C      1  0.4688090000000  0.5169210000000  0.5579100000000 1.0
C      1  0.4517380000000  0.4961250000000  0.4890880000000 1.0
END
