TITL C-627110-360-583 1.03139591571174e-08 125000 -343.983984265176 0 0 59 (C1) n - 1
REM
REM in /home/nfs/bkarasulu/CARBON/AIRSS/Generating-Clusters/LCBOP/Only-C1/SD-CG/FIRE-CG
REM
REM
REM
REM
REM
REM ./C.cell (11c1c37f851c82e70ff6c80c92926a4b)
REM AIRSS Version 0.9.1 bugfix July 2018 build 013d7b7c2542+ Fri, 06 Jul 2018 19:26:36 +0100
REM compiler GCC version 9.2.1 20190827 (Red Hat 9.2.1-1)
REM options -cpp -mtune=generic -march=x86-64 -g -O0 -fpre-include=/usr/include/finclude/math-vector-fortran.h
REM seed 1524985258 -309272650 -1799245059 -1077934049 -1280543072 921137434 -716865842 -580489128 -137235459 668611396 -1445562280 1353456993 1403930555 -1509185182 -1628707602 2115092777 251552735 -739243240 -2110704682 -1302606963 -883741323 -465089594 1062834707 904158147 1505009996 476734462 -415266615 978155738 1252523687 1590850751 -1032542860 -954812088 1180482632
REM
CELL 1.54180   50.00000   50.00000   50.00000   90.00000   90.00000   90.00000
LATT -1
SFAC C  
C      1  0.6015660000000  0.4854230000000  0.5367780000000 1.0
C      1  0.5316170000000  0.4793700000000  0.5538750000000 1.0
C      1  0.5024240000000  0.4300130000000  0.4470640000000 1.0
C      1  0.5259800000000  0.4369950000000  0.4343020000000 1.0
C      1  0.4082130000000  0.4869470000000  0.4578010000000 1.0
C      1  0.4732260000000  0.5451890000000  0.4560190000000 1.0
C      1  0.5189450000000  0.5257450000000  0.4876200000000 1.0
C      1  0.4964240000000  0.5326140000000  0.5606610000000 1.0
C      1  0.5056740000000  0.5199290000000  0.5124520000000 1.0
C      1  0.5505800000000  0.4993090000000  0.5477500000000 1.0
C      1  0.4350960000000  0.5246810000000  0.4742960000000 1.0
C      1  0.4692360000000  0.4439470000000  0.5352700000000 1.0
C      1  0.5248780000000  0.5533580000000  0.4831890000000 1.0
C      1  0.4185990000000  0.5024610000000  0.4804310000000 1.0
C      1  0.5885250000000  0.5026260000000  0.4459950000000 1.0
C      1  0.4286270000000  0.4809090000000  0.4978140000000 1.0
C      1  0.4669820000000  0.5612220000000  0.4795840000000 1.0
C      1  0.5232960000000  0.5071320000000  0.4673890000000 1.0
C      1  0.4916110000000  0.4501020000000  0.5512780000000 1.0
C      1  0.5062570000000  0.4711480000000  0.5628380000000 1.0
C      1  0.4466940000000  0.4609610000000  0.5383480000000 1.0
C      1  0.4417900000000  0.5492320000000  0.4883180000000 1.0
C      1  0.5070570000000  0.4246430000000  0.4749080000000 1.0
C      1  0.4840970000000  0.5018670000000  0.5119990000000 1.0
C      1  0.4709650000000  0.4304640000000  0.5098430000000 1.0
C      1  0.4488960000000  0.4739940000000  0.4367180000000 1.0
C      1  0.5142440000000  0.5351090000000  0.5370230000000 1.0
C      1  0.5422760000000  0.4188570000000  0.5046490000000 1.0
C      1  0.4843990000000  0.5790410000000  0.4930770000000 1.0
C      1  0.5182430000000  0.5651830000000  0.5282450000000 1.0
C      1  0.5374650000000  0.4272630000000  0.4775900000000 1.0
C      1  0.4591380000000  0.4990960000000  0.4375010000000 1.0
C      1  0.5709080000000  0.4535580000000  0.4497110000000 1.0
C      1  0.5843590000000  0.4763640000000  0.4470780000000 1.0
C      1  0.4740430000000  0.5271800000000  0.6033180000000 1.0
C      1  0.5771010000000  0.4920250000000  0.5428620000000 1.0
C      1  0.5231810000000  0.4957760000000  0.4439290000000 1.0
C      1  0.4502730000000  0.4362630000000  0.4911850000000 1.0
C      1  0.4345740000000  0.4571920000000  0.4810920000000 1.0
C      1  0.5428870000000  0.5264940000000  0.5458370000000 1.0
C      1  0.4873670000000  0.5166730000000  0.5819860000000 1.0
C      1  0.5681650000000  0.5496200000000  0.4549620000000 1.0
C      1  0.4764360000000  0.6052620000000  0.4983230000000 1.0
C      1  0.4559220000000  0.5222950000000  0.4529890000000 1.0
C      1  0.4278110000000  0.4652630000000  0.4535550000000 1.0
C      1  0.5434410000000  0.5729520000000  0.5401660000000 1.0
C      1  0.4954800000000  0.4198320000000  0.5010980000000 1.0
C      1  0.4591320000000  0.5057790000000  0.5252540000000 1.0
C      1  0.4689860000000  0.6296700000000  0.5036060000000 1.0
C      1  0.4509880000000  0.5287220000000  0.5375740000000 1.0
C      1  0.4874110000000  0.4799130000000  0.4958370000000 1.0
C      1  0.5576970000000  0.5510870000000  0.5490470000000 1.0
C      1  0.5829910000000  0.5285810000000  0.4480810000000 1.0
C      1  0.5103310000000  0.5701280000000  0.5011810000000 1.0
C      1  0.5184700000000  0.4137030000000  0.5178310000000 1.0
C      1  0.4930240000000  0.4892190000000  0.5799200000000 1.0
C      1  0.5467110000000  0.5598350000000  0.4671110000000 1.0
C      1  0.5482590000000  0.4379110000000  0.4529500000000 1.0
C      1  0.4410280000000  0.4838710000000  0.5228930000000 1.0
END
