TITL C-627106-156-1755 2.66417654464298e-05 125000 -461.597109488544 0 0 77 (C1) n - 1
REM
REM in /home/nfs/bkarasulu/CARBON/AIRSS/Generating-Clusters/LCBOP/Only-C1/SD-CG/FIRE-CG
REM
REM
REM
REM
REM
REM ./C.cell (11c1c37f851c82e70ff6c80c92926a4b)
REM AIRSS Version 0.9.1 bugfix July 2018 build 013d7b7c2542+ Fri, 06 Jul 2018 19:26:36 +0100
REM compiler GCC version 9.2.1 20190827 (Red Hat 9.2.1-1)
REM options -cpp -mtune=generic -march=x86-64 -g -O0 -fpre-include=/usr/include/finclude/math-vector-fortran.h
REM seed -289772839 135496635 -416503174 1675697998 874368482 -18848710 -1432577929 -1602172460 1448319477 -905565246 -1951953109 -1381180199 1561617157 -146841439 118883839 1391525998 521426690 956679802 2081456869 1395079500 612560538 1614450748 1633681832 -1753905979 -1239960076 -1713817572 -1620517954 1119042581 591500282 276723594 588997589 656433664 2098175273
REM
CELL 1.54180   50.00000   50.00000   50.00000   90.00000   90.00000   90.00000
LATT -1
SFAC C  
C      1  0.5965810000000  0.5624180000000  0.4720160000000 1.0
C      1  0.5112320000000  0.4667100000000  0.5025170000000 1.0
C      1  0.5829870000000  0.4578860000000  0.5035860000000 1.0
C      1  0.5112810000000  0.5285290000000  0.4297270000000 1.0
C      1  0.4117290000000  0.4466640000000  0.5510990000000 1.0
C      1  0.4926910000000  0.5970220000000  0.4832970000000 1.0
C      1  0.4273170000000  0.4646020000000  0.5404000000000 1.0
C      1  0.4512510000000  0.5074950000000  0.5420500000000 1.0
C      1  0.5986610000000  0.5589990000000  0.3985980000000 1.0
C      1  0.4356200000000  0.4485340000000  0.4360180000000 1.0
C      1  0.5367250000000  0.5167770000000  0.4266710000000 1.0
C      1  0.4694000000000  0.5801290000000  0.4850950000000 1.0
C      1  0.5114660000000  0.5921450000000  0.5048450000000 1.0
C      1  0.5120450000000  0.4729600000000  0.4246900000000 1.0
C      1  0.4327680000000  0.5525540000000  0.4732120000000 1.0
C      1  0.4965560000000  0.4900700000000  0.5054890000000 1.0
C      1  0.5902570000000  0.4659070000000  0.4774170000000 1.0
C      1  0.5372010000000  0.4878900000000  0.4276060000000 1.0
C      1  0.4353900000000  0.5283270000000  0.4844230000000 1.0
C      1  0.5284480000000  0.5351750000000  0.4931460000000 1.0
C      1  0.5308080000000  0.4673480000000  0.4816590000000 1.0
C      1  0.4474560000000  0.4717270000000  0.4494950000000 1.0
C      1  0.5592680000000  0.5317570000000  0.4202220000000 1.0
C      1  0.6214860000000  0.5591240000000  0.4650780000000 1.0
C      1  0.5656120000000  0.4979640000000  0.5337290000000 1.0
C      1  0.4706360000000  0.4938170000000  0.6075880000000 1.0
C      1  0.5190550000000  0.4302970000000  0.4531360000000 1.0
C      1  0.5706100000000  0.5652390000000  0.4814910000000 1.0
C      1  0.5793990000000  0.5454890000000  0.4098240000000 1.0
C      1  0.5110170000000  0.4454570000000  0.4311440000000 1.0
C      1  0.4703700000000  0.5700090000000  0.5129520000000 1.0
C      1  0.5084380000000  0.5492910000000  0.5350390000000 1.0
C      1  0.4993160000000  0.5402430000000  0.4531900000000 1.0
C      1  0.5398470000000  0.4429830000000  0.4694990000000 1.0
C      1  0.4458580000000  0.4851230000000  0.4994630000000 1.0
C      1  0.5384820000000  0.5982720000000  0.5035130000000 1.0
C      1  0.5181920000000  0.4185620000000  0.4999870000000 1.0
C      1  0.4973840000000  0.5324100000000  0.5805990000000 1.0
C      1  0.4619230000000  0.4692490000000  0.6123800000000 1.0
C      1  0.5059340000000  0.4406260000000  0.5142370000000 1.0
C      1  0.4279100000000  0.4410380000000  0.4799240000000 1.0
C      1  0.4580460000000  0.4419310000000  0.6078880000000 1.0
C      1  0.4569780000000  0.5644850000000  0.4649800000000 1.0
C      1  0.4627250000000  0.4905460000000  0.4358510000000 1.0
C      1  0.4983840000000  0.5725740000000  0.5219160000000 1.0
C      1  0.4849040000000  0.5118010000000  0.4914140000000 1.0
C      1  0.5814940000000  0.4717480000000  0.4527740000000 1.0
C      1  0.4682990000000  0.4309560000000  0.5843090000000 1.0
C      1  0.4525500000000  0.5557910000000  0.5299160000000 1.0
C      1  0.4914380000000  0.5154940000000  0.4144480000000 1.0
C      1  0.4715420000000  0.5467120000000  0.4478800000000 1.0
C      1  0.5474630000000  0.5174990000000  0.5341840000000 1.0
C      1  0.5041290000000  0.5297690000000  0.4792540000000 1.0
C      1  0.4246150000000  0.4308990000000  0.4543790000000 1.0
C      1  0.4902850000000  0.5368350000000  0.5535480000000 1.0
C      1  0.5791850000000  0.4774800000000  0.5233500000000 1.0
C      1  0.5618490000000  0.4764020000000  0.4351850000000 1.0
C      1  0.4311190000000  0.4111290000000  0.6436890000000 1.0
C      1  0.5461500000000  0.4254350000000  0.4925730000000 1.0
C      1  0.4181380000000  0.3963550000000  0.6608020000000 1.0
C      1  0.4560800000000  0.5102660000000  0.4903760000000 1.0
C      1  0.4270460000000  0.5643170000000  0.5347130000000 1.0
C      1  0.4879880000000  0.4877450000000  0.4209550000000 1.0
C      1  0.4910660000000  0.4365550000000  0.5373220000000 1.0
C      1  0.4604180000000  0.5258120000000  0.4324210000000 1.0
C      1  0.5518610000000  0.5442980000000  0.4806930000000 1.0
C      1  0.5696700000000  0.4327970000000  0.5059510000000 1.0
C      1  0.4415160000000  0.4848700000000  0.5277150000000 1.0
C      1  0.5184790000000  0.5458640000000  0.5917410000000 1.0
C      1  0.4635920000000  0.5328780000000  0.5435320000000 1.0
C      1  0.4825980000000  0.5145160000000  0.5961810000000 1.0
C      1  0.4796580000000  0.4302500000000  0.5603750000000 1.0
C      1  0.4443080000000  0.4261440000000  0.6262950000000 1.0
C      1  0.5286170000000  0.5341710000000  0.5218790000000 1.0
C      1  0.4413960000000  0.4667010000000  0.4787740000000 1.0
C      1  0.5614440000000  0.5889240000000  0.4935420000000 1.0
C      1  0.5063630000000  0.4132280000000  0.4731460000000 1.0
END
