TITL C-627113-6568-1927 0.0160977010344463 125000 -276.474690071051 0 0 47 (C1) n - 1
REM
REM in /home/nfs/bkarasulu/CARBON/AIRSS/Generating-Clusters/LCBOP/Only-C1/SD-CG/FIRE-CG
REM
REM
REM
REM
REM
REM ./C.cell (11c1c37f851c82e70ff6c80c92926a4b)
REM AIRSS Version 0.9.1 bugfix July 2018 build 013d7b7c2542+ Fri, 06 Jul 2018 19:26:36 +0100
REM compiler GCC version 9.2.1 20190827 (Red Hat 9.2.1-1)
REM options -cpp -mtune=generic -march=x86-64 -g -O0 -fpre-include=/usr/include/finclude/math-vector-fortran.h
REM seed -1757468902 189475073 -18021253 -1686292583 -975394083 277065201 2117331510 -2122454510 -826365501 -790440058 -2005294581 834077780 -517814224 1110395077 -999689326 1565643867 1864263594 1527482082 -1606214279 -701418748 1721758964 1355447978 1351815723 -2096970825 -849432438 -1043948095 -186015698 2061429991 -330004951 970406070 953331996 -322340366 -1116295429
REM
CELL 1.54180   50.00000   50.00000   50.00000   90.00000   90.00000   90.00000
LATT -1
SFAC C  
C      1  0.4895270000000  0.4733500000000  0.4183770000000 1.0
C      1  0.5634150000000  0.4934910000000  0.4512520000000 1.0
C      1  0.5666350000000  0.4606360000000  0.5182870000000 1.0
C      1  0.4576330000000  0.5549300000000  0.5057870000000 1.0
C      1  0.4056640000000  0.3835420000000  0.4015580000000 1.0
C      1  0.5734020000000  0.4639160000000  0.4927720000000 1.0
C      1  0.5253260000000  0.5780460000000  0.5476690000000 1.0
C      1  0.5064220000000  0.4863700000000  0.4929680000000 1.0
C      1  0.4625750000000  0.4333560000000  0.4245920000000 1.0
C      1  0.4963860000000  0.4461360000000  0.4578510000000 1.0
C      1  0.4623440000000  0.5381210000000  0.4821680000000 1.0
C      1  0.4827720000000  0.5695340000000  0.5078200000000 1.0
C      1  0.4906630000000  0.5083310000000  0.5748060000000 1.0
C      1  0.5036570000000  0.5306690000000  0.4527240000000 1.0
C      1  0.4610990000000  0.5404110000000  0.5543220000000 1.0
C      1  0.5216590000000  0.5425710000000  0.5758620000000 1.0
C      1  0.5730700000000  0.4767350000000  0.4694870000000 1.0
C      1  0.4909600000000  0.5386040000000  0.4760280000000 1.0
C      1  0.5659800000000  0.4962420000000  0.5500960000000 1.0
C      1  0.4794070000000  0.5609420000000  0.5640720000000 1.0
C      1  0.5075640000000  0.5660860000000  0.5669100000000 1.0
C      1  0.5397300000000  0.5594390000000  0.5310180000000 1.0
C      1  0.5145050000000  0.5179870000000  0.5323620000000 1.0
C      1  0.5032160000000  0.4207490000000  0.4654660000000 1.0
C      1  0.4826360000000  0.4506600000000  0.4332630000000 1.0
C      1  0.5043140000000  0.5526820000000  0.4978750000000 1.0
C      1  0.4375630000000  0.4789530000000  0.5381070000000 1.0
C      1  0.5139040000000  0.5189070000000  0.5622770000000 1.0
C      1  0.5714020000000  0.5222880000000  0.5465630000000 1.0
C      1  0.5032880000000  0.4680460000000  0.4739630000000 1.0
C      1  0.5042640000000  0.4599740000000  0.5493850000000 1.0
C      1  0.4659690000000  0.5125490000000  0.5611090000000 1.0
C      1  0.4435030000000  0.4166990000000  0.4168240000000 1.0
C      1  0.5443330000000  0.5077890000000  0.4394870000000 1.0
C      1  0.4618710000000  0.4892290000000  0.5446720000000 1.0
C      1  0.4871050000000  0.4782430000000  0.5360550000000 1.0
C      1  0.4272670000000  0.5074030000000  0.4556210000000 1.0
C      1  0.5216820000000  0.5417390000000  0.5172610000000 1.0
C      1  0.5639360000000  0.5469970000000  0.5387970000000 1.0
C      1  0.4470390000000  0.5466840000000  0.5304530000000 1.0
C      1  0.5023970000000  0.4956780000000  0.5189510000000 1.0
C      1  0.5023090000000  0.4966950000000  0.4186400000000 1.0
C      1  0.4244270000000  0.3999830000000  0.4091280000000 1.0
C      1  0.5172430000000  0.5135420000000  0.4353120000000 1.0
C      1  0.4431910000000  0.5234340000000  0.4686040000000 1.0
C      1  0.5312760000000  0.4603130000000  0.5516260000000 1.0
C      1  0.5554700000000  0.4713180000000  0.5417720000000 1.0
END
