TITL C-627108-131-1857 3879.17040181799 125000 -892.060749072131 0 0 148 (C1) n - 1
REM
REM in /home/nfs/bkarasulu/CARBON/AIRSS/Generating-Clusters/LCBOP/Only-C1/SD-CG/FIRE-CG
REM
REM
REM
REM
REM
REM ./C.cell (11c1c37f851c82e70ff6c80c92926a4b)
REM AIRSS Version 0.9.1 bugfix July 2018 build 013d7b7c2542+ Fri, 06 Jul 2018 19:26:36 +0100
REM compiler GCC version 9.2.1 20190827 (Red Hat 9.2.1-1)
REM options -cpp -mtune=generic -march=x86-64 -g -O0 -fpre-include=/usr/include/finclude/math-vector-fortran.h
REM seed 1740575669 -1833401671 1700390983 -575383834 -1762469918 1758043187 703855783 -1509096574 -1394022537 2130367385 -1494228098 -447316074 -42290662 2100534666 -181818747 1782560943 -1737043521 1228009597 -418449302 557630717 -1536563729 1035222784 201180315 -1204958901 -914076413 1576145868 469144273 979499246 153638031 601340836 1094957028 -566888243 333190086
REM
CELL 1.54180   50.00000   50.00000   50.00000   90.00000   90.00000   90.00000
LATT -1
SFAC C  
C      1  0.5443300000000  0.4705940000000  0.4694100000000 1.0
C      1  0.5779990000000  0.5172520000000  0.5324460000000 1.0
C      1  0.4908170000000  0.5360180000000  0.5541140000000 1.0
C      1  0.5006290000000  0.5160290000000  0.4929940000000 1.0
C      1  0.5858860000000  0.4763630000000  0.5108980000000 1.0
C      1  0.5467630000000  0.5974450000000  0.5208400000000 1.0
C      1  0.5385890000000  0.4426050000000  0.4253300000000 1.0
C      1  0.4398840000000  0.5980460000000  0.4428590000000 1.0
C      1  0.4671200000000  0.5387910000000  0.4421220000000 1.0
C      1  0.5282160000000  0.4623820000000  0.5995550000000 1.0
C      1  0.4058570000000  0.4740240000000  0.5290620000000 1.0
C      1  0.4191740000000  0.4857080000000  0.4100530000000 1.0
C      1  0.5152020000000  0.4422860000000  0.4070750000000 1.0
C      1  0.5321280000000  0.5616610000000  0.5781220000000 1.0
C      1  0.5081660000000  0.5619460000000  0.4765700000000 1.0
C      1  0.4685160000000  0.5429930000000  0.4702300000000 1.0
C      1  0.4389870000000  0.5744910000000  0.4261000000000 1.0
C      1  0.4294950000000  0.5658930000000  0.4760110000000 1.0
C      1  0.4278840000000  0.3696420000000  0.5592330000000 1.0
C      1  0.4811650000000  0.4409610000000  0.5566110000000 1.0
C      1  0.6034530000000  0.4611520000000  0.5634660000000 1.0
C      1  0.4706720000000  0.5807890000000  0.5660220000000 1.0
C      1  0.4498680000000  0.4620090000000  0.5963530000000 1.0
C      1  0.5316540000000  0.5319110000000  0.5815610000000 1.0
C      1  0.4657850000000  0.5623100000000  0.4260880000000 1.0
C      1  0.6375870000000  0.5384970000000  0.5319860000000 1.0
C      1  0.4168300000000  0.4829810000000  0.5559950000000 1.0
C      1  0.5146180000000  0.5851030000000  0.5787760000000 1.0
C      1  0.4432500000000  0.4761690000000  0.3989500000000 1.0
C      1  0.4652120000000  0.4006080000000  0.4489740000000 1.0
C      1  0.4148670000000  0.5452280000000  0.5138730000000 1.0
C      1  0.4056280000000  0.5559790000000  0.4621470000000 1.0
C      1  0.5258160000000  0.4598590000000  0.5137080000000 1.0
C      1  0.5548810000000  0.5757430000000  0.4474290000000 1.0
C      1  0.4989920000000  0.4630150000000  0.3958500000000 1.0
C      1  0.5091000000000  0.4249670000000  0.4619740000000 1.0
C      1  0.4159170000000  0.4676490000000  0.4676350000000 1.0
C      1  0.5644330000000  0.4887110000000  0.5318250000000 1.0
C      1  0.4162500000000  0.4473880000000  0.5162250000000 1.0
C      1  0.6218540000000  0.5323730000000  0.5530250000000 1.0
C      1  0.5518460000000  0.5116470000000  0.5774020000000 1.0
C      1  0.4955290000000  0.5141980000000  0.6045610000000 1.0
C      1  0.4421370000000  0.5670490000000  0.5188720000000 1.0
C      1  0.5473660000000  0.4019240000000  0.4657820000000 1.0
C      1  0.5083300000000  0.4952380000000  0.4494740000000 1.0
C      1  0.5946900000000  0.5791530000000  0.5055070000000 1.0
C      1  0.4736080000000  0.4245630000000  0.5795170000000 1.0
C      1  0.5654190000000  0.5332530000000  0.5105600000000 1.0
C      1  0.5466740000000  0.4171920000000  0.5440840000000 1.0
C      1  0.3963690000000  0.5373230000000  0.4824310000000 1.0
C      1  0.5008220000000  0.5100500000000  0.4046770000000 1.0
C      1  0.4551350000000  0.4223610000000  0.4361030000000 1.0
C      1  0.5239330000000  0.5092830000000  0.5101900000000 1.0
C      1  0.5369200000000  0.5328830000000  0.5170530000000 1.0
C      1  0.5157740000000  0.5165010000000  0.4659510000000 1.0
C      1  0.4935130000000  0.5822390000000  0.4618930000000 1.0
C      1  0.5451470000000  0.5213850000000  0.4052780000000 1.0
C      1  0.6126640000000  0.5601990000000  0.4984730000000 1.0
C      1  0.5114180000000  0.5017690000000  0.6230300000000 1.0
C      1  0.4460370000000  0.4980540000000  0.4509480000000 1.0
C      1  0.4608400000000  0.4001430000000  0.5778590000000 1.0
C      1  0.5929740000000  0.4933040000000  0.4613990000000 1.0
C      1  0.4738640000000  0.4535800000000  0.5124070000000 1.0
C      1  0.4697150000000  0.5529560000000  0.5677990000000 1.0
C      1  0.5557340000000  0.4863170000000  0.5637110000000 1.0
C      1  0.5198530000000  0.6050390000000  0.5145540000000 1.0
C      1  0.3976670000000  0.4228490000000  0.5658520000000 1.0
C      1  0.4158280000000  0.5121890000000  0.5547030000000 1.0
C      1  0.5579870000000  0.4485340000000  0.4814430000000 1.0
C      1  0.4713070000000  0.4535870000000  0.4669060000000 1.0
C      1  0.5510420000000  0.6024480000000  0.4551270000000 1.0
C      1  0.4549510000000  0.4492290000000  0.4445050000000 1.0
C      1  0.5583100000000  0.4368870000000  0.5627440000000 1.0
C      1  0.3992930000000  0.4986300000000  0.5119390000000 1.0
C      1  0.5149730000000  0.4869690000000  0.3941980000000 1.0
C      1  0.5793800000000  0.4784170000000  0.4393370000000 1.0
C      1  0.5163130000000  0.5612600000000  0.4181420000000 1.0
C      1  0.5527250000000  0.4953370000000  0.4765600000000 1.0
C      1  0.4431620000000  0.5406280000000  0.4805600000000 1.0
C      1  0.4924770000000  0.5745890000000  0.4320520000000 1.0
C      1  0.5350450000000  0.6190770000000  0.4688040000000 1.0
C      1  0.5411020000000  0.4140090000000  0.5151480000000 1.0
C      1  0.5432100000000  0.4912450000000  0.4046220000000 1.0
C      1  0.6062370000000  0.4878100000000  0.5613980000000 1.0
C      1  0.4897560000000  0.5014110000000  0.4291530000000 1.0
C      1  0.3928990000000  0.5079320000000  0.4840900000000 1.0
C      1  0.5533260000000  0.5542130000000  0.4663690000000 1.0
C      1  0.4709490000000  0.5913910000000  0.4807470000000 1.0
C      1  0.4367350000000  0.5134210000000  0.4736440000000 1.0
C      1  0.4632550000000  0.4430720000000  0.5356480000000 1.0
C      1  0.4354090000000  0.4370790000000  0.5380910000000 1.0
C      1  0.4271220000000  0.4003120000000  0.4988070000000 1.0
C      1  0.4762850000000  0.5189760000000  0.5344620000000 1.0
C      1  0.4788800000000  0.5061240000000  0.5107480000000 1.0
C      1  0.5465340000000  0.4606550000000  0.5759750000000 1.0
C      1  0.4651940000000  0.5117260000000  0.4358660000000 1.0
C      1  0.5000810000000  0.4511370000000  0.4716040000000 1.0
C      1  0.5872850000000  0.5218220000000  0.4635830000000 1.0
C      1  0.4964450000000  0.4640030000000  0.5656860000000 1.0
C      1  0.5868610000000  0.4398520000000  0.5625320000000 1.0
C      1  0.4479010000000  0.5412350000000  0.5806320000000 1.0
C      1  0.5023070000000  0.4911750000000  0.5621820000000 1.0
C      1  0.6214140000000  0.5094930000000  0.4971260000000 1.0
C      1  0.4950630000000  0.5923520000000  0.5573610000000 1.0
C      1  0.5177570000000  0.4708320000000  0.4592740000000 1.0
C      1  0.6029530000000  0.4881520000000  0.4893980000000 1.0
C      1  0.6267490000000  0.5364940000000  0.5058470000000 1.0
C      1  0.5025770000000  0.4024740000000  0.4802480000000 1.0
C      1  0.5451160000000  0.4408000000000  0.5052670000000 1.0
C      1  0.5722210000000  0.5907400000000  0.5148670000000 1.0
C      1  0.4084890000000  0.4194580000000  0.5050060000000 1.0
C      1  0.4255900000000  0.5279720000000  0.5752210000000 1.0
C      1  0.5225890000000  0.5477070000000  0.5353050000000 1.0
C      1  0.4367000000000  0.4708910000000  0.4472610000000 1.0
C      1  0.4285450000000  0.4586270000000  0.4913720000000 1.0
C      1  0.4706110000000  0.5857920000000  0.5107220000000 1.0
C      1  0.4313020000000  0.4712820000000  0.5782150000000 1.0
C      1  0.5348170000000  0.4223510000000  0.4477670000000 1.0
C      1  0.5457720000000  0.5667680000000  0.4218330000000 1.0
C      1  0.5718610000000  0.5384600000000  0.4813460000000 1.0
C      1  0.5299820000000  0.4819400000000  0.6202130000000 1.0
C      1  0.5273880000000  0.5435040000000  0.4662660000000 1.0
C      1  0.5394860000000  0.5628540000000  0.5507960000000 1.0
C      1  0.4440880000000  0.5902330000000  0.4698460000000 1.0
C      1  0.4527930000000  0.3928750000000  0.4940100000000 1.0
C      1  0.5170330000000  0.5335120000000  0.4061570000000 1.0
C      1  0.4737830000000  0.4454220000000  0.6001050000000 1.0
C      1  0.4746350000000  0.3949020000000  0.4758150000000 1.0
C      1  0.4010030000000  0.4924860000000  0.4308410000000 1.0
C      1  0.5307630000000  0.3979060000000  0.4918890000000 1.0
C      1  0.5005410000000  0.4568600000000  0.5942240000000 1.0
C      1  0.5610740000000  0.5448350000000  0.4100580000000 1.0
C      1  0.3972310000000  0.4895610000000  0.4611340000000 1.0
C      1  0.4566110000000  0.4571770000000  0.4908420000000 1.0
C      1  0.4895050000000  0.5438850000000  0.4887280000000 1.0
C      1  0.4953190000000  0.5953510000000  0.5277290000000 1.0
C      1  0.6006460000000  0.5139960000000  0.5512390000000 1.0
C      1  0.5040720000000  0.5191170000000  0.5757850000000 1.0
C      1  0.5360940000000  0.4855670000000  0.5194430000000 1.0
C      1  0.5817050000000  0.4376690000000  0.4733770000000 1.0
C      1  0.4093080000000  0.5215470000000  0.5285170000000 1.0
C      1  0.5192710000000  0.6203280000000  0.4906390000000 1.0
C      1  0.4140130000000  0.5594140000000  0.4337840000000 1.0
C      1  0.4693220000000  0.4666330000000  0.3949310000000 1.0
C      1  0.4368720000000  0.3948420000000  0.5643220000000 1.0
C      1  0.5557930000000  0.4696180000000  0.4223530000000 1.0
C      1  0.5006000000000  0.4546200000000  0.5025090000000 1.0
C      1  0.4229290000000  0.4182960000000  0.5561480000000 1.0
END
