TITL C-627110-360-412 -1.73197914704924e-07 125000 -413.098584358617 0 0 68 (C1) n - 1
REM
REM in /home/nfs/bkarasulu/CARBON/AIRSS/Generating-Clusters/LCBOP/Only-C1/SD-CG/FIRE-CG
REM
REM
REM
REM
REM
REM ./C.cell (11c1c37f851c82e70ff6c80c92926a4b)
REM AIRSS Version 0.9.1 bugfix July 2018 build 013d7b7c2542+ Fri, 06 Jul 2018 19:26:36 +0100
REM compiler GCC version 9.2.1 20190827 (Red Hat 9.2.1-1)
REM options -cpp -mtune=generic -march=x86-64 -g -O0 -fpre-include=/usr/include/finclude/math-vector-fortran.h
REM seed 431432349 -1413167007 502041261 -1853119756 -1279617048 172542348 1960035722 1999169054 -178569843 966623691 -785358117 508355886 -1287750382 314754576 538130677 -54302271 -10960011 693534725 2051987917 -643988670 1456926838 -136442238 -562969870 815065014 -1783229291 1033870638 1784613077 939745580 -231425370 1198103152 -1123887825 -2044129687 264802731
REM
CELL 1.54180   50.00000   50.00000   50.00000   90.00000   90.00000   90.00000
LATT -1
SFAC C  
C      1  0.5913090000000  0.5392320000000  0.5743620000000 1.0
C      1  0.4952060000000  0.4982920000000  0.4466950000000 1.0
C      1  0.4323550000000  0.5105570000000  0.5217570000000 1.0
C      1  0.4899870000000  0.5761030000000  0.5127390000000 1.0
C      1  0.4949500000000  0.5837340000000  0.4599530000000 1.0
C      1  0.4869910000000  0.4765390000000  0.5822510000000 1.0
C      1  0.4345260000000  0.4816810000000  0.5279960000000 1.0
C      1  0.4718800000000  0.4350150000000  0.5654340000000 1.0
C      1  0.5476790000000  0.5036540000000  0.5027770000000 1.0
C      1  0.4697670000000  0.4865700000000  0.4427550000000 1.0
C      1  0.5383960000000  0.5345810000000  0.4239660000000 1.0
C      1  0.4823700000000  0.4792240000000  0.5145940000000 1.0
C      1  0.4908280000000  0.4949240000000  0.5357000000000 1.0
C      1  0.5370280000000  0.4319030000000  0.5288910000000 1.0
C      1  0.5314070000000  0.5595790000000  0.4311580000000 1.0
C      1  0.5613410000000  0.4398090000000  0.5408500000000 1.0
C      1  0.4827900000000  0.4416720000000  0.4462270000000 1.0
C      1  0.5702510000000  0.5280960000000  0.5637960000000 1.0
C      1  0.4378380000000  0.5222970000000  0.4957480000000 1.0
C      1  0.5409820000000  0.5078720000000  0.4216350000000 1.0
C      1  0.4700670000000  0.4530030000000  0.5154310000000 1.0
C      1  0.4952850000000  0.5904180000000  0.4881730000000 1.0
C      1  0.4772360000000  0.5437140000000  0.4732770000000 1.0
C      1  0.4667820000000  0.4380170000000  0.4703930000000 1.0
C      1  0.5039660000000  0.5336820000000  0.4758640000000 1.0
C      1  0.4810380000000  0.5416000000000  0.5572090000000 1.0
C      1  0.5724460000000  0.4745130000000  0.4722620000000 1.0
C      1  0.5115400000000  0.4425240000000  0.4436370000000 1.0
C      1  0.4447970000000  0.4587690000000  0.4774230000000 1.0
C      1  0.4318630000000  0.5451960000000  0.4353470000000 1.0
C      1  0.4361150000000  0.5304510000000  0.5421940000000 1.0
C      1  0.4336110000000  0.5087970000000  0.4709500000000 1.0
C      1  0.5567520000000  0.4529880000000  0.4615130000000 1.0
C      1  0.5503980000000  0.4327910000000  0.4807380000000 1.0
C      1  0.5426760000000  0.5228660000000  0.5242490000000 1.0
C      1  0.5390030000000  0.4813300000000  0.4259680000000 1.0
C      1  0.4743630000000  0.4924610000000  0.4906970000000 1.0
C      1  0.4240340000000  0.5232100000000  0.4487580000000 1.0
C      1  0.4926700000000  0.4207840000000  0.5562450000000 1.0
C      1  0.4874060000000  0.5147180000000  0.5531600000000 1.0
C      1  0.4578270000000  0.5492550000000  0.5422080000000 1.0
C      1  0.5119350000000  0.5656520000000  0.5295540000000 1.0
C      1  0.4649850000000  0.5604360000000  0.5163750000000 1.0
C      1  0.5179350000000  0.5793600000000  0.4437540000000 1.0
C      1  0.5250840000000  0.4922260000000  0.4886240000000 1.0
C      1  0.5100800000000  0.5070470000000  0.4689620000000 1.0
C      1  0.4777410000000  0.4325370000000  0.4967240000000 1.0
C      1  0.4520420000000  0.5629630000000  0.4370270000000 1.0
C      1  0.5719320000000  0.4890080000000  0.4971570000000 1.0
C      1  0.5362630000000  0.4576480000000  0.4415640000000 1.0
C      1  0.5857480000000  0.4778530000000  0.5190760000000 1.0
C      1  0.4416040000000  0.4609470000000  0.5077460000000 1.0
C      1  0.4655430000000  0.4623050000000  0.5697980000000 1.0
C      1  0.5205780000000  0.4652710000000  0.4962140000000 1.0
C      1  0.5325480000000  0.4981080000000  0.5674200000000 1.0
C      1  0.4440300000000  0.4743350000000  0.5547630000000 1.0
C      1  0.5030320000000  0.5594850000000  0.5557700000000 1.0
C      1  0.5805650000000  0.4580140000000  0.5364380000000 1.0
C      1  0.5299220000000  0.5476280000000  0.5159280000000 1.0
C      1  0.4703670000000  0.4614720000000  0.4297480000000 1.0
C      1  0.5161430000000  0.4203490000000  0.5435240000000 1.0
C      1  0.5334450000000  0.4406970000000  0.5020670000000 1.0
C      1  0.5248380000000  0.5478230000000  0.4881330000000 1.0
C      1  0.5124620000000  0.4855190000000  0.5803180000000 1.0
C      1  0.4739020000000  0.5650150000000  0.4542640000000 1.0
C      1  0.4533480000000  0.4867050000000  0.4679110000000 1.0
C      1  0.5480180000000  0.5160610000000  0.5516710000000 1.0
C      1  0.4581580000000  0.5431120000000  0.4944890000000 1.0
END
