TITL C-627108-131-1173 -5.04979006422201e-07 125000 -646.083654616921 0 0 106 (C1) n - 1
REM
REM in /home/nfs/bkarasulu/CARBON/AIRSS/Generating-Clusters/LCBOP/Only-C1/SD-CG/FIRE-CG
REM
REM
REM
REM
REM
REM ./C.cell (11c1c37f851c82e70ff6c80c92926a4b)
REM AIRSS Version 0.9.1 bugfix July 2018 build 013d7b7c2542+ Fri, 06 Jul 2018 19:26:36 +0100
REM compiler GCC version 9.2.1 20190827 (Red Hat 9.2.1-1)
REM options -cpp -mtune=generic -march=x86-64 -g -O0 -fpre-include=/usr/include/finclude/math-vector-fortran.h
REM seed -175939361 1308347701 1294146899 -932602425 1207505118 813260859 1655146359 -1610355409 -1871722858 1292487538 -400432909 1835398428 1724644942 -1604947443 139427294 -752085871 1389697887 952729558 165823022 73050702 -2133930415 -1458448310 1177596032 2060770961 710555752 188455698 1497166441 990310128 1684725827 -1155658894 1490896669 248844848 1649216835
REM
CELL 1.54180   50.00000   50.00000   50.00000   90.00000   90.00000   90.00000
LATT -1
SFAC C  
C      1  0.4773980000000  0.5324710000000  0.5147940000000 1.0
C      1  0.5999770000000  0.5324680000000  0.5117710000000 1.0
C      1  0.5312500000000  0.4423040000000  0.5162360000000 1.0
C      1  0.5556800000000  0.4497820000000  0.5037410000000 1.0
C      1  0.5477410000000  0.5640970000000  0.5261870000000 1.0
C      1  0.4908760000000  0.5110890000000  0.5836890000000 1.0
C      1  0.4667800000000  0.4112580000000  0.4614850000000 1.0
C      1  0.5926720000000  0.4787040000000  0.4974180000000 1.0
C      1  0.4856610000000  0.4579250000000  0.5263970000000 1.0
C      1  0.5221180000000  0.4185380000000  0.5287340000000 1.0
C      1  0.5537750000000  0.5439240000000  0.4347950000000 1.0
C      1  0.5318680000000  0.5039540000000  0.4941660000000 1.0
C      1  0.4432280000000  0.5289590000000  0.4749350000000 1.0
C      1  0.5627500000000  0.5235150000000  0.5785700000000 1.0
C      1  0.4366030000000  0.4800260000000  0.5482420000000 1.0
C      1  0.5373130000000  0.4708930000000  0.4137950000000 1.0
C      1  0.4635420000000  0.4513690000000  0.3985230000000 1.0
C      1  0.3760400000000  0.5191920000000  0.4793580000000 1.0
C      1  0.4485560000000  0.5422110000000  0.4480130000000 1.0
C      1  0.4596690000000  0.4973060000000  0.5456650000000 1.0
C      1  0.4216100000000  0.4846240000000  0.4980490000000 1.0
C      1  0.5388120000000  0.5298810000000  0.5896290000000 1.0
C      1  0.3849240000000  0.4721750000000  0.4700100000000 1.0
C      1  0.4622160000000  0.4430630000000  0.5768300000000 1.0
C      1  0.5865760000000  0.4860740000000  0.5569870000000 1.0
C      1  0.5766050000000  0.4366050000000  0.5562330000000 1.0
C      1  0.4781790000000  0.5659120000000  0.5520930000000 1.0
C      1  0.5316790000000  0.4161760000000  0.5557570000000 1.0
C      1  0.4914260000000  0.5898060000000  0.4201450000000 1.0
C      1  0.5391710000000  0.5146550000000  0.5195570000000 1.0
C      1  0.4266780000000  0.4463960000000  0.4339540000000 1.0
C      1  0.5199180000000  0.4876380000000  0.5560580000000 1.0
C      1  0.4883680000000  0.5333680000000  0.4674550000000 1.0
C      1  0.5827190000000  0.4886380000000  0.4726810000000 1.0
C      1  0.5945060000000  0.5377720000000  0.4839590000000 1.0
C      1  0.4111520000000  0.4658890000000  0.4780030000000 1.0
C      1  0.4636030000000  0.4848740000000  0.4774570000000 1.0
C      1  0.4685170000000  0.5178830000000  0.5658180000000 1.0
C      1  0.5207620000000  0.5874830000000  0.4644260000000 1.0
C      1  0.5781960000000  0.4624410000000  0.5155030000000 1.0
C      1  0.4369690000000  0.5538570000000  0.5747230000000 1.0
C      1  0.5130610000000  0.5690670000000  0.4852280000000 1.0
C      1  0.4865940000000  0.4314450000000  0.5798510000000 1.0
C      1  0.5630020000000  0.5707070000000  0.4378760000000 1.0
C      1  0.5494000000000  0.5859300000000  0.4598780000000 1.0
C      1  0.3903330000000  0.4825640000000  0.5348420000000 1.0
C      1  0.5914620000000  0.5702800000000  0.4452560000000 1.0
C      1  0.4404810000000  0.4465240000000  0.4110120000000 1.0
C      1  0.5191910000000  0.5094960000000  0.5382200000000 1.0
C      1  0.5350370000000  0.4279780000000  0.4676680000000 1.0
C      1  0.4422410000000  0.4580990000000  0.5659570000000 1.0
C      1  0.3673870000000  0.4943090000000  0.4691660000000 1.0
C      1  0.5686930000000  0.5816140000000  0.4828460000000 1.0
C      1  0.5805230000000  0.5169980000000  0.4684550000000 1.0
C      1  0.4500730000000  0.4176220000000  0.5220260000000 1.0
C      1  0.5556610000000  0.5255150000000  0.4563960000000 1.0
C      1  0.5065050000000  0.5695180000000  0.5575100000000 1.0
C      1  0.5821980000000  0.4615070000000  0.5437590000000 1.0
C      1  0.4252710000000  0.5741480000000  0.5067120000000 1.0
C      1  0.4787110000000  0.4362730000000  0.4636650000000 1.0
C      1  0.5111150000000  0.4606590000000  0.5126650000000 1.0
C      1  0.4891320000000  0.4583830000000  0.3962870000000 1.0
C      1  0.4704190000000  0.5868950000000  0.4603130000000 1.0
C      1  0.4501790000000  0.5811010000000  0.5135070000000 1.0
C      1  0.5117200000000  0.5287500000000  0.5929670000000 1.0
C      1  0.4535340000000  0.5703900000000  0.4418170000000 1.0
C      1  0.4611070000000  0.5460640000000  0.5641590000000 1.0
C      1  0.5064430000000  0.3991100000000  0.5176730000000 1.0
C      1  0.5218270000000  0.5721370000000  0.5335240000000 1.0
C      1  0.5917110000000  0.5649360000000  0.4739650000000 1.0
C      1  0.5605380000000  0.4136670000000  0.5511380000000 1.0
C      1  0.5663830000000  0.3981940000000  0.5270770000000 1.0
C      1  0.5133150000000  0.5424370000000  0.4747440000000 1.0
C      1  0.5075410000000  0.4352360000000  0.4624810000000 1.0
C      1  0.5028530000000  0.5760660000000  0.5111960000000 1.0
C      1  0.5651710000000  0.4698210000000  0.4589840000000 1.0
C      1  0.4833390000000  0.4907520000000  0.4963820000000 1.0
C      1  0.5445580000000  0.4031310000000  0.4790630000000 1.0
C      1  0.4694190000000  0.4353870000000  0.5257690000000 1.0
C      1  0.5532180000000  0.4492980000000  0.4749450000000 1.0
C      1  0.4687100000000  0.5352200000000  0.4886970000000 1.0
C      1  0.4040380000000  0.5597230000000  0.4992800000000 1.0
C      1  0.5334460000000  0.5230010000000  0.4734530000000 1.0
C      1  0.4962990000000  0.5245460000000  0.5319730000000 1.0
C      1  0.3423040000000  0.4916610000000  0.4586050000000 1.0
C      1  0.4746770000000  0.4848030000000  0.5241040000000 1.0
C      1  0.5556390000000  0.5367380000000  0.5258160000000 1.0
C      1  0.4752960000000  0.5300230000000  0.4422210000000 1.0
C      1  0.4167790000000  0.4822690000000  0.5267790000000 1.0
C      1  0.5117560000000  0.4223440000000  0.5749830000000 1.0
C      1  0.4596970000000  0.4584760000000  0.4669830000000 1.0
C      1  0.5819330000000  0.5290520000000  0.5335770000000 1.0
C      1  0.4974980000000  0.5937400000000  0.4484660000000 1.0
C      1  0.5807390000000  0.5137900000000  0.5582200000000 1.0
C      1  0.4664530000000  0.5775850000000  0.4162330000000 1.0
C      1  0.5622000000000  0.5819880000000  0.5099880000000 1.0
C      1  0.5559860000000  0.4727730000000  0.4326930000000 1.0
C      1  0.3877170000000  0.5408020000000  0.4898210000000 1.0
C      1  0.4294460000000  0.4020300000000  0.5187310000000 1.0
C      1  0.4312640000000  0.4539010000000  0.4607000000000 1.0
C      1  0.5586990000000  0.3948360000000  0.5010290000000 1.0
C      1  0.4757650000000  0.5766960000000  0.5241890000000 1.0
C      1  0.4395420000000  0.5011900000000  0.4822180000000 1.0
C      1  0.5141690000000  0.4655300000000  0.4017940000000 1.0
C      1  0.5114150000000  0.4839210000000  0.4953830000000 1.0
C      1  0.5031080000000  0.4861550000000  0.5772450000000 1.0
END
