TITL C-627106-156-1486 3.82983109685927e-06 125000 -801.672406894326 0 0 129 (C1) n - 1
REM
REM in /home/nfs/bkarasulu/CARBON/AIRSS/Generating-Clusters/LCBOP/Only-C1/SD-CG/FIRE-CG
REM
REM
REM
REM
REM
REM ./C.cell (11c1c37f851c82e70ff6c80c92926a4b)
REM AIRSS Version 0.9.1 bugfix July 2018 build 013d7b7c2542+ Fri, 06 Jul 2018 19:26:36 +0100
REM compiler GCC version 9.2.1 20190827 (Red Hat 9.2.1-1)
REM options -cpp -mtune=generic -march=x86-64 -g -O0 -fpre-include=/usr/include/finclude/math-vector-fortran.h
REM seed -1762610488 1920188502 -1774177710 1582560633 -1826116857 -603305836 -1277967675 489752210 -902623092 1827847741 -1996265497 189619132 -476979959 -1307996501 -1919683159 234639409 1240739179 -1568389963 1260170285 -1585713715 -1551842682 1723423910 -1409406536 -2084546941 -1556810739 959889634 1421566434 1202169016 -61862185 1383128842 525920338 -1584858346 -1826632117
REM
CELL 1.54180   50.00000   50.00000   50.00000   90.00000   90.00000   90.00000
LATT -1
SFAC C  
C      1  0.5597340000000  0.4670000000000  0.5175600000000 1.0
C      1  0.4590790000000  0.5873190000000  0.4491680000000 1.0
C      1  0.5116640000000  0.5151420000000  0.4163610000000 1.0
C      1  0.5443930000000  0.4639030000000  0.5728020000000 1.0
C      1  0.5010440000000  0.4126200000000  0.5413020000000 1.0
C      1  0.5463760000000  0.4837510000000  0.4477410000000 1.0
C      1  0.4436420000000  0.5883000000000  0.4729140000000 1.0
C      1  0.4345200000000  0.5817350000000  0.5233370000000 1.0
C      1  0.4310310000000  0.5239220000000  0.5202020000000 1.0
C      1  0.5726720000000  0.5483420000000  0.4223460000000 1.0
C      1  0.5631220000000  0.4612080000000  0.4530080000000 1.0
C      1  0.5707460000000  0.5224850000000  0.4714900000000 1.0
C      1  0.5643330000000  0.5504440000000  0.4690400000000 1.0
C      1  0.4646920000000  0.4571790000000  0.5740570000000 1.0
C      1  0.5264120000000  0.3951820000000  0.4446500000000 1.0
C      1  0.4706510000000  0.6097220000000  0.5047730000000 1.0
C      1  0.4484230000000  0.4716860000000  0.5558290000000 1.0
C      1  0.4987290000000  0.4407950000000  0.3915610000000 1.0
C      1  0.5083920000000  0.4290590000000  0.5649500000000 1.0
C      1  0.4894000000000  0.4818130000000  0.5347320000000 1.0
C      1  0.5217370000000  0.3990410000000  0.5253790000000 1.0
C      1  0.5530750000000  0.5669260000000  0.5118680000000 1.0
C      1  0.4829130000000  0.4548860000000  0.3732190000000 1.0
C      1  0.4971000000000  0.5659210000000  0.4266880000000 1.0
C      1  0.4248320000000  0.4201580000000  0.5545560000000 1.0
C      1  0.5428080000000  0.4287070000000  0.4059240000000 1.0
C      1  0.5575630000000  0.5323760000000  0.5773210000000 1.0
C      1  0.5624100000000  0.5079940000000  0.4475880000000 1.0
C      1  0.4868530000000  0.4423900000000  0.5777330000000 1.0
C      1  0.5169650000000  0.4774760000000  0.4452170000000 1.0
C      1  0.5751150000000  0.4549740000000  0.4992520000000 1.0
C      1  0.4500060000000  0.4142690000000  0.5429640000000 1.0
C      1  0.4454500000000  0.4504530000000  0.4072400000000 1.0
C      1  0.4889120000000  0.5838570000000  0.4499350000000 1.0
C      1  0.5650190000000  0.4815050000000  0.5824140000000 1.0
C      1  0.5087710000000  0.5400420000000  0.4327390000000 1.0
C      1  0.5891800000000  0.4845610000000  0.3887000000000 1.0
C      1  0.5855350000000  0.5152030000000  0.4951750000000 1.0
C      1  0.4393670000000  0.4485540000000  0.4713110000000 1.0
C      1  0.4517100000000  0.4673450000000  0.4279410000000 1.0
C      1  0.5401350000000  0.4310340000000  0.4798020000000 1.0
C      1  0.4054130000000  0.4936580000000  0.5611210000000 1.0
C      1  0.5048770000000  0.5468880000000  0.6560700000000 1.0
C      1  0.4502360000000  0.5375840000000  0.6109460000000 1.0
C      1  0.4617870000000  0.4861840000000  0.5351410000000 1.0
C      1  0.4976650000000  0.6031040000000  0.4982110000000 1.0
C      1  0.5443660000000  0.5579620000000  0.4866580000000 1.0
C      1  0.4472510000000  0.5939620000000  0.5007080000000 1.0
C      1  0.5044980000000  0.5358850000000  0.4617950000000 1.0
C      1  0.5672050000000  0.4679580000000  0.3932790000000 1.0
C      1  0.3862350000000  0.4424350000000  0.5341090000000 1.0
C      1  0.5071320000000  0.4689510000000  0.5167430000000 1.0
C      1  0.4772890000000  0.5306910000000  0.4686650000000 1.0
C      1  0.5074220000000  0.5379710000000  0.5088370000000 1.0
C      1  0.4671910000000  0.5864350000000  0.5730020000000 1.0
C      1  0.4729200000000  0.5309990000000  0.5409970000000 1.0
C      1  0.4696350000000  0.4895290000000  0.4245050000000 1.0
C      1  0.5366720000000  0.4359770000000  0.5701850000000 1.0
C      1  0.4589460000000  0.5373640000000  0.6361170000000 1.0
C      1  0.5713890000000  0.5073270000000  0.5709180000000 1.0
C      1  0.5389670000000  0.4762400000000  0.3916680000000 1.0
C      1  0.5258010000000  0.4498550000000  0.3927030000000 1.0
C      1  0.4552260000000  0.5420200000000  0.5838870000000 1.0
C      1  0.4518710000000  0.5328820000000  0.4605480000000 1.0
C      1  0.5245700000000  0.4111030000000  0.4207720000000 1.0
C      1  0.5263880000000  0.5802930000000  0.6016990000000 1.0
C      1  0.4343240000000  0.4664170000000  0.4505930000000 1.0
C      1  0.4981460000000  0.4930290000000  0.4301030000000 1.0
C      1  0.5687360000000  0.4405360000000  0.4027750000000 1.0
C      1  0.4790220000000  0.5408330000000  0.6533180000000 1.0
C      1  0.4141420000000  0.4023480000000  0.5725250000000 1.0
C      1  0.4201720000000  0.4698240000000  0.5562550000000 1.0
C      1  0.5542070000000  0.4166690000000  0.5587500000000 1.0
C      1  0.4034600000000  0.5205730000000  0.5577130000000 1.0
C      1  0.5341350000000  0.4725300000000  0.5264810000000 1.0
C      1  0.4888560000000  0.4367370000000  0.4385860000000 1.0
C      1  0.5472670000000  0.4002930000000  0.5381480000000 1.0
C      1  0.6091040000000  0.5013920000000  0.4915000000000 1.0
C      1  0.5223230000000  0.3882070000000  0.4708410000000 1.0
C      1  0.5058570000000  0.4527900000000  0.4544080000000 1.0
C      1  0.4530310000000  0.4359770000000  0.4900900000000 1.0
C      1  0.5575110000000  0.5531620000000  0.5571200000000 1.0
C      1  0.4109260000000  0.4817040000000  0.4511340000000 1.0
C      1  0.5196370000000  0.3897720000000  0.4980740000000 1.0
C      1  0.4173060000000  0.5386190000000  0.5405820000000 1.0
C      1  0.5143700000000  0.4418350000000  0.4785730000000 1.0
C      1  0.5025740000000  0.5964600000000  0.4711210000000 1.0
C      1  0.4859620000000  0.4800950000000  0.3637680000000 1.0
C      1  0.4423580000000  0.5287810000000  0.4356970000000 1.0
C      1  0.5341850000000  0.5568130000000  0.6152740000000 1.0
C      1  0.4752780000000  0.4330580000000  0.5064120000000 1.0
C      1  0.5299370000000  0.4796310000000  0.5541170000000 1.0
C      1  0.3456650000000  0.4433460000000  0.5007260000000 1.0
C      1  0.4977860000000  0.4235960000000  0.4152430000000 1.0
C      1  0.5199010000000  0.5435900000000  0.4843920000000 1.0
C      1  0.5790780000000  0.5236970000000  0.5221850000000 1.0
C      1  0.4905190000000  0.5483170000000  0.5283280000000 1.0
C      1  0.5042970000000  0.4910020000000  0.5579700000000 1.0
C      1  0.6079350000000  0.4796990000000  0.3695880000000 1.0
C      1  0.5702320000000  0.5631670000000  0.4447700000000 1.0
C      1  0.4300690000000  0.5643480000000  0.5461460000000 1.0
C      1  0.3654510000000  0.4425620000000  0.5176820000000 1.0
C      1  0.5382620000000  0.5859240000000  0.5274790000000 1.0
C      1  0.4531160000000  0.5817000000000  0.4213560000000 1.0
C      1  0.5380610000000  0.5340250000000  0.5983540000000 1.0
C      1  0.5661640000000  0.5480300000000  0.5292530000000 1.0
C      1  0.4747000000000  0.5271740000000  0.5693320000000 1.0
C      1  0.5029800000000  0.5002290000000  0.3701760000000 1.0
C      1  0.5641550000000  0.4447620000000  0.4755730000000 1.0
C      1  0.5115510000000  0.5911260000000  0.5195570000000 1.0
C      1  0.4988000000000  0.4477510000000  0.5007950000000 1.0
C      1  0.5735330000000  0.5200540000000  0.4235190000000 1.0
C      1  0.5412310000000  0.5778270000000  0.5559440000000 1.0
C      1  0.4554910000000  0.5127000000000  0.5277310000000 1.0
C      1  0.4749290000000  0.4176040000000  0.5302100000000 1.0
C      1  0.4963940000000  0.5104100000000  0.5768120000000 1.0
C      1  0.4470790000000  0.5662580000000  0.5700920000000 1.0
C      1  0.5153290000000  0.5175520000000  0.5959850000000 1.0
C      1  0.5841430000000  0.5076010000000  0.5452370000000 1.0
C      1  0.5267760000000  0.5531510000000  0.6420570000000 1.0
C      1  0.4936490000000  0.5839410000000  0.5633340000000 1.0
C      1  0.4549260000000  0.5130050000000  0.4177770000000 1.0
C      1  0.4748100000000  0.5701390000000  0.4083710000000 1.0
C      1  0.4945070000000  0.5750950000000  0.5362440000000 1.0
C      1  0.4100150000000  0.4441870000000  0.5486630000000 1.0
C      1  0.5898290000000  0.5066750000000  0.4054870000000 1.0
C      1  0.5201300000000  0.5841260000000  0.5746790000000 1.0
C      1  0.5221890000000  0.5010470000000  0.3916000000000 1.0
C      1  0.3880330000000  0.4939690000000  0.4533250000000 1.0
END
