TITL C-627112-676-1821 -0.924999291590754 125000 -1179.20228512555 0 0 191 (C1) n - 1
REM
REM in /home/nfs/bkarasulu/CARBON/AIRSS/Generating-Clusters/LCBOP/Only-C1/SD-CG/FIRE-CG
REM
REM
REM
REM
REM
REM ./C.cell (11c1c37f851c82e70ff6c80c92926a4b)
REM AIRSS Version 0.9.1 bugfix July 2018 build 013d7b7c2542+ Fri, 06 Jul 2018 19:26:36 +0100
REM compiler GCC version 9.2.1 20190827 (Red Hat 9.2.1-1)
REM options -cpp -mtune=generic -march=x86-64 -g -O0 -fpre-include=/usr/include/finclude/math-vector-fortran.h
REM seed -2112629534 -1772339157 -1390675482 1405843979 -515111415 -405454260 614095349 1490728245 1894552061 -1800683722 -2117827865 -609843847 339597307 -1152392519 -178640954 352979124 -1331334491 -1227701201 -1378995634 932540091 1999000993 -559676380 -1759883169 -839535532 -2097355621 319802715 1782499219 -1748454298 -1333458128 781898319 -72952269 333109300 -1950663596
REM
CELL 1.54180   50.00000   50.00000   50.00000   90.00000   90.00000   90.00000
LATT -1
SFAC C  
C      1  0.4290250000000  0.5751630000000  0.5574330000000 1.0
C      1  0.4114330000000  0.5128890000000  0.4591890000000 1.0
C      1  0.4658530000000  0.5739370000000  0.5867350000000 1.0
C      1  0.5999170000000  0.5151100000000  0.4773310000000 1.0
C      1  0.4203870000000  0.5042900000000  0.5174220000000 1.0
C      1  0.4351800000000  0.5060860000000  0.4731360000000 1.0
C      1  0.5180270000000  0.4950560000000  0.4918150000000 1.0
C      1  0.5549030000000  0.4958780000000  0.6065050000000 1.0
C      1  0.4430310000000  0.5939460000000  0.4274500000000 1.0
C      1  0.4717590000000  0.3758830000000  0.5430850000000 1.0
C      1  0.4703430000000  0.4029650000000  0.5494100000000 1.0
C      1  0.4399050000000  0.4703340000000  0.3607780000000 1.0
C      1  0.4851990000000  0.5006480000000  0.4664030000000 1.0
C      1  0.5376510000000  0.6025540000000  0.4451010000000 1.0
C      1  0.5744160000000  0.5264450000000  0.4172500000000 1.0
C      1  0.4723350000000  0.6041510000000  0.5047650000000 1.0
C      1  0.5997530000000  0.5570530000000  0.5601780000000 1.0
C      1  0.5103860000000  0.5124550000000  0.4302540000000 1.0
C      1  0.5291770000000  0.5020450000000  0.6173020000000 1.0
C      1  0.5034610000000  0.5476270000000  0.5250500000000 1.0
C      1  0.5531550000000  0.5829450000000  0.4616940000000 1.0
C      1  0.5642520000000  0.5159770000000  0.3924360000000 1.0
C      1  0.5030580000000  0.5627980000000  0.4797500000000 1.0
C      1  0.5400210000000  0.5990970000000  0.5055890000000 1.0
C      1  0.5352920000000  0.4088630000000  0.4649220000000 1.0
C      1  0.5239970000000  0.4725150000000  0.4764550000000 1.0
C      1  0.4876270000000  0.5571920000000  0.5905290000000 1.0
C      1  0.4656560000000  0.5087380000000  0.3677940000000 1.0
C      1  0.4695750000000  0.4893050000000  0.5776760000000 1.0
C      1  0.4956830000000  0.6088630000000  0.5740890000000 1.0
C      1  0.4315990000000  0.5802230000000  0.4076260000000 1.0
C      1  0.5437300000000  0.4170350000000  0.6058910000000 1.0
C      1  0.4115850000000  0.4620750000000  0.5372230000000 1.0
C      1  0.4599730000000  0.5903980000000  0.4500230000000 1.0
C      1  0.4498560000000  0.3739420000000  0.4763070000000 1.0
C      1  0.5013300000000  0.4898290000000  0.6130600000000 1.0
C      1  0.4799460000000  0.4439500000000  0.5902860000000 1.0
C      1  0.4649340000000  0.4467760000000  0.5293700000000 1.0
C      1  0.4823510000000  0.4239820000000  0.5349850000000 1.0
C      1  0.4632420000000  0.5165740000000  0.4778450000000 1.0
C      1  0.5626520000000  0.4687110000000  0.6010600000000 1.0
C      1  0.4541140000000  0.4455510000000  0.4741750000000 1.0
C      1  0.5900150000000  0.4564850000000  0.5620170000000 1.0
C      1  0.5388570000000  0.5263660000000  0.3829990000000 1.0
C      1  0.5199300000000  0.4568210000000  0.5655530000000 1.0
C      1  0.4235030000000  0.4703270000000  0.5815280000000 1.0
C      1  0.4145480000000  0.5676060000000  0.5332050000000 1.0
C      1  0.4661870000000  0.3772760000000  0.4540400000000 1.0
C      1  0.5203400000000  0.4129520000000  0.5885730000000 1.0
C      1  0.4719070000000  0.6308340000000  0.4971730000000 1.0
C      1  0.3920090000000  0.4529120000000  0.3952190000000 1.0
C      1  0.4042500000000  0.5522080000000  0.4898650000000 1.0
C      1  0.5581550000000  0.5834530000000  0.5536390000000 1.0
C      1  0.6565200000000  0.5956080000000  0.6023750000000 1.0
C      1  0.4767700000000  0.5504180000000  0.5325570000000 1.0
C      1  0.4523240000000  0.4315850000000  0.5850170000000 1.0
C      1  0.4372870000000  0.5136780000000  0.3757560000000 1.0
C      1  0.4978000000000  0.4358240000000  0.4133820000000 1.0
C      1  0.5534930000000  0.5308880000000  0.4848420000000 1.0
C      1  0.5045760000000  0.3461100000000  0.5608530000000 1.0
C      1  0.6198120000000  0.5703010000000  0.5745380000000 1.0
C      1  0.4934540000000  0.5587950000000  0.4137530000000 1.0
C      1  0.3823270000000  0.4402500000000  0.4170890000000 1.0
C      1  0.5664780000000  0.4074030000000  0.5929450000000 1.0
C      1  0.5141190000000  0.5674050000000  0.5932460000000 1.0
C      1  0.5053880000000  0.4354810000000  0.5795100000000 1.0
C      1  0.4946830000000  0.4145870000000  0.4328830000000 1.0
C      1  0.5302700000000  0.4277860000000  0.5092090000000 1.0
C      1  0.5616320000000  0.4019680000000  0.4741590000000 1.0
C      1  0.4842010000000  0.4727240000000  0.5962190000000 1.0
C      1  0.5197430000000  0.4032830000000  0.4420000000000 1.0
C      1  0.5553190000000  0.5795100000000  0.4910530000000 1.0
C      1  0.3972410000000  0.4934870000000  0.4180950000000 1.0
C      1  0.4147720000000  0.4372560000000  0.6172210000000 1.0
C      1  0.4028990000000  0.4790990000000  0.3944920000000 1.0
C      1  0.4614160000000  0.5447920000000  0.4686890000000 1.0
C      1  0.5933790000000  0.5151450000000  0.4339180000000 1.0
C      1  0.5216750000000  0.4265740000000  0.4823270000000 1.0
C      1  0.6157300000000  0.4643050000000  0.4764840000000 1.0
C      1  0.5399590000000  0.5790810000000  0.3957780000000 1.0
C      1  0.5774800000000  0.4220270000000  0.5219310000000 1.0
C      1  0.4268860000000  0.4089270000000  0.5407070000000 1.0
C      1  0.5688070000000  0.4610020000000  0.4897020000000 1.0
C      1  0.6442420000000  0.4715370000000  0.4366660000000 1.0
C      1  0.5217960000000  0.5365470000000  0.5436560000000 1.0
C      1  0.4601040000000  0.5294220000000  0.5263060000000 1.0
C      1  0.5652800000000  0.4728670000000  0.5553180000000 1.0
C      1  0.3990640000000  0.5461700000000  0.5192060000000 1.0
C      1  0.3971390000000  0.4920880000000  0.4463270000000 1.0
C      1  0.5718710000000  0.5620750000000  0.5678300000000 1.0
C      1  0.5263570000000  0.5314130000000  0.6230900000000 1.0
C      1  0.5987730000000  0.5012430000000  0.5022970000000 1.0
C      1  0.4025450000000  0.4782600000000  0.5617110000000 1.0
C      1  0.5682480000000  0.4012040000000  0.5419210000000 1.0
C      1  0.5160800000000  0.5946880000000  0.5853990000000 1.0
C      1  0.5633820000000  0.5146230000000  0.5855700000000 1.0
C      1  0.3866820000000  0.4685200000000  0.4603770000000 1.0
C      1  0.5666860000000  0.5022150000000  0.5600240000000 1.0
C      1  0.5598010000000  0.5470850000000  0.4294480000000 1.0
C      1  0.5095500000000  0.4223120000000  0.5275030000000 1.0
C      1  0.4888400000000  0.5221570000000  0.3768690000000 1.0
C      1  0.5457930000000  0.4627500000000  0.5775640000000 1.0
C      1  0.5267980000000  0.5214060000000  0.4886800000000 1.0
C      1  0.5966620000000  0.4385550000000  0.5404520000000 1.0
C      1  0.5134050000000  0.6105240000000  0.4600050000000 1.0
C      1  0.3979620000000  0.5356680000000  0.4683050000000 1.0
C      1  0.4521170000000  0.4186270000000  0.4673260000000 1.0
C      1  0.5098470000000  0.4882630000000  0.5192770000000 1.0
C      1  0.3995880000000  0.5076750000000  0.5574980000000 1.0
C      1  0.4799620000000  0.4528380000000  0.4833380000000 1.0
C      1  0.4708290000000  0.4054510000000  0.4475350000000 1.0
C      1  0.4698570000000  0.5980960000000  0.5709890000000 1.0
C      1  0.6621110000000  0.4639090000000  0.4192980000000 1.0
C      1  0.4238770000000  0.5385360000000  0.3735570000000 1.0
C      1  0.4490390000000  0.5702440000000  0.4685350000000 1.0
C      1  0.4290950000000  0.5830080000000  0.5119310000000 1.0
C      1  0.4436160000000  0.5329350000000  0.5803090000000 1.0
C      1  0.3858580000000  0.4639840000000  0.4888310000000 1.0
C      1  0.5301960000000  0.3903750000000  0.5718890000000 1.0
C      1  0.5140280000000  0.4804920000000  0.3866090000000 1.0
C      1  0.5215520000000  0.3639560000000  0.5711040000000 1.0
C      1  0.5216860000000  0.4704610000000  0.5382880000000 1.0
C      1  0.4407660000000  0.3992720000000  0.4874530000000 1.0
C      1  0.5166580000000  0.6061350000000  0.4892070000000 1.0
C      1  0.4987820000000  0.5338870000000  0.6317870000000 1.0
C      1  0.4260020000000  0.5717670000000  0.4861100000000 1.0
C      1  0.4466200000000  0.4126290000000  0.5625540000000 1.0
C      1  0.5941620000000  0.5180280000000  0.5250260000000 1.0
C      1  0.4700240000000  0.5124210000000  0.5066070000000 1.0
C      1  0.4389770000000  0.5156550000000  0.5368220000000 1.0
C      1  0.5783540000000  0.4969550000000  0.3777570000000 1.0
C      1  0.4643360000000  0.4823240000000  0.3558570000000 1.0
C      1  0.4890050000000  0.4966540000000  0.4393460000000 1.0
C      1  0.5758340000000  0.5258000000000  0.4690370000000 1.0
C      1  0.4700790000000  0.4825160000000  0.4249040000000 1.0
C      1  0.5914400000000  0.4779710000000  0.3656160000000 1.0
C      1  0.5445070000000  0.5587070000000  0.4495180000000 1.0
C      1  0.4284380000000  0.4885730000000  0.4946890000000 1.0
C      1  0.5532330000000  0.4821530000000  0.4429050000000 1.0
C      1  0.5091830000000  0.5421960000000  0.4981880000000 1.0
C      1  0.4515760000000  0.5968250000000  0.5221120000000 1.0
C      1  0.4421720000000  0.4594380000000  0.5416310000000 1.0
C      1  0.4881850000000  0.5988580000000  0.4453710000000 1.0
C      1  0.5382610000000  0.5552310000000  0.3826730000000 1.0
C      1  0.5950110000000  0.4729910000000  0.4942860000000 1.0
C      1  0.5164870000000  0.5541720000000  0.4545000000000 1.0
C      1  0.5681320000000  0.5178030000000  0.5370210000000 1.0
C      1  0.4856370000000  0.5474030000000  0.3894240000000 1.0
C      1  0.4267330000000  0.5587980000000  0.3926600000000 1.0
C      1  0.4841840000000  0.5150040000000  0.6158770000000 1.0
C      1  0.4337830000000  0.4617820000000  0.4857870000000 1.0
C      1  0.3947320000000  0.4589000000000  0.5141590000000 1.0
C      1  0.4821440000000  0.3516850000000  0.5472760000000 1.0
C      1  0.5495180000000  0.4653140000000  0.5320530000000 1.0
C      1  0.4819750000000  0.4888700000000  0.5161690000000 1.0
C      1  0.4271310000000  0.5190200000000  0.5629110000000 1.0
C      1  0.4513750000000  0.4651830000000  0.4195820000000 1.0
C      1  0.5351370000000  0.5503440000000  0.6028290000000 1.0
C      1  0.5791970000000  0.4065770000000  0.4948170000000 1.0
C      1  0.5072330000000  0.4566650000000  0.3983200000000 1.0
C      1  0.6112060000000  0.5047900000000  0.4523870000000 1.0
C      1  0.4498120000000  0.5965020000000  0.5506630000000 1.0
C      1  0.5069470000000  0.4498370000000  0.4755280000000 1.0
C      1  0.3959730000000  0.5175260000000  0.5283110000000 1.0
C      1  0.4291550000000  0.4460620000000  0.5958130000000 1.0
C      1  0.4996700000000  0.5862750000000  0.4207480000000 1.0
C      1  0.6383370000000  0.5830440000000  0.5885500000000 1.0
C      1  0.5512250000000  0.4699910000000  0.4683860000000 1.0
C      1  0.5064840000000  0.5237540000000  0.5650480000000 1.0
C      1  0.4480790000000  0.4761010000000  0.5655400000000 1.0
C      1  0.6076080000000  0.5392380000000  0.5389140000000 1.0
C      1  0.4939790000000  0.5882520000000  0.4938070000000 1.0
C      1  0.5461440000000  0.5978540000000  0.5336720000000 1.0
C      1  0.5558560000000  0.5527970000000  0.5044360000000 1.0
C      1  0.5889530000000  0.4584830000000  0.5914910000000 1.0
C      1  0.4226650000000  0.4877010000000  0.3764160000000 1.0
C      1  0.3798980000000  0.4469820000000  0.4430670000000 1.0
C      1  0.5583250000000  0.5435150000000  0.5866830000000 1.0
C      1  0.4414260000000  0.5607790000000  0.5795100000000 1.0
C      1  0.5047650000000  0.5405350000000  0.4326670000000 1.0
C      1  0.5489560000000  0.5382270000000  0.5308200000000 1.0
C      1  0.4077090000000  0.5429430000000  0.3518320000000 1.0
C      1  0.4291720000000  0.4039660000000  0.5134220000000 1.0
C      1  0.4766620000000  0.5220580000000  0.5856750000000 1.0
C      1  0.5283040000000  0.5931150000000  0.4177390000000 1.0
C      1  0.6246260000000  0.4799430000000  0.4543780000000 1.0
C      1  0.5565850000000  0.4438570000000  0.5129030000000 1.0
C      1  0.5148240000000  0.5089740000000  0.3801370000000 1.0
C      1  0.4749640000000  0.4630660000000  0.5092530000000 1.0
C      1  0.5588910000000  0.3955920000000  0.5674800000000 1.0
C      1  0.5355690000000  0.4991660000000  0.4311310000000 1.0
END
