TITL C-627110-360-1727 0.00335951379078598 125000 -345.927562174539 0 0 58 (C1) n - 1
REM
REM in /home/nfs/bkarasulu/CARBON/AIRSS/Generating-Clusters/LCBOP/Only-C1/SD-CG/FIRE-CG
REM
REM
REM
REM
REM
REM ./C.cell (11c1c37f851c82e70ff6c80c92926a4b)
REM AIRSS Version 0.9.1 bugfix July 2018 build 013d7b7c2542+ Fri, 06 Jul 2018 19:26:36 +0100
REM compiler GCC version 9.2.1 20190827 (Red Hat 9.2.1-1)
REM options -cpp -mtune=generic -march=x86-64 -g -O0 -fpre-include=/usr/include/finclude/math-vector-fortran.h
REM seed 1032822272 1727921241 917029856 -1126671795 1697367712 1905002538 708991271 -1877162189 1161706048 55822014 1196749921 -2101058341 307027598 -1404444830 1750808075 -616156708 564589418 1891673438 834155696 -871900503 -1870702067 -1571668426 500526153 1653603306 950286610 636472748 1298139085 911125933 -1946474221 -677207803 1992248837 1459236405 920691673
REM
CELL 1.54180   50.00000   50.00000   50.00000   90.00000   90.00000   90.00000
LATT -1
SFAC C  
C      1  0.4578220000000  0.5271510000000  0.4638070000000 1.0
C      1  0.5476730000000  0.5224350000000  0.5535970000000 1.0
C      1  0.4239950000000  0.4989700000000  0.5092390000000 1.0
C      1  0.4716200000000  0.4588780000000  0.5319030000000 1.0
C      1  0.5203830000000  0.4875290000000  0.5342530000000 1.0
C      1  0.5038210000000  0.3985830000000  0.5165990000000 1.0
C      1  0.5325840000000  0.5687810000000  0.5328200000000 1.0
C      1  0.4353420000000  0.5425450000000  0.4723030000000 1.0
C      1  0.5592890000000  0.4695260000000  0.5462720000000 1.0
C      1  0.4688960000000  0.5432820000000  0.5212660000000 1.0
C      1  0.4804030000000  0.5436620000000  0.4569270000000 1.0
C      1  0.3631910000000  0.5319390000000  0.5482800000000 1.0
C      1  0.5440350000000  0.4948240000000  0.5488920000000 1.0
C      1  0.5236940000000  0.4746090000000  0.4394060000000 1.0
C      1  0.5520070000000  0.4728100000000  0.4447480000000 1.0
C      1  0.5424590000000  0.4469670000000  0.5542380000000 1.0
C      1  0.5255320000000  0.5869930000000  0.4275460000000 1.0
C      1  0.4757360000000  0.4556870000000  0.4825220000000 1.0
C      1  0.5631880000000  0.4489510000000  0.4557020000000 1.0
C      1  0.5420050000000  0.5484520000000  0.5484660000000 1.0
C      1  0.3432330000000  0.5437850000000  0.5610850000000 1.0
C      1  0.3831540000000  0.5201290000000  0.5354660000000 1.0
C      1  0.5291590000000  0.5423900000000  0.4955870000000 1.0
C      1  0.5719460000000  0.4390070000000  0.4792900000000 1.0
C      1  0.4923750000000  0.4082280000000  0.4924910000000 1.0
C      1  0.4585700000000  0.4992870000000  0.4715100000000 1.0
C      1  0.4032510000000  0.5086690000000  0.5225460000000 1.0
C      1  0.5636880000000  0.4973940000000  0.4558410000000 1.0
C      1  0.5360230000000  0.4891030000000  0.4907000000000 1.0
C      1  0.4871670000000  0.5259570000000  0.5117020000000 1.0
C      1  0.5164560000000  0.4348430000000  0.5502550000000 1.0
C      1  0.4774820000000  0.5849460000000  0.5000270000000 1.0
C      1  0.5177810000000  0.4476950000000  0.5013080000000 1.0
C      1  0.5008300000000  0.5634860000000  0.4619080000000 1.0
C      1  0.5758050000000  0.4674500000000  0.5220100000000 1.0
C      1  0.3236050000000  0.5554360000000  0.5736790000000 1.0
C      1  0.5230520000000  0.5649190000000  0.4436370000000 1.0
C      1  0.5581920000000  0.5226570000000  0.4443720000000 1.0
C      1  0.4614820000000  0.4660110000000  0.5062540000000 1.0
C      1  0.4916140000000  0.4495290000000  0.5478650000000 1.0
C      1  0.4775780000000  0.4780190000000  0.4632120000000 1.0
C      1  0.5082650000000  0.5237120000000  0.4931620000000 1.0
C      1  0.5766040000000  0.4441160000000  0.5055030000000 1.0
C      1  0.5148490000000  0.4087850000000  0.5389980000000 1.0
C      1  0.4354750000000  0.5610910000000  0.4921080000000 1.0
C      1  0.5152040000000  0.5022920000000  0.4767840000000 1.0
C      1  0.5631020000000  0.4953880000000  0.4848070000000 1.0
C      1  0.6020650000000  0.5081770000000  0.5118660000000 1.0
C      1  0.4468670000000  0.4892940000000  0.4968800000000 1.0
C      1  0.5813070000000  0.4913920000000  0.5063570000000 1.0
C      1  0.5237660000000  0.5683200000000  0.5057870000000 1.0
C      1  0.5037810000000  0.4865830000000  0.4560920000000 1.0
C      1  0.4796220000000  0.3920270000000  0.4746890000000 1.0
C      1  0.5423160000000  0.5441650000000  0.4417990000000 1.0
C      1  0.4955130000000  0.4362360000000  0.4884600000000 1.0
C      1  0.5250260000000  0.4729360000000  0.5103760000000 1.0
C      1  0.4578530000000  0.5662760000000  0.5086840000000 1.0
C      1  0.5022660000000  0.5777000000000  0.4881190000000 1.0
END
