TITL C-627107-135-1423 -9.74840890734666e-07 125000 -649.500354730322 0 0 107 (C1) n - 1
REM
REM in /home/nfs/bkarasulu/CARBON/AIRSS/Generating-Clusters/LCBOP/Only-C1/SD-CG/FIRE-CG
REM
REM
REM
REM
REM
REM ./C.cell (11c1c37f851c82e70ff6c80c92926a4b)
REM AIRSS Version 0.9.1 bugfix July 2018 build 013d7b7c2542+ Fri, 06 Jul 2018 19:26:36 +0100
REM compiler GCC version 9.2.1 20190827 (Red Hat 9.2.1-1)
REM options -cpp -mtune=generic -march=x86-64 -g -O0 -fpre-include=/usr/include/finclude/math-vector-fortran.h
REM seed -492404625 597343944 1994611182 -1497158759 1368220299 -58555060 745155363 1129616494 875742497 -168212426 301691310 -42759273 -1560613820 -1220493178 -1700937180 1151696827 -1762614765 -549817894 -287238426 2136539853 619463595 1460124752 956619730 -1590802526 -229898540 1802190661 -1556400012 -1113993808 1010283117 -1502557036 -120387681 972929237 -941924147
REM
CELL 1.54180   50.00000   50.00000   50.00000   90.00000   90.00000   90.00000
LATT -1
SFAC C  
C      1  0.4768240000000  0.4261330000000  0.4590020000000 1.0
C      1  0.4257370000000  0.4997070000000  0.5593670000000 1.0
C      1  0.5365350000000  0.4648810000000  0.4380900000000 1.0
C      1  0.4282770000000  0.5701060000000  0.5335980000000 1.0
C      1  0.5304120000000  0.4265500000000  0.5189470000000 1.0
C      1  0.5623910000000  0.4350690000000  0.4852090000000 1.0
C      1  0.5609140000000  0.5635430000000  0.4545510000000 1.0
C      1  0.5258490000000  0.4381710000000  0.4399190000000 1.0
C      1  0.3726850000000  0.5321270000000  0.5238360000000 1.0
C      1  0.4436820000000  0.3949940000000  0.5469510000000 1.0
C      1  0.5394540000000  0.5220460000000  0.5125310000000 1.0
C      1  0.5503220000000  0.4354720000000  0.5375420000000 1.0
C      1  0.4292640000000  0.4816890000000  0.4377880000000 1.0
C      1  0.4732450000000  0.4172410000000  0.4854530000000 1.0
C      1  0.4833650000000  0.5753480000000  0.5893310000000 1.0
C      1  0.5158210000000  0.5215370000000  0.5599370000000 1.0
C      1  0.5353210000000  0.4940730000000  0.5105890000000 1.0
C      1  0.5009400000000  0.5896090000000  0.4812500000000 1.0
C      1  0.4236630000000  0.5496990000000  0.5533480000000 1.0
C      1  0.5084430000000  0.4082940000000  0.5192050000000 1.0
C      1  0.4673310000000  0.5598540000000  0.4701630000000 1.0
C      1  0.5679920000000  0.4582690000000  0.5745440000000 1.0
C      1  0.5944820000000  0.5238170000000  0.5094010000000 1.0
C      1  0.5535900000000  0.5341180000000  0.3925410000000 1.0
C      1  0.5813700000000  0.5137650000000  0.4529550000000 1.0
C      1  0.4513400000000  0.4596060000000  0.5732580000000 1.0
C      1  0.5258490000000  0.5378220000000  0.4947240000000 1.0
C      1  0.5177010000000  0.4595330000000  0.4842790000000 1.0
C      1  0.5090920000000  0.5376480000000  0.4727990000000 1.0
C      1  0.5539030000000  0.5327600000000  0.5348670000000 1.0
C      1  0.5766780000000  0.5394340000000  0.4635570000000 1.0
C      1  0.4980370000000  0.4387060000000  0.5858820000000 1.0
C      1  0.5375070000000  0.5679590000000  0.4388700000000 1.0
C      1  0.4360460000000  0.5559050000000  0.5782040000000 1.0
C      1  0.5575460000000  0.3850450000000  0.4817710000000 1.0
C      1  0.5390140000000  0.5258210000000  0.4125180000000 1.0
C      1  0.5300190000000  0.5659670000000  0.5681850000000 1.0
C      1  0.4700020000000  0.5403120000000  0.4119820000000 1.0
C      1  0.4345270000000  0.5459590000000  0.4435620000000 1.0
C      1  0.4747250000000  0.5636570000000  0.5318010000000 1.0
C      1  0.4436000000000  0.6204010000000  0.4326370000000 1.0
C      1  0.5089320000000  0.5764200000000  0.5812900000000 1.0
C      1  0.5806060000000  0.5221340000000  0.5348990000000 1.0
C      1  0.4338980000000  0.4727380000000  0.5556660000000 1.0
C      1  0.4259100000000  0.4605270000000  0.5312760000000 1.0
C      1  0.6039650000000  0.4985350000000  0.4999690000000 1.0
C      1  0.5155480000000  0.3823890000000  0.5100130000000 1.0
C      1  0.4578610000000  0.5670650000000  0.5892740000000 1.0
C      1  0.4626330000000  0.4954060000000  0.5075970000000 1.0
C      1  0.4490540000000  0.5700960000000  0.4501810000000 1.0
C      1  0.5362700000000  0.3745370000000  0.4945230000000 1.0
C      1  0.4615430000000  0.6030100000000  0.5101900000000 1.0
C      1  0.3951950000000  0.5168650000000  0.5267920000000 1.0
C      1  0.4914600000000  0.5562420000000  0.4170880000000 1.0
C      1  0.4145340000000  0.5229030000000  0.5472580000000 1.0
C      1  0.4967820000000  0.5642390000000  0.4655880000000 1.0
C      1  0.4453680000000  0.5957660000000  0.4409450000000 1.0
C      1  0.5342290000000  0.4375850000000  0.4928620000000 1.0
C      1  0.4838900000000  0.6054220000000  0.4950960000000 1.0
C      1  0.5070340000000  0.5157300000000  0.4546840000000 1.0
C      1  0.4905980000000  0.4910910000000  0.4574440000000 1.0
C      1  0.4234620000000  0.4604560000000  0.4814160000000 1.0
C      1  0.5033260000000  0.4246930000000  0.4473570000000 1.0
C      1  0.5358400000000  0.5416070000000  0.5555160000000 1.0
C      1  0.5235770000000  0.4812440000000  0.5341270000000 1.0
C      1  0.5729440000000  0.4534130000000  0.5279800000000 1.0
C      1  0.4457540000000  0.5297740000000  0.4229030000000 1.0
C      1  0.4741960000000  0.4709740000000  0.5005090000000 1.0
C      1  0.5037280000000  0.4614120000000  0.5348720000000 1.0
C      1  0.5363480000000  0.4814420000000  0.4850580000000 1.0
C      1  0.4772250000000  0.5357940000000  0.5310780000000 1.0
C      1  0.5474590000000  0.4395860000000  0.5661640000000 1.0
C      1  0.5238220000000  0.4346870000000  0.5802220000000 1.0
C      1  0.5693680000000  0.4089050000000  0.4772300000000 1.0
C      1  0.5851910000000  0.5729820000000  0.4939730000000 1.0
C      1  0.5796850000000  0.4705030000000  0.5508750000000 1.0
C      1  0.4823910000000  0.4512920000000  0.5196620000000 1.0
C      1  0.4645180000000  0.5233730000000  0.5082180000000 1.0
C      1  0.5772960000000  0.4872460000000  0.4620640000000 1.0
C      1  0.5697910000000  0.5837880000000  0.4736900000000 1.0
C      1  0.3993800000000  0.4935290000000  0.5109390000000 1.0
C      1  0.5085850000000  0.5668720000000  0.4374780000000 1.0
C      1  0.5508710000000  0.4781050000000  0.4599750000000 1.0
C      1  0.4921960000000  0.4720840000000  0.4788420000000 1.0
C      1  0.5191550000000  0.4828290000000  0.4237940000000 1.0
C      1  0.5904340000000  0.4776870000000  0.4862120000000 1.0
C      1  0.5233700000000  0.5111520000000  0.4300840000000 1.0
C      1  0.4533250000000  0.5810690000000  0.5257700000000 1.0
C      1  0.5853520000000  0.4980670000000  0.5494050000000 1.0
C      1  0.4053150000000  0.5240780000000  0.4753090000000 1.0
C      1  0.4357490000000  0.4601780000000  0.4556770000000 1.0
C      1  0.4912930000000  0.4784470000000  0.4305940000000 1.0
C      1  0.5754340000000  0.4632400000000  0.6002100000000 1.0
C      1  0.4723110000000  0.4588290000000  0.4250660000000 1.0
C      1  0.4715550000000  0.5144500000000  0.5747210000000 1.0
C      1  0.4606560000000  0.4083070000000  0.5323530000000 1.0
C      1  0.5790340000000  0.4542490000000  0.4996700000000 1.0
C      1  0.4879070000000  0.5239990000000  0.5549250000000 1.0
C      1  0.4301880000000  0.5331050000000  0.4695510000000 1.0
C      1  0.5887770000000  0.5445350000000  0.4906170000000 1.0
C      1  0.4544200000000  0.5381980000000  0.4856990000000 1.0
C      1  0.4149830000000  0.4701240000000  0.5068950000000 1.0
C      1  0.4588350000000  0.4449640000000  0.4463720000000 1.0
C      1  0.4731380000000  0.4479780000000  0.5833230000000 1.0
C      1  0.5256990000000  0.4954140000000  0.5583180000000 1.0
C      1  0.4365740000000  0.5030560000000  0.4230790000000 1.0
C      1  0.4807380000000  0.4209360000000  0.5146300000000 1.0
END
