TITL C-627108-131-1146 0.27983874489984 125000 -344.632234348123 0 0 58 (C1) n - 1
REM
REM in /home/nfs/bkarasulu/CARBON/AIRSS/Generating-Clusters/LCBOP/Only-C1/SD-CG/FIRE-CG
REM
REM
REM
REM
REM
REM ./C.cell (11c1c37f851c82e70ff6c80c92926a4b)
REM AIRSS Version 0.9.1 bugfix July 2018 build 013d7b7c2542+ Fri, 06 Jul 2018 19:26:36 +0100
REM compiler GCC version 9.2.1 20190827 (Red Hat 9.2.1-1)
REM options -cpp -mtune=generic -march=x86-64 -g -O0 -fpre-include=/usr/include/finclude/math-vector-fortran.h
REM seed -1538755953 -682593035 -1898498613 -2146927836 -1177346140 61136154 1431511629 -1809609260 1316944638 -2060500660 -121314943 -154514196 384572639 891811512 -445332470 -648392581 -307036247 -55564240 -1849110803 1892407502 -1214376236 1282445465 1025574564 1894381127 1143699649 -1430766758 -1947059690 -888582690 333546310 -690170034 -1884740320 2059609823 1099287833
REM
CELL 1.54180   50.00000   50.00000   50.00000   90.00000   90.00000   90.00000
LATT -1
SFAC C  
C      1  0.4296690000000  0.5450320000000  0.5213610000000 1.0
C      1  0.5223370000000  0.4676660000000  0.5344220000000 1.0
C      1  0.5801770000000  0.4891400000000  0.4457940000000 1.0
C      1  0.4903730000000  0.4616310000000  0.5713460000000 1.0
C      1  0.5295600000000  0.5528250000000  0.4346130000000 1.0
C      1  0.4611480000000  0.4539080000000  0.4806290000000 1.0
C      1  0.4573620000000  0.5413480000000  0.5202770000000 1.0
C      1  0.5549210000000  0.4881180000000  0.4967080000000 1.0
C      1  0.5118150000000  0.5744290000000  0.4342210000000 1.0
C      1  0.5274740000000  0.4956170000000  0.6346020000000 1.0
C      1  0.4818990000000  0.5132590000000  0.4913560000000 1.0
C      1  0.4763460000000  0.5611730000000  0.5101380000000 1.0
C      1  0.5519380000000  0.5197840000000  0.6743730000000 1.0
C      1  0.5029140000000  0.4718490000000  0.5941210000000 1.0
C      1  0.5206280000000  0.5279890000000  0.4453580000000 1.0
C      1  0.4794870000000  0.4416460000000  0.4633200000000 1.0
C      1  0.5721490000000  0.5138860000000  0.4581130000000 1.0
C      1  0.4892250000000  0.5129170000000  0.5426900000000 1.0
C      1  0.5061410000000  0.4510070000000  0.5501130000000 1.0
C      1  0.4698670000000  0.5819380000000  0.4924470000000 1.0
C      1  0.5268230000000  0.5231680000000  0.4731340000000 1.0
C      1  0.4157260000000  0.5249900000000  0.4809930000000 1.0
C      1  0.4975730000000  0.4619230000000  0.4228620000000 1.0
C      1  0.4587940000000  0.4334660000000  0.4202500000000 1.0
C      1  0.5398080000000  0.5078000000000  0.6546530000000 1.0
C      1  0.5516770000000  0.5104720000000  0.4786840000000 1.0
C      1  0.4464500000000  0.4487850000000  0.5876130000000 1.0
C      1  0.5001000000000  0.4259300000000  0.4738340000000 1.0
C      1  0.4652560000000  0.5113510000000  0.4678350000000 1.0
C      1  0.5375310000000  0.4814160000000  0.5174810000000 1.0
C      1  0.5176250000000  0.5492490000000  0.5335620000000 1.0
C      1  0.5095770000000  0.5291620000000  0.5500110000000 1.0
C      1  0.4516400000000  0.4691060000000  0.5003240000000 1.0
C      1  0.4768430000000  0.5909590000000  0.4682520000000 1.0
C      1  0.4375480000000  0.5153830000000  0.4690510000000 1.0
C      1  0.4535620000000  0.4866470000000  0.5222840000000 1.0
C      1  0.4081270000000  0.5386200000000  0.5043880000000 1.0
C      1  0.5875630000000  0.4695980000000  0.4649180000000 1.0
C      1  0.5151510000000  0.4834890000000  0.6145210000000 1.0
C      1  0.4619080000000  0.4620750000000  0.5693960000000 1.0
C      1  0.5055280000000  0.4234920000000  0.5452540000000 1.0
C      1  0.5061230000000  0.5290580000000  0.4910910000000 1.0
C      1  0.5410230000000  0.4821410000000  0.4139190000000 1.0
C      1  0.4691310000000  0.5121290000000  0.5194680000000 1.0
C      1  0.5140740000000  0.4845980000000  0.4213000000000 1.0
C      1  0.5576570000000  0.5551060000000  0.4334250000000 1.0
C      1  0.3823060000000  0.5450320000000  0.5101360000000 1.0
C      1  0.5755210000000  0.5386550000000  0.4452090000000 1.0
C      1  0.4776760000000  0.5084990000000  0.4428850000000 1.0
C      1  0.4925760000000  0.5878780000000  0.4469110000000 1.0
C      1  0.4502640000000  0.4761390000000  0.5481150000000 1.0
C      1  0.5038170000000  0.5515110000000  0.5089180000000 1.0
C      1  0.5218270000000  0.4131390000000  0.4804310000000 1.0
C      1  0.5034440000000  0.3975970000000  0.5431730000000 1.0
C      1  0.4783270000000  0.4455540000000  0.4350980000000 1.0
C      1  0.5664840000000  0.4823990000000  0.4222100000000 1.0
C      1  0.5754580000000  0.4698020000000  0.4892350000000 1.0
C      1  0.5040520000000  0.5085190000000  0.4331730000000 1.0
END
