TITL C-627110-360-561 8.24368259503747e-06 125000 -658.513722616346 0 0 110 (C1) n - 1
REM
REM in /home/nfs/bkarasulu/CARBON/AIRSS/Generating-Clusters/LCBOP/Only-C1/SD-CG/FIRE-CG
REM
REM
REM
REM
REM
REM ./C.cell (11c1c37f851c82e70ff6c80c92926a4b)
REM AIRSS Version 0.9.1 bugfix July 2018 build 013d7b7c2542+ Fri, 06 Jul 2018 19:26:36 +0100
REM compiler GCC version 9.2.1 20190827 (Red Hat 9.2.1-1)
REM options -cpp -mtune=generic -march=x86-64 -g -O0 -fpre-include=/usr/include/finclude/math-vector-fortran.h
REM seed 1916764283 -1437419034 1307337024 -1278048055 1730291176 617054016 809482631 -57640063 186885190 734016214 -2053868584 -305059889 1788608581 -1809649602 -769661116 -1611207709 -2081876030 -63964195 -917055817 -480605411 183412883 942740642 -185380121 -1520537867 1141919443 1909691903 692889914 1093059958 270372203 -784296335 -1719805052 2021756009 -496858690
REM
CELL 1.54180   50.00000   50.00000   50.00000   90.00000   90.00000   90.00000
LATT -1
SFAC C  
C      1  0.5156530000000  0.5599240000000  0.4234640000000 1.0
C      1  0.5006320000000  0.4561060000000  0.5739250000000 1.0
C      1  0.4656750000000  0.5099110000000  0.5109130000000 1.0
C      1  0.5087950000000  0.4732130000000  0.5521290000000 1.0
C      1  0.4952920000000  0.5601800000000  0.4039010000000 1.0
C      1  0.4704190000000  0.3681820000000  0.4560150000000 1.0
C      1  0.4835690000000  0.5734720000000  0.4751030000000 1.0
C      1  0.5553100000000  0.4651230000000  0.4765550000000 1.0
C      1  0.5808740000000  0.4279580000000  0.4591700000000 1.0
C      1  0.4227620000000  0.4767300000000  0.5306040000000 1.0
C      1  0.5786920000000  0.4961440000000  0.5314070000000 1.0
C      1  0.4450690000000  0.4906700000000  0.4563000000000 1.0
C      1  0.4296770000000  0.5312910000000  0.4316060000000 1.0
C      1  0.5496550000000  0.5494000000000  0.5827960000000 1.0
C      1  0.5209390000000  0.4457430000000  0.5902650000000 1.0
C      1  0.4902440000000  0.5264040000000  0.4642150000000 1.0
C      1  0.5384490000000  0.5616710000000  0.5352400000000 1.0
C      1  0.5044180000000  0.6414140000000  0.4941280000000 1.0
C      1  0.6038940000000  0.5116150000000  0.4784960000000 1.0
C      1  0.4944930000000  0.5962410000000  0.5943300000000 1.0
C      1  0.5165160000000  0.5367800000000  0.4667880000000 1.0
C      1  0.4251600000000  0.5050270000000  0.4192620000000 1.0
C      1  0.4761200000000  0.5519620000000  0.5988520000000 1.0
C      1  0.4873550000000  0.5256380000000  0.5185980000000 1.0
C      1  0.6018520000000  0.4873690000000  0.4917130000000 1.0
C      1  0.4875710000000  0.4906420000000  0.4076210000000 1.0
C      1  0.5249820000000  0.6248000000000  0.5624450000000 1.0
C      1  0.5458690000000  0.4798400000000  0.6135740000000 1.0
C      1  0.4262660000000  0.4627150000000  0.4850240000000 1.0
C      1  0.5561870000000  0.4332610000000  0.6207240000000 1.0
C      1  0.4960090000000  0.5787130000000  0.3837450000000 1.0
C      1  0.4738910000000  0.5412660000000  0.4048930000000 1.0
C      1  0.4077630000000  0.5455330000000  0.5362840000000 1.0
C      1  0.5257540000000  0.5575980000000  0.4493960000000 1.0
C      1  0.4266620000000  0.4436670000000  0.4634910000000 1.0
C      1  0.5609240000000  0.4604380000000  0.5041940000000 1.0
C      1  0.5132780000000  0.4651650000000  0.5244140000000 1.0
C      1  0.4237320000000  0.5341010000000  0.4604450000000 1.0
C      1  0.5475290000000  0.5112120000000  0.4928360000000 1.0
C      1  0.4365520000000  0.4812730000000  0.4304970000000 1.0
C      1  0.5385140000000  0.4509380000000  0.5197910000000 1.0
C      1  0.4816890000000  0.4639170000000  0.4016110000000 1.0
C      1  0.5804120000000  0.5423400000000  0.5458850000000 1.0
C      1  0.5566040000000  0.5544700000000  0.5562260000000 1.0
C      1  0.4340550000000  0.4531990000000  0.4353600000000 1.0
C      1  0.4752770000000  0.4620230000000  0.5854380000000 1.0
C      1  0.5955880000000  0.5378080000000  0.4747260000000 1.0
C      1  0.4781510000000  0.5281540000000  0.5846940000000 1.0
C      1  0.3913960000000  0.5655560000000  0.5420270000000 1.0
C      1  0.4663250000000  0.4808480000000  0.5104060000000 1.0
C      1  0.4516490000000  0.4660480000000  0.5695480000000 1.0
C      1  0.5332430000000  0.5791680000000  0.4674670000000 1.0
C      1  0.5181460000000  0.4060170000000  0.4615560000000 1.0
C      1  0.4664090000000  0.5855130000000  0.6317940000000 1.0
C      1  0.4495100000000  0.5465460000000  0.4183290000000 1.0
C      1  0.4227910000000  0.4892690000000  0.4746630000000 1.0
C      1  0.4979860000000  0.5242590000000  0.5646520000000 1.0
C      1  0.5142400000000  0.3834130000000  0.4778740000000 1.0
C      1  0.5472980000000  0.5310970000000  0.6020650000000 1.0
C      1  0.4801700000000  0.4843350000000  0.6308520000000 1.0
C      1  0.4463860000000  0.4074370000000  0.4387080000000 1.0
C      1  0.4732330000000  0.4842460000000  0.6046420000000 1.0
C      1  0.3753000000000  0.5852940000000  0.5475900000000 1.0
C      1  0.5055050000000  0.6170030000000  0.4850730000000 1.0
C      1  0.5411050000000  0.4260300000000  0.5313590000000 1.0
C      1  0.4425340000000  0.5261300000000  0.5063330000000 1.0
C      1  0.4312470000000  0.4151360000000  0.4620360000000 1.0
C      1  0.5325390000000  0.3760120000000  0.4967080000000 1.0
C      1  0.5535270000000  0.5708890000000  0.4874740000000 1.0
C      1  0.4769020000000  0.4389090000000  0.4133740000000 1.0
C      1  0.4947690000000  0.5383910000000  0.5408080000000 1.0
C      1  0.5473020000000  0.4485760000000  0.4100020000000 1.0
C      1  0.4645320000000  0.3860410000000  0.4351730000000 1.0
C      1  0.5584260000000  0.4446960000000  0.4570440000000 1.0
C      1  0.5097710000000  0.6110940000000  0.5785810000000 1.0
C      1  0.4508580000000  0.4326850000000  0.4238100000000 1.0
C      1  0.4981580000000  0.4784900000000  0.4766660000000 1.0
C      1  0.5515890000000  0.4928290000000  0.4711370000000 1.0
C      1  0.5867870000000  0.5140890000000  0.5526220000000 1.0
C      1  0.5848230000000  0.4751910000000  0.5128470000000 1.0
C      1  0.5406170000000  0.4398610000000  0.4351210000000 1.0
C      1  0.5412840000000  0.4525720000000  0.6084300000000 1.0
C      1  0.4443910000000  0.5404380000000  0.4802940000000 1.0
C      1  0.5118350000000  0.5000150000000  0.5606840000000 1.0
C      1  0.4252230000000  0.5249790000000  0.5295700000000 1.0
C      1  0.5312030000000  0.4994670000000  0.4266770000000 1.0
C      1  0.4969090000000  0.4192530000000  0.4197390000000 1.0
C      1  0.5358530000000  0.5563470000000  0.5074390000000 1.0
C      1  0.4276080000000  0.5006800000000  0.5456240000000 1.0
C      1  0.4909690000000  0.3682320000000  0.4732780000000 1.0
C      1  0.4928700000000  0.4712400000000  0.5038400000000 1.0
C      1  0.5789090000000  0.5416210000000  0.5166070000000 1.0
C      1  0.5038150000000  0.4946240000000  0.4303430000000 1.0
C      1  0.4075440000000  0.5126970000000  0.4714380000000 1.0
C      1  0.4788370000000  0.5780020000000  0.6086280000000 1.0
C      1  0.5467930000000  0.5063860000000  0.6119950000000 1.0
C      1  0.4711360000000  0.5473210000000  0.4717550000000 1.0
C      1  0.5664800000000  0.5153120000000  0.5129350000000 1.0
C      1  0.5793700000000  0.5559660000000  0.4911270000000 1.0
C      1  0.4432940000000  0.4945980000000  0.5686540000000 1.0
C      1  0.4863030000000  0.3927420000000  0.4179480000000 1.0
C      1  0.4781950000000  0.5145690000000  0.3961880000000 1.0
C      1  0.5511700000000  0.5008560000000  0.4443590000000 1.0
C      1  0.5291000000000  0.5325440000000  0.4916740000000 1.0
C      1  0.6013060000000  0.4121320000000  0.4625000000000 1.0
C      1  0.5071690000000  0.5906300000000  0.4761330000000 1.0
C      1  0.4609660000000  0.5060920000000  0.5891490000000 1.0
C      1  0.4932560000000  0.4984690000000  0.4567430000000 1.0
C      1  0.4401180000000  0.4672030000000  0.5101160000000 1.0
C      1  0.5182490000000  0.4226690000000  0.4387020000000 1.0
END
