TITL C-627106-156-2079 281449.721735048 125000 -601.964184664525 0 0 101 (C1) n - 1
REM
REM in /home/nfs/bkarasulu/CARBON/AIRSS/Generating-Clusters/LCBOP/Only-C1/SD-CG/FIRE-CG
REM
REM
REM
REM
REM
REM ./C.cell (11c1c37f851c82e70ff6c80c92926a4b)
REM AIRSS Version 0.9.1 bugfix July 2018 build 013d7b7c2542+ Fri, 06 Jul 2018 19:26:36 +0100
REM compiler GCC version 9.2.1 20190827 (Red Hat 9.2.1-1)
REM options -cpp -mtune=generic -march=x86-64 -g -O0 -fpre-include=/usr/include/finclude/math-vector-fortran.h
REM seed 200151078 -875961382 -1365607650 -394392624 -1604850997 769276753 -608656336 -505676116 -1240876760 -1755493994 -1345814132 -1614944083 1098390259 1638059162 2114904039 1203962933 -975897893 -1836480487 -28208083 -1385971609 -2087582060 1314014250 676102277 747987 -1934560041 -377573779 1149257543 -665110805 -455324359 584128649 2085432839 -1571343951 -1383060752
REM
CELL 1.54180   50.00000   50.00000   50.00000   90.00000   90.00000   90.00000
LATT -1
SFAC C  
C      1  0.4609180000000  0.5931640000000  0.5006270000000 1.0
C      1  0.5544910000000  0.4570100000000  0.4522070000000 1.0
C      1  0.5049820000000  0.5873850000000  0.5267320000000 1.0
C      1  0.5463750000000  0.5591740000000  0.5321070000000 1.0
C      1  0.4987160000000  0.5423950000000  0.4134870000000 1.0
C      1  0.4687750000000  0.4422360000000  0.4787120000000 1.0
C      1  0.4612100000000  0.4356450000000  0.4501460000000 1.0
C      1  0.4384850000000  0.5568900000000  0.5354810000000 1.0
C      1  0.4001830000000  0.4914410000000  0.4853630000000 1.0
C      1  0.4859630000000  0.5107400000000  0.5793520000000 1.0
C      1  0.6051760000000  0.5158390000000  0.4411390000000 1.0
C      1  0.4488560000000  0.4744510000000  0.3906390000000 1.0
C      1  0.5443950000000  0.4262410000000  0.5063530000000 1.0
C      1  0.5086720000000  0.4039840000000  0.5288880000000 1.0
C      1  0.5751640000000  0.4802230000000  0.5493440000000 1.0
C      1  0.5558410000000  0.5570510000000  0.5057660000000 1.0
C      1  0.4880650000000  0.5804970000000  0.4520180000000 1.0
C      1  0.5577300000000  0.4851620000000  0.5268020000000 1.0
C      1  0.5142370000000  0.5175520000000  0.4138650000000 1.0
C      1  0.4166510000000  0.4477650000000  0.4969540000000 1.0
C      1  0.5301340000000  0.5864170000000  0.4755430000000 1.0
C      1  0.5553480000000  0.5076960000000  0.4417240000000 1.0
C      1  0.5127910000000  0.4892910000000  0.3748230000000 1.0
C      1  0.6031460000000  0.5304500000000  0.5045260000000 1.0
C      1  0.4526250000000  0.4769630000000  0.3649740000000 1.0
C      1  0.5156280000000  0.4711010000000  0.5888240000000 1.0
C      1  0.4904880000000  0.5947840000000  0.5014370000000 1.0
C      1  0.4654130000000  0.4326490000000  0.5598250000000 1.0
C      1  0.5667170000000  0.4893290000000  0.4827830000000 1.0
C      1  0.4108620000000  0.4545930000000  0.5479620000000 1.0
C      1  0.4947720000000  0.4307190000000  0.4916150000000 1.0
C      1  0.5335340000000  0.4775580000000  0.5682510000000 1.0
C      1  0.4051740000000  0.4643350000000  0.4760900000000 1.0
C      1  0.5353460000000  0.4019540000000  0.5198940000000 1.0
C      1  0.5459240000000  0.5236020000000  0.5656040000000 1.0
C      1  0.4035860000000  0.4906890000000  0.5142540000000 1.0
C      1  0.4912600000000  0.5735530000000  0.5716330000000 1.0
C      1  0.6223470000000  0.5210470000000  0.4876590000000 1.0
C      1  0.4890790000000  0.5114950000000  0.4621200000000 1.0
C      1  0.4560190000000  0.4179480000000  0.5792030000000 1.0
C      1  0.5668960000000  0.4385360000000  0.5217250000000 1.0
C      1  0.5080160000000  0.5338240000000  0.4581380000000 1.0
C      1  0.4911210000000  0.4240270000000  0.5196780000000 1.0
C      1  0.4365890000000  0.5310030000000  0.5223970000000 1.0
C      1  0.4275920000000  0.4710350000000  0.5617080000000 1.0
C      1  0.5738640000000  0.5340940000000  0.4980090000000 1.0
C      1  0.5027710000000  0.5927350000000  0.4745480000000 1.0
C      1  0.5179180000000  0.4237510000000  0.6140840000000 1.0
C      1  0.4167330000000  0.5147260000000  0.4442980000000 1.0
C      1  0.5355170000000  0.5462660000000  0.5817340000000 1.0
C      1  0.4611210000000  0.5892580000000  0.4515920000000 1.0
C      1  0.5202430000000  0.5696640000000  0.5739000000000 1.0
C      1  0.5112990000000  0.5439680000000  0.4863620000000 1.0
C      1  0.5078990000000  0.4782190000000  0.5250570000000 1.0
C      1  0.5381810000000  0.5316670000000  0.5380480000000 1.0
C      1  0.5240450000000  0.4339100000000  0.4838590000000 1.0
C      1  0.5577070000000  0.4952230000000  0.5700950000000 1.0
C      1  0.4949750000000  0.4896260000000  0.5928940000000 1.0
C      1  0.4882150000000  0.5706390000000  0.5425890000000 1.0
C      1  0.4448000000000  0.5793400000000  0.5192110000000 1.0
C      1  0.4470140000000  0.4549400000000  0.4351430000000 1.0
C      1  0.5757110000000  0.5403880000000  0.4677060000000 1.0
C      1  0.5315020000000  0.4750670000000  0.5391360000000 1.0
C      1  0.5592910000000  0.4838190000000  0.4566730000000 1.0
C      1  0.4197910000000  0.5082120000000  0.5302860000000 1.0
C      1  0.4966290000000  0.5558260000000  0.4395070000000 1.0
C      1  0.5104570000000  0.4973700000000  0.5044040000000 1.0
C      1  0.4066770000000  0.4612680000000  0.5208880000000 1.0
C      1  0.4894110000000  0.5436080000000  0.5358110000000 1.0
C      1  0.4997340000000  0.4205560000000  0.4262910000000 1.0
C      1  0.5308730000000  0.4426000000000  0.4566200000000 1.0
C      1  0.5511560000000  0.3800080000000  0.5230960000000 1.0
C      1  0.5123840000000  0.4915940000000  0.4021620000000 1.0
C      1  0.5345000000000  0.5616050000000  0.4876830000000 1.0
C      1  0.4780090000000  0.4426540000000  0.5370440000000 1.0
C      1  0.4627340000000  0.4920190000000  0.5302100000000 1.0
C      1  0.5175640000000  0.4475110000000  0.6034620000000 1.0
C      1  0.4387590000000  0.4920840000000  0.5467800000000 1.0
C      1  0.5783250000000  0.5245670000000  0.4446390000000 1.0
C      1  0.4315040000000  0.5004930000000  0.4273160000000 1.0
C      1  0.6233850000000  0.5145740000000  0.4613560000000 1.0
C      1  0.4751320000000  0.4712400000000  0.4805540000000 1.0
C      1  0.4858170000000  0.5351060000000  0.5089990000000 1.0
C      1  0.5806350000000  0.4517870000000  0.5429630000000 1.0
C      1  0.4927020000000  0.4926390000000  0.4821600000000 1.0
C      1  0.4752280000000  0.4156590000000  0.4362230000000 1.0
C      1  0.4817250000000  0.4706670000000  0.5320450000000 1.0
C      1  0.5119880000000  0.4677680000000  0.4180130000000 1.0
C      1  0.4032220000000  0.5123000000000  0.4672480000000 1.0
C      1  0.5310640000000  0.5167710000000  0.5121470000000 1.0
C      1  0.5587070000000  0.5061340000000  0.5052650000000 1.0
C      1  0.5306250000000  0.5809450000000  0.5407290000000 1.0
C      1  0.4425350000000  0.4765660000000  0.4177670000000 1.0
C      1  0.4424870000000  0.4368050000000  0.4936840000000 1.0
C      1  0.4623220000000  0.5175770000000  0.5128790000000 1.0
C      1  0.4881520000000  0.5253040000000  0.5572150000000 1.0
C      1  0.5294800000000  0.5195620000000  0.4393060000000 1.0
C      1  0.4438300000000  0.5605110000000  0.5637700000000 1.0
C      1  0.5145400000000  0.4434760000000  0.4329330000000 1.0
C      1  0.4494890000000  0.5972480000000  0.4747820000000 1.0
C      1  0.4643250000000  0.5686470000000  0.5804490000000 1.0
END
