TITL C-627111-6168-726 -5.75680269365116e-07 125000 -408.427893521381 0 0 67 (C1) n - 1
REM
REM in /home/nfs/bkarasulu/CARBON/AIRSS/Generating-Clusters/LCBOP/Only-C1/SD-CG/FIRE-CG
REM
REM
REM
REM
REM
REM ./C.cell (11c1c37f851c82e70ff6c80c92926a4b)
REM AIRSS Version 0.9.1 bugfix July 2018 build 013d7b7c2542+ Fri, 06 Jul 2018 19:26:36 +0100
REM compiler GCC version 9.2.1 20190827 (Red Hat 9.2.1-1)
REM options -cpp -mtune=generic -march=x86-64 -g -O0 -fpre-include=/usr/include/finclude/math-vector-fortran.h
REM seed 2145104693 56099764 -1726377910 555082664 -1958938271 -1944366499 -211073790 -694619047 247432729 441824958 -2065422248 -495662655 -1742665281 -508781285 1443813160 1449888411 -1985411248 -629433038 354987531 552244440 -1621320236 -1230150111 -418660144 -79345905 34463145 -582297606 1999079338 -1873431088 2024505059 693698013 163879985 1476155590 1432342455
REM
CELL 1.54180   50.00000   50.00000   50.00000   90.00000   90.00000   90.00000
LATT -1
SFAC C  
C      1  0.4969590000000  0.5089180000000  0.4273560000000 1.0
C      1  0.4778770000000  0.4671960000000  0.5064190000000 1.0
C      1  0.4580910000000  0.5598790000000  0.5043570000000 1.0
C      1  0.5141990000000  0.5182310000000  0.5148080000000 1.0
C      1  0.4548510000000  0.5271570000000  0.4409090000000 1.0
C      1  0.5213350000000  0.5455430000000  0.4757470000000 1.0
C      1  0.5026920000000  0.4764640000000  0.4593600000000 1.0
C      1  0.5067230000000  0.4142550000000  0.4491260000000 1.0
C      1  0.5358740000000  0.5028600000000  0.5071140000000 1.0
C      1  0.4257780000000  0.4805460000000  0.4726950000000 1.0
C      1  0.5296880000000  0.5669240000000  0.4930920000000 1.0
C      1  0.4477430000000  0.5523520000000  0.5312770000000 1.0
C      1  0.5783060000000  0.5526250000000  0.5026140000000 1.0
C      1  0.5564790000000  0.4306890000000  0.5499200000000 1.0
C      1  0.4862700000000  0.4955520000000  0.5509630000000 1.0
C      1  0.4531790000000  0.5349520000000  0.4895540000000 1.0
C      1  0.4729530000000  0.5495900000000  0.4445030000000 1.0
C      1  0.4172980000000  0.4850340000000  0.5220400000000 1.0
C      1  0.5420820000000  0.4780720000000  0.4950450000000 1.0
C      1  0.4801770000000  0.5745640000000  0.4928320000000 1.0
C      1  0.4585020000000  0.4520260000000  0.4914340000000 1.0
C      1  0.4532850000000  0.4326740000000  0.5327400000000 1.0
C      1  0.4925570000000  0.5470740000000  0.5471960000000 1.0
C      1  0.5590920000000  0.4656480000000  0.5154320000000 1.0
C      1  0.4723650000000  0.4794700000000  0.4550320000000 1.0
C      1  0.4293470000000  0.5222970000000  0.4996860000000 1.0
C      1  0.4183930000000  0.4959810000000  0.4950590000000 1.0
C      1  0.4660360000000  0.5546560000000  0.5523900000000 1.0
C      1  0.5167070000000  0.4564610000000  0.5372340000000 1.0
C      1  0.4688140000000  0.5022580000000  0.4369540000000 1.0
C      1  0.4547370000000  0.4557320000000  0.5480020000000 1.0
C      1  0.5188980000000  0.5532260000000  0.4481550000000 1.0
C      1  0.5446320000000  0.4501860000000  0.5349500000000 1.0
C      1  0.4578950000000  0.4264720000000  0.5044980000000 1.0
C      1  0.5126310000000  0.4410280000000  0.4900720000000 1.0
C      1  0.5007610000000  0.4518380000000  0.5142150000000 1.0
C      1  0.5335410000000  0.5714870000000  0.5508330000000 1.0
C      1  0.4982460000000  0.5199560000000  0.5392090000000 1.0
C      1  0.5571050000000  0.5683930000000  0.4982910000000 1.0
C      1  0.4581640000000  0.4851670000000  0.5496650000000 1.0
C      1  0.5066850000000  0.5804460000000  0.4502180000000 1.0
C      1  0.5538110000000  0.5595690000000  0.5634850000000 1.0
C      1  0.4805100000000  0.5735960000000  0.4624300000000 1.0
C      1  0.5806460000000  0.4822550000000  0.5239070000000 1.0
C      1  0.5126990000000  0.4848490000000  0.4324330000000 1.0
C      1  0.5763750000000  0.5388670000000  0.6006160000000 1.0
C      1  0.5194050000000  0.4596100000000  0.4207240000000 1.0
C      1  0.4766580000000  0.5188200000000  0.4886840000000 1.0
C      1  0.5224640000000  0.4651940000000  0.4777030000000 1.0
C      1  0.5883470000000  0.5295670000000  0.5117430000000 1.0
C      1  0.4329800000000  0.5273950000000  0.5295080000000 1.0
C      1  0.5057330000000  0.4748930000000  0.5556420000000 1.0
C      1  0.5000360000000  0.4192790000000  0.4767650000000 1.0
C      1  0.5031840000000  0.5284960000000  0.4898910000000 1.0
C      1  0.5063600000000  0.5752480000000  0.5086100000000 1.0
C      1  0.5699780000000  0.5390580000000  0.5740230000000 1.0
C      1  0.5049960000000  0.3879350000000  0.4397190000000 1.0
C      1  0.5794840000000  0.5187420000000  0.5570250000000 1.0
C      1  0.4994440000000  0.5373190000000  0.4337430000000 1.0
C      1  0.5030980000000  0.3633380000000  0.4313190000000 1.0
C      1  0.4504090000000  0.4668470000000  0.4688240000000 1.0
C      1  0.4766920000000  0.4092750000000  0.4910480000000 1.0
C      1  0.4749620000000  0.4942420000000  0.5019910000000 1.0
C      1  0.5851550000000  0.5092970000000  0.5311260000000 1.0
C      1  0.4349520000000  0.5000050000000  0.5405670000000 1.0
C      1  0.5094460000000  0.5678590000000  0.5367190000000 1.0
C      1  0.5152280000000  0.4345670000000  0.4307530000000 1.0
END
