TITL C-627108-131-540 1.01488515744445 125000 -758.365346443238 0 0 124 (C1) n - 1
REM
REM in /home/nfs/bkarasulu/CARBON/AIRSS/Generating-Clusters/LCBOP/Only-C1/SD-CG/FIRE-CG
REM
REM
REM
REM
REM
REM ./C.cell (11c1c37f851c82e70ff6c80c92926a4b)
REM AIRSS Version 0.9.1 bugfix July 2018 build 013d7b7c2542+ Fri, 06 Jul 2018 19:26:36 +0100
REM compiler GCC version 9.2.1 20190827 (Red Hat 9.2.1-1)
REM options -cpp -mtune=generic -march=x86-64 -g -O0 -fpre-include=/usr/include/finclude/math-vector-fortran.h
REM seed 670620762 -975431031 -1509746029 -1137826773 243927673 -242458952 1781495981 -906819521 793321247 -1523417941 -373339145 -268536547 -826138219 -1295260521 -1333912199 -7487036 -1719353245 1293254899 -1542795353 -1036263501 1684520311 415668195 957914108 -1187020861 1033509096 1524030323 1323251 117610888 -673844884 -607063949 1252123012 -880644754 828408171
REM
CELL 1.54180   50.00000   50.00000   50.00000   90.00000   90.00000   90.00000
LATT -1
SFAC C  
C      1  0.4379870000000  0.4675710000000  0.5788000000000 1.0
C      1  0.5800480000000  0.5369560000000  0.5749780000000 1.0
C      1  0.3958870000000  0.4848430000000  0.4641940000000 1.0
C      1  0.5432780000000  0.4552110000000  0.5637260000000 1.0
C      1  0.5299230000000  0.4661980000000  0.4960550000000 1.0
C      1  0.5301330000000  0.4413000000000  0.4449020000000 1.0
C      1  0.6054610000000  0.5465760000000  0.5779000000000 1.0
C      1  0.4620390000000  0.5806250000000  0.4837580000000 1.0
C      1  0.5456900000000  0.5420500000000  0.5056390000000 1.0
C      1  0.4847600000000  0.4225660000000  0.4393660000000 1.0
C      1  0.5577200000000  0.4379010000000  0.3634290000000 1.0
C      1  0.4270280000000  0.4937240000000  0.5723220000000 1.0
C      1  0.4612920000000  0.4607450000000  0.5371160000000 1.0
C      1  0.5559720000000  0.4768190000000  0.4005880000000 1.0
C      1  0.4745260000000  0.5300640000000  0.5233020000000 1.0
C      1  0.5279520000000  0.4750040000000  0.5426640000000 1.0
C      1  0.4369500000000  0.5688160000000  0.5635380000000 1.0
C      1  0.4861860000000  0.5912670000000  0.5320520000000 1.0
C      1  0.5632880000000  0.5603780000000  0.4646100000000 1.0
C      1  0.4112210000000  0.5306630000000  0.4692480000000 1.0
C      1  0.5097540000000  0.4819380000000  0.5852400000000 1.0
C      1  0.4937200000000  0.5428070000000  0.5399510000000 1.0
C      1  0.5173280000000  0.3744020000000  0.5097470000000 1.0
C      1  0.5620040000000  0.6937970000000  0.5213700000000 1.0
C      1  0.4460580000000  0.5129800000000  0.5635310000000 1.0
C      1  0.4730550000000  0.4379420000000  0.4977000000000 1.0
C      1  0.4644220000000  0.5669260000000  0.5699100000000 1.0
C      1  0.4048200000000  0.5162420000000  0.4234750000000 1.0
C      1  0.5609680000000  0.5401430000000  0.5952950000000 1.0
C      1  0.5450760000000  0.5628020000000  0.4164180000000 1.0
C      1  0.4151960000000  0.5670220000000  0.4247190000000 1.0
C      1  0.5236350000000  0.3909060000000  0.5318250000000 1.0
C      1  0.4614430000000  0.4123910000000  0.4957120000000 1.0
C      1  0.5456250000000  0.4095390000000  0.5295160000000 1.0
C      1  0.5838010000000  0.4891310000000  0.4642250000000 1.0
C      1  0.5528580000000  0.5651770000000  0.4904830000000 1.0
C      1  0.5058590000000  0.6361590000000  0.5543470000000 1.0
C      1  0.5199690000000  0.4795900000000  0.4732570000000 1.0
C      1  0.5509990000000  0.5704830000000  0.4414410000000 1.0
C      1  0.5991990000000  0.4554170000000  0.4937880000000 1.0
C      1  0.4519040000000  0.4642580000000  0.6030140000000 1.0
C      1  0.4848540000000  0.5362590000000  0.6102140000000 1.0
C      1  0.4721460000000  0.5559630000000  0.5946620000000 1.0
C      1  0.5563450000000  0.4763450000000  0.5036510000000 1.0
C      1  0.5382200000000  0.5404750000000  0.6089990000000 1.0
C      1  0.4732210000000  0.4056550000000  0.4205650000000 1.0
C      1  0.5600900000000  0.5371800000000  0.5295470000000 1.0
C      1  0.4074790000000  0.5235860000000  0.4959920000000 1.0
C      1  0.4302300000000  0.5721110000000  0.4477880000000 1.0
C      1  0.5214990000000  0.4684610000000  0.4469220000000 1.0
C      1  0.5553370000000  0.4314210000000  0.4558540000000 1.0
C      1  0.3954750000000  0.4686940000000  0.4863180000000 1.0
C      1  0.4323050000000  0.5489120000000  0.4653930000000 1.0
C      1  0.5246390000000  0.4586410000000  0.5872300000000 1.0
C      1  0.4459290000000  0.4887540000000  0.5021730000000 1.0
C      1  0.4707840000000  0.4444140000000  0.4504870000000 1.0
C      1  0.4675840000000  0.4888060000000  0.4054950000000 1.0
C      1  0.5267600000000  0.5244220000000  0.4938460000000 1.0
C      1  0.4716400000000  0.5124480000000  0.6172850000000 1.0
C      1  0.4041670000000  0.5437830000000  0.4162780000000 1.0
C      1  0.5489360000000  0.4288950000000  0.5502490000000 1.0
C      1  0.5105330000000  0.5056590000000  0.4800700000000 1.0
C      1  0.5818420000000  0.4688670000000  0.4425530000000 1.0
C      1  0.5778190000000  0.4825000000000  0.4177670000000 1.0
C      1  0.5133770000000  0.3795360000000  0.4835590000000 1.0
C      1  0.4841620000000  0.5682520000000  0.5488980000000 1.0
C      1  0.4479490000000  0.3901540000000  0.4941030000000 1.0
C      1  0.5514730000000  0.5399090000000  0.4014540000000 1.0
C      1  0.4110440000000  0.4649070000000  0.5386890000000 1.0
C      1  0.4794370000000  0.5130170000000  0.4455940000000 1.0
C      1  0.5021890000000  0.4000720000000  0.5474160000000 1.0
C      1  0.4416090000000  0.4888250000000  0.3995460000000 1.0
C      1  0.4755570000000  0.5909700000000  0.5058390000000 1.0
C      1  0.5561580000000  0.4118160000000  0.5032250000000 1.0
C      1  0.4709080000000  0.5318050000000  0.4944740000000 1.0
C      1  0.5723190000000  0.5234520000000  0.5513180000000 1.0
C      1  0.4697060000000  0.4565510000000  0.4758070000000 1.0
C      1  0.5809460000000  0.4422130000000  0.4521650000000 1.0
C      1  0.5566600000000  0.6424980000000  0.5111800000000 1.0
C      1  0.4128790000000  0.5589420000000  0.5571910000000 1.0
C      1  0.4850230000000  0.4458120000000  0.5246520000000 1.0
C      1  0.5707640000000  0.4952680000000  0.5500370000000 1.0
C      1  0.3896680000000  0.5132850000000  0.5496550000000 1.0
C      1  0.5323080000000  0.4924750000000  0.4049630000000 1.0
C      1  0.5096700000000  0.5233610000000  0.5536510000000 1.0
C      1  0.5688720000000  0.4726660000000  0.5684120000000 1.0
C      1  0.5328050000000  0.5194130000000  0.3961060000000 1.0
C      1  0.4886490000000  0.4226770000000  0.5432010000000 1.0
C      1  0.4871220000000  0.4960190000000  0.4241660000000 1.0
C      1  0.4023580000000  0.5099480000000  0.4512560000000 1.0
C      1  0.5132650000000  0.4843930000000  0.4244960000000 1.0
C      1  0.5998900000000  0.4373320000000  0.4731810000000 1.0
C      1  0.5111780000000  0.4190840000000  0.4486020000000 1.0
C      1  0.5506120000000  0.5909620000000  0.5006960000000 1.0
C      1  0.5571850000000  0.4572360000000  0.3808920000000 1.0
C      1  0.4007580000000  0.4610970000000  0.5120940000000 1.0
C      1  0.4640350000000  0.4841820000000  0.4809090000000 1.0
C      1  0.4477380000000  0.5914530000000  0.4606400000000 1.0
C      1  0.4605750000000  0.5110910000000  0.5393970000000 1.0
C      1  0.4588510000000  0.4865080000000  0.5267700000000 1.0
C      1  0.4809660000000  0.5095410000000  0.4755500000000 1.0
C      1  0.4977250000000  0.6145930000000  0.5421810000000 1.0
C      1  0.5123710000000  0.5389460000000  0.6149670000000 1.0
C      1  0.4550510000000  0.5522520000000  0.4830500000000 1.0
C      1  0.5781040000000  0.5304390000000  0.4043500000000 1.0
C      1  0.5869320000000  0.5145570000000  0.4511640000000 1.0
C      1  0.5488270000000  0.4116510000000  0.4759570000000 1.0
C      1  0.5131440000000  0.4958850000000  0.5600360000000 1.0
C      1  0.5528740000000  0.4866640000000  0.5294900000000 1.0
C      1  0.5123170000000  0.4610200000000  0.5199420000000 1.0
C      1  0.5811300000000  0.4774680000000  0.4901640000000 1.0
C      1  0.4371380000000  0.4546400000000  0.5520240000000 1.0
C      1  0.4555970000000  0.4396160000000  0.6141590000000 1.0
C      1  0.4225700000000  0.5034930000000  0.5046020000000 1.0
C      1  0.5856000000000  0.5102960000000  0.4223080000000 1.0
C      1  0.4045050000000  0.4898530000000  0.5540430000000 1.0
C      1  0.5227400000000  0.4006060000000  0.4677010000000 1.0
C      1  0.4175460000000  0.4981370000000  0.4063010000000 1.0
C      1  0.4620910000000  0.4875930000000  0.6153180000000 1.0
C      1  0.5595190000000  0.6683700000000  0.5161820000000 1.0
C      1  0.4624090000000  0.3895760000000  0.4031390000000 1.0
C      1  0.5823150000000  0.5398210000000  0.4617870000000 1.0
C      1  0.3950460000000  0.5395870000000  0.5520660000000 1.0
C      1  0.5529140000000  0.6166340000000  0.5067950000000 1.0
END
