TITL C-627108-131-621 -1.6812319169559e-07 125000 -86.3667965824397 0 0 16 (C1) n - 1
REM
REM in /home/nfs/bkarasulu/CARBON/AIRSS/Generating-Clusters/LCBOP/Only-C1/SD-CG/FIRE-CG
REM
REM
REM
REM
REM
REM ./C.cell (11c1c37f851c82e70ff6c80c92926a4b)
REM AIRSS Version 0.9.1 bugfix July 2018 build 013d7b7c2542+ Fri, 06 Jul 2018 19:26:36 +0100
REM compiler GCC version 9.2.1 20190827 (Red Hat 9.2.1-1)
REM options -cpp -mtune=generic -march=x86-64 -g -O0 -fpre-include=/usr/include/finclude/math-vector-fortran.h
REM seed 420973752 963686958 610713023 524132063 2020737799 865167336 1424305533 691475619 -1813937957 -1704537799 -332939959 -769944846 1322594790 139290637 917817837 224357659 1997089629 1195473485 417462768 393793329 1520406872 1943583311 -925216387 -613340248 -2107413903 -919969089 1487430574 -110725279 -2079860552 -1972573564 -33246701 -1335132779 1335961989
REM
CELL 1.54180   50.00000   50.00000   50.00000   90.00000   90.00000   90.00000
LATT -1
SFAC C  
C      1  0.5207080000000  0.4858230000000  0.5244770000000 1.0
C      1  0.5356890000000  0.5126700000000  0.5232040000000 1.0
C      1  0.5008760000000  0.5166010000000  0.4801580000000 1.0
C      1  0.5157370000000  0.5339060000000  0.5229300000000 1.0
C      1  0.4490660000000  0.5082380000000  0.5247390000000 1.0
C      1  0.4927440000000  0.5257200000000  0.5069670000000 1.0
C      1  0.5247260000000  0.4996730000000  0.4807610000000 1.0
C      1  0.4872860000000  0.5233430000000  0.4569020000000 1.0
C      1  0.4741760000000  0.5295350000000  0.4352480000000 1.0
C      1  0.4938190000000  0.4877890000000  0.5347430000000 1.0
C      1  0.4766100000000  0.5072740000000  0.5223930000000 1.0
C      1  0.5470440000000  0.5123570000000  0.4956460000000 1.0
C      1  0.4230850000000  0.5092650000000  0.5265050000000 1.0
C      1  0.5214190000000  0.4749540000000  0.4967800000000 1.0
C      1  0.5195510000000  0.4487870000000  0.4882610000000 1.0
C      1  0.5174640000000  0.4240660000000  0.4802850000000 1.0
END
