TITL C-627106-156-477 6.11708372316719e-08 125000 -239.033472282908 0 0 40 (C1) n - 1
REM
REM in /home/nfs/bkarasulu/CARBON/AIRSS/Generating-Clusters/LCBOP/Only-C1/SD-CG/FIRE-CG
REM
REM
REM
REM
REM
REM ./C.cell (11c1c37f851c82e70ff6c80c92926a4b)
REM AIRSS Version 0.9.1 bugfix July 2018 build 013d7b7c2542+ Fri, 06 Jul 2018 19:26:36 +0100
REM compiler GCC version 9.2.1 20190827 (Red Hat 9.2.1-1)
REM options -cpp -mtune=generic -march=x86-64 -g -O0 -fpre-include=/usr/include/finclude/math-vector-fortran.h
REM seed 310169946 2087770896 -1929114971 1464540957 860648370 1094426718 -350287528 1159577284 -562494884 -2000544420 -1538102229 -2020034428 1536927570 -962738135 -1065770014 -8187802 71773778 468618610 2062153184 -40909437 -122293859 -1568263726 396910898 262659874 -1701130227 1046670234 -56560002 -1116662856 714499745 -457853603 57489992 -263277682 -572267983
REM
CELL 1.54180   50.00000   50.00000   50.00000   90.00000   90.00000   90.00000
LATT -1
SFAC C  
C      1  0.4100340000000  0.5701760000000  0.4726520000000 1.0
C      1  0.4466090000000  0.4761920000000  0.5048580000000 1.0
C      1  0.3903660000000  0.5866260000000  0.4679410000000 1.0
C      1  0.4820760000000  0.4996400000000  0.4666020000000 1.0
C      1  0.4404760000000  0.4776410000000  0.4761100000000 1.0
C      1  0.4300080000000  0.5534530000000  0.4774780000000 1.0
C      1  0.4582140000000  0.5277220000000  0.5096500000000 1.0
C      1  0.4488910000000  0.5016620000000  0.5176360000000 1.0
C      1  0.5054110000000  0.5253420000000  0.5004000000000 1.0
C      1  0.5630620000000  0.5048430000000  0.4904420000000 1.0
C      1  0.4840380000000  0.5373520000000  0.5167690000000 1.0
C      1  0.4883200000000  0.4515980000000  0.5532110000000 1.0
C      1  0.4772170000000  0.4455230000000  0.5297130000000 1.0
C      1  0.5592600000000  0.4975190000000  0.4409380000000 1.0
C      1  0.5475960000000  0.5049220000000  0.5384510000000 1.0
C      1  0.5512880000000  0.5189190000000  0.5128110000000 1.0
C      1  0.5490280000000  0.4491670000000  0.4957110000000 1.0
C      1  0.5344450000000  0.4640330000000  0.5145270000000 1.0
C      1  0.5311380000000  0.5376910000000  0.5060270000000 1.0
C      1  0.4507090000000  0.5358140000000  0.4828620000000 1.0
C      1  0.4977620000000  0.5578140000000  0.5329830000000 1.0
C      1  0.5031400000000  0.4431410000000  0.4651500000000 1.0
C      1  0.5178460000000  0.4891590000000  0.5730160000000 1.0
C      1  0.5438350000000  0.4859360000000  0.4216970000000 1.0
C      1  0.5492480000000  0.4604560000000  0.4699590000000 1.0
C      1  0.5313510000000  0.5114610000000  0.5616030000000 1.0
C      1  0.4669290000000  0.5235880000000  0.4628630000000 1.0
C      1  0.5490610000000  0.4766730000000  0.5348770000000 1.0
C      1  0.5270640000000  0.4525980000000  0.4528350000000 1.0
C      1  0.5021920000000  0.5534000000000  0.5604430000000 1.0
C      1  0.5600510000000  0.4877150000000  0.4676620000000 1.0
C      1  0.4669470000000  0.4754300000000  0.4639150000000 1.0
C      1  0.5283520000000  0.4641300000000  0.4269030000000 1.0
C      1  0.5231440000000  0.5621610000000  0.5187930000000 1.0
C      1  0.4674040000000  0.4546160000000  0.5051570000000 1.0
C      1  0.5017300000000  0.5003140000000  0.4880900000000 1.0
C      1  0.5213180000000  0.5365330000000  0.5693790000000 1.0
C      1  0.4795610000000  0.4524100000000  0.4777190000000 1.0
C      1  0.5127230000000  0.4787320000000  0.5029990000000 1.0
C      1  0.5021550000000  0.4678990000000  0.5691640000000 1.0
END
