TITL C-627107-135-1148 12065.4376466848 125000 -935.778979586306 0 0 154 (C1) n - 1
REM
REM in /home/nfs/bkarasulu/CARBON/AIRSS/Generating-Clusters/LCBOP/Only-C1/SD-CG/FIRE-CG
REM
REM
REM
REM
REM
REM ./C.cell (11c1c37f851c82e70ff6c80c92926a4b)
REM AIRSS Version 0.9.1 bugfix July 2018 build 013d7b7c2542+ Fri, 06 Jul 2018 19:26:36 +0100
REM compiler GCC version 9.2.1 20190827 (Red Hat 9.2.1-1)
REM options -cpp -mtune=generic -march=x86-64 -g -O0 -fpre-include=/usr/include/finclude/math-vector-fortran.h
REM seed -1434584315 862774466 -1724750307 1279016305 1346515233 -1543688945 -685101096 -1071255202 -1898533640 -676979507 917750511 254261851 -1813625691 413775127 435167181 -336716310 1358391915 1596321881 1083731108 -566518538 -905809664 -462854469 971206917 -1955525261 -50633635 -795109625 -835990054 -1969527197 274035871 -618088205 -1860968654 -1686253205 2002410394
REM
CELL 1.54180   50.00000   50.00000   50.00000   90.00000   90.00000   90.00000
LATT -1
SFAC C  
C      1  0.5222940000000  0.3887920000000  0.5135630000000 1.0
C      1  0.5210340000000  0.4071730000000  0.4331380000000 1.0
C      1  0.5011610000000  0.4855550000000  0.4309200000000 1.0
C      1  0.5010800000000  0.4524270000000  0.4895090000000 1.0
C      1  0.5133720000000  0.3913410000000  0.5396370000000 1.0
C      1  0.5995590000000  0.3783320000000  0.5681280000000 1.0
C      1  0.5950220000000  0.5338330000000  0.5430770000000 1.0
C      1  0.4683420000000  0.5509410000000  0.5094280000000 1.0
C      1  0.5498900000000  0.5118570000000  0.4612840000000 1.0
C      1  0.4770480000000  0.4166820000000  0.5129080000000 1.0
C      1  0.4707000000000  0.5834560000000  0.5448640000000 1.0
C      1  0.5106610000000  0.3925560000000  0.4869010000000 1.0
C      1  0.4567260000000  0.5068890000000  0.4406750000000 1.0
C      1  0.5134750000000  0.6231470000000  0.4043030000000 1.0
C      1  0.4646310000000  0.3764790000000  0.4839760000000 1.0
C      1  0.4357690000000  0.5756170000000  0.4425020000000 1.0
C      1  0.3993270000000  0.4884320000000  0.5663730000000 1.0
C      1  0.4614070000000  0.4003570000000  0.4285360000000 1.0
C      1  0.5673890000000  0.5317770000000  0.5538660000000 1.0
C      1  0.4291050000000  0.4572320000000  0.5196410000000 1.0
C      1  0.5218160000000  0.6465940000000  0.4148100000000 1.0
C      1  0.5268160000000  0.4761970000000  0.4160590000000 1.0
C      1  0.4666620000000  0.5102070000000  0.5930370000000 1.0
C      1  0.4158820000000  0.4765870000000  0.4343560000000 1.0
C      1  0.5422280000000  0.4756740000000  0.5974360000000 1.0
C      1  0.5016620000000  0.5507820000000  0.5642420000000 1.0
C      1  0.4756380000000  0.5787820000000  0.5162760000000 1.0
C      1  0.4425820000000  0.5507340000000  0.4273380000000 1.0
C      1  0.5051910000000  0.4422050000000  0.4627820000000 1.0
C      1  0.5967590000000  0.4915210000000  0.4915770000000 1.0
C      1  0.3751670000000  0.5298350000000  0.5119720000000 1.0
C      1  0.5897460000000  0.5153550000000  0.4321050000000 1.0
C      1  0.4436280000000  0.5782760000000  0.5534430000000 1.0
C      1  0.4555200000000  0.4127430000000  0.5309590000000 1.0
C      1  0.5315270000000  0.6383080000000  0.4623060000000 1.0
C      1  0.4070340000000  0.4972440000000  0.5009770000000 1.0
C      1  0.5298650000000  0.5331250000000  0.4592890000000 1.0
C      1  0.4821980000000  0.4633060000000  0.4262020000000 1.0
C      1  0.5549600000000  0.5219480000000  0.5087630000000 1.0
C      1  0.4613490000000  0.4236830000000  0.4444370000000 1.0
C      1  0.4828500000000  0.4420790000000  0.4447230000000 1.0
C      1  0.5664890000000  0.4919720000000  0.5892220000000 1.0
C      1  0.5338260000000  0.4510650000000  0.4587110000000 1.0
C      1  0.4279260000000  0.5958160000000  0.5032620000000 1.0
C      1  0.4659210000000  0.4741160000000  0.3292970000000 1.0
C      1  0.4799750000000  0.4630710000000  0.6044970000000 1.0
C      1  0.4719860000000  0.4838880000000  0.3825730000000 1.0
C      1  0.5906130000000  0.4597600000000  0.6156370000000 1.0
C      1  0.5486000000000  0.4475300000000  0.5970770000000 1.0
C      1  0.4776240000000  0.5343420000000  0.5302400000000 1.0
C      1  0.5139470000000  0.5989680000000  0.5636000000000 1.0
C      1  0.5019170000000  0.4702040000000  0.5519250000000 1.0
C      1  0.4569830000000  0.3650110000000  0.4609440000000 1.0
C      1  0.3976390000000  0.4730460000000  0.4550420000000 1.0
C      1  0.4506830000000  0.4747310000000  0.5179130000000 1.0
C      1  0.4277130000000  0.5579120000000  0.5387760000000 1.0
C      1  0.4099480000000  0.5740810000000  0.4570250000000 1.0
C      1  0.5914370000000  0.4783460000000  0.5936090000000 1.0
C      1  0.5272760000000  0.5527080000000  0.5263810000000 1.0
C      1  0.5295130000000  0.6023250000000  0.5400240000000 1.0
C      1  0.4540220000000  0.5905020000000  0.4603560000000 1.0
C      1  0.5302600000000  0.5189880000000  0.5907510000000 1.0
C      1  0.4852370000000  0.4210180000000  0.5750320000000 1.0
C      1  0.4275940000000  0.5157540000000  0.4939500000000 1.0
C      1  0.4890320000000  0.4908980000000  0.6030400000000 1.0
C      1  0.4667220000000  0.5116500000000  0.5412590000000 1.0
C      1  0.5763880000000  0.4640810000000  0.4263910000000 1.0
C      1  0.4793210000000  0.5807890000000  0.4695440000000 1.0
C      1  0.4604930000000  0.4844080000000  0.5421460000000 1.0
C      1  0.6091860000000  0.3541740000000  0.5699420000000 1.0
C      1  0.5815790000000  0.4370650000000  0.4649550000000 1.0
C      1  0.5520290000000  0.4346420000000  0.5712670000000 1.0
C      1  0.5155040000000  0.4522980000000  0.3994080000000 1.0
C      1  0.4963650000000  0.4388160000000  0.5139790000000 1.0
C      1  0.4823150000000  0.3961290000000  0.4932900000000 1.0
C      1  0.4967940000000  0.5333680000000  0.4266710000000 1.0
C      1  0.4857830000000  0.5506400000000  0.4068370000000 1.0
C      1  0.4990570000000  0.4021960000000  0.5605020000000 1.0
C      1  0.4253230000000  0.5310690000000  0.5550140000000 1.0
C      1  0.5545550000000  0.4825390000000  0.4216950000000 1.0
C      1  0.5549170000000  0.4335450000000  0.4654550000000 1.0
C      1  0.4047410000000  0.5102710000000  0.5481010000000 1.0
C      1  0.4967650000000  0.5762320000000  0.4041510000000 1.0
C      1  0.4687100000000  0.4788480000000  0.3547700000000 1.0
C      1  0.5897630000000  0.4028560000000  0.5660350000000 1.0
C      1  0.4756590000000  0.5360820000000  0.4861750000000 1.0
C      1  0.5762120000000  0.4796550000000  0.5103550000000 1.0
C      1  0.4421320000000  0.4832620000000  0.4447870000000 1.0
C      1  0.4861450000000  0.4613500000000  0.3974990000000 1.0
C      1  0.5043110000000  0.4988170000000  0.5024450000000 1.0
C      1  0.5506050000000  0.5387640000000  0.5306970000000 1.0
C      1  0.4747390000000  0.4666150000000  0.5589730000000 1.0
C      1  0.5577000000000  0.5177030000000  0.5787650000000 1.0
C      1  0.5625580000000  0.5072090000000  0.4346400000000 1.0
C      1  0.5250460000000  0.6111290000000  0.4667960000000 1.0
C      1  0.4398770000000  0.4773600000000  0.4730020000000 1.0
C      1  0.5349900000000  0.4793150000000  0.4681670000000 1.0
C      1  0.5693210000000  0.4423370000000  0.6164500000000 1.0
C      1  0.5970430000000  0.5418470000000  0.5145310000000 1.0
C      1  0.4573750000000  0.3747200000000  0.4358180000000 1.0
C      1  0.4585580000000  0.5400840000000  0.4033270000000 1.0
C      1  0.5951770000000  0.5210700000000  0.4924100000000 1.0
C      1  0.5380260000000  0.5973780000000  0.5132610000000 1.0
C      1  0.5119540000000  0.4478070000000  0.5371990000000 1.0
C      1  0.5204530000000  0.5962050000000  0.4429150000000 1.0
C      1  0.5856350000000  0.4590230000000  0.5267930000000 1.0
C      1  0.5931610000000  0.4502890000000  0.5521610000000 1.0
C      1  0.5850970000000  0.5681410000000  0.5088170000000 1.0
C      1  0.4201800000000  0.5685530000000  0.5103990000000 1.0
C      1  0.5178850000000  0.6007160000000  0.4925780000000 1.0
C      1  0.4456920000000  0.5227280000000  0.5781530000000 1.0
C      1  0.4788500000000  0.5074920000000  0.4921490000000 1.0
C      1  0.5509430000000  0.4948160000000  0.5165500000000 1.0
C      1  0.5068710000000  0.5445140000000  0.4499820000000 1.0
C      1  0.3814240000000  0.5468970000000  0.4916220000000 1.0
C      1  0.5103020000000  0.5252450000000  0.5729770000000 1.0
C      1  0.5122470000000  0.4968480000000  0.5507900000000 1.0
C      1  0.4933230000000  0.5789330000000  0.5635830000000 1.0
C      1  0.5337910000000  0.4358940000000  0.5499600000000 1.0
C      1  0.6172690000000  0.5296180000000  0.5584480000000 1.0
C      1  0.5025830000000  0.5460520000000  0.5358180000000 1.0
C      1  0.5227530000000  0.4975870000000  0.5248040000000 1.0
C      1  0.5641410000000  0.5857250000000  0.5084500000000 1.0
C      1  0.5206780000000  0.4255760000000  0.4120340000000 1.0
C      1  0.4751280000000  0.4475620000000  0.5808650000000 1.0
C      1  0.5672630000000  0.5236490000000  0.4834830000000 1.0
C      1  0.3919070000000  0.5090940000000  0.5220170000000 1.0
C      1  0.4401490000000  0.6053340000000  0.4808490000000 1.0
C      1  0.5104910000000  0.5976510000000  0.4162290000000 1.0
C      1  0.6096680000000  0.5030580000000  0.4461290000000 1.0
C      1  0.4904660000000  0.5912930000000  0.4947430000000 1.0
C      1  0.4324510000000  0.5920330000000  0.5743580000000 1.0
C      1  0.4058830000000  0.4614400000000  0.5600330000000 1.0
C      1  0.4086910000000  0.5567040000000  0.4823250000000 1.0
C      1  0.5914310000000  0.4593340000000  0.4509720000000 1.0
C      1  0.5196920000000  0.4937810000000  0.6026590000000 1.0
C      1  0.5788940000000  0.4282660000000  0.5633860000000 1.0
C      1  0.3871330000000  0.4939430000000  0.5903350000000 1.0
C      1  0.4847950000000  0.5084970000000  0.4326220000000 1.0
C      1  0.6044740000000  0.4687240000000  0.5704200000000 1.0
C      1  0.4411150000000  0.5300760000000  0.4477810000000 1.0
C      1  0.4271670000000  0.5340640000000  0.4729750000000 1.0
C      1  0.5184200000000  0.6143370000000  0.5857580000000 1.0
C      1  0.5297230000000  0.6531280000000  0.4397870000000 1.0
C      1  0.4399210000000  0.4269710000000  0.4612330000000 1.0
C      1  0.4196300000000  0.4441240000000  0.5425940000000 1.0
C      1  0.4103520000000  0.4768950000000  0.4808050000000 1.0
C      1  0.5138110000000  0.4782130000000  0.4868530000000 1.0
C      1  0.4580920000000  0.4863590000000  0.4929400000000 1.0
C      1  0.5188070000000  0.3961630000000  0.4588130000000 1.0
C      1  0.6034350000000  0.4818350000000  0.4645790000000 1.0
C      1  0.4335880000000  0.4197170000000  0.5453150000000 1.0
C      1  0.4867300000000  0.5534940000000  0.4667430000000 1.0
C      1  0.4604400000000  0.5111770000000  0.3915060000000 1.0
END
