TITL C-627110-360-523 -91.1302167158885 125000 -812.739362572871 0 0 135 (C1) n - 1
REM
REM in /home/nfs/bkarasulu/CARBON/AIRSS/Generating-Clusters/LCBOP/Only-C1/SD-CG/FIRE-CG
REM
REM
REM
REM
REM
REM ./C.cell (11c1c37f851c82e70ff6c80c92926a4b)
REM AIRSS Version 0.9.1 bugfix July 2018 build 013d7b7c2542+ Fri, 06 Jul 2018 19:26:36 +0100
REM compiler GCC version 9.2.1 20190827 (Red Hat 9.2.1-1)
REM options -cpp -mtune=generic -march=x86-64 -g -O0 -fpre-include=/usr/include/finclude/math-vector-fortran.h
REM seed -1864391978 2004758865 606984 -1565213795 -159433957 -912514463 -1993377800 -1420203065 -810998997 1641303871 -2063106166 -1709572386 -1062024993 -954232280 1411640165 -2085507479 689100138 1753120314 -2078555528 -1376534875 -1018474033 -381209217 -921223714 -1047816837 1382266063 -1285766345 -119442396 -417619761 1215154111 446414617 -2029076281 -1836325059 -226149773
REM
CELL 1.54180   50.00000   50.00000   50.00000   90.00000   90.00000   90.00000
LATT -1
SFAC C  
C      1  0.5016890000000  0.4487060000000  0.5583720000000 1.0
C      1  0.4033430000000  0.4790770000000  0.4758170000000 1.0
C      1  0.5923820000000  0.4543520000000  0.4893080000000 1.0
C      1  0.5454180000000  0.4717030000000  0.4316810000000 1.0
C      1  0.5741140000000  0.5349090000000  0.3732440000000 1.0
C      1  0.5580720000000  0.5124250000000  0.4835950000000 1.0
C      1  0.4300700000000  0.4820330000000  0.5904780000000 1.0
C      1  0.4884030000000  0.4392100000000  0.4210900000000 1.0
C      1  0.5413970000000  0.5788150000000  0.5105510000000 1.0
C      1  0.5598830000000  0.4535800000000  0.4491340000000 1.0
C      1  0.5564040000000  0.4228670000000  0.5001220000000 1.0
C      1  0.4583760000000  0.5156640000000  0.4416570000000 1.0
C      1  0.4383600000000  0.5100960000000  0.5939720000000 1.0
C      1  0.4823580000000  0.5331980000000  0.5570810000000 1.0
C      1  0.5957920000000  0.5340120000000  0.4378370000000 1.0
C      1  0.4979700000000  0.4899750000000  0.4001860000000 1.0
C      1  0.4948470000000  0.5744660000000  0.5833780000000 1.0
C      1  0.4332250000000  0.5282040000000  0.5721340000000 1.0
C      1  0.4818820000000  0.5087650000000  0.5424120000000 1.0
C      1  0.5479830000000  0.4275370000000  0.4482540000000 1.0
C      1  0.4271610000000  0.6083440000000  0.5222510000000 1.0
C      1  0.4660400000000  0.5209960000000  0.4853560000000 1.0
C      1  0.4754230000000  0.3972830000000  0.4394120000000 1.0
C      1  0.4833450000000  0.4572170000000  0.4690130000000 1.0
C      1  0.4851860000000  0.5453920000000  0.6749050000000 1.0
C      1  0.4594980000000  0.4665920000000  0.4879010000000 1.0
C      1  0.4970490000000  0.4757200000000  0.6327720000000 1.0
C      1  0.4474700000000  0.4676710000000  0.4327270000000 1.0
C      1  0.5556250000000  0.4617190000000  0.5260400000000 1.0
C      1  0.5244130000000  0.4662530000000  0.4934270000000 1.0
C      1  0.5318690000000  0.5151490000000  0.4737270000000 1.0
C      1  0.5868930000000  0.5503020000000  0.3909260000000 1.0
C      1  0.5325590000000  0.6032840000000  0.5044570000000 1.0
C      1  0.5634440000000  0.5588020000000  0.5094050000000 1.0
C      1  0.5641770000000  0.5275400000000  0.5120930000000 1.0
C      1  0.5328450000000  0.5159690000000  0.5600120000000 1.0
C      1  0.5773010000000  0.4968640000000  0.4677390000000 1.0
C      1  0.5232590000000  0.5561230000000  0.4530880000000 1.0
C      1  0.4209820000000  0.4529220000000  0.5179540000000 1.0
C      1  0.4940160000000  0.5560830000000  0.5090960000000 1.0
C      1  0.5086700000000  0.5314390000000  0.4642560000000 1.0
C      1  0.5247060000000  0.4147200000000  0.4424830000000 1.0
C      1  0.5725320000000  0.5614950000000  0.4799210000000 1.0
C      1  0.4543380000000  0.3973500000000  0.4860890000000 1.0
C      1  0.5097940000000  0.5730080000000  0.4353710000000 1.0
C      1  0.5103940000000  0.5325320000000  0.5664340000000 1.0
C      1  0.4321100000000  0.4563540000000  0.5757410000000 1.0
C      1  0.6003730000000  0.5536080000000  0.4806070000000 1.0
C      1  0.4711780000000  0.4879100000000  0.5573470000000 1.0
C      1  0.5448830000000  0.4489240000000  0.5035380000000 1.0
C      1  0.4778060000000  0.6007640000000  0.4035460000000 1.0
C      1  0.6106290000000  0.5348750000000  0.4979620000000 1.0
C      1  0.4435260000000  0.5682290000000  0.5439680000000 1.0
C      1  0.4490510000000  0.5954940000000  0.5354790000000 1.0
C      1  0.5009900000000  0.4502000000000  0.5293360000000 1.0
C      1  0.4078380000000  0.5243460000000  0.5599630000000 1.0
C      1  0.4922360000000  0.5761830000000  0.5299880000000 1.0
C      1  0.4862760000000  0.5132310000000  0.4415340000000 1.0
C      1  0.4152250000000  0.4992130000000  0.4586500000000 1.0
C      1  0.5691760000000  0.4855880000000  0.5723760000000 1.0
C      1  0.4555830000000  0.4076920000000  0.5331060000000 1.0
C      1  0.3962710000000  0.5086490000000  0.5412930000000 1.0
C      1  0.5140900000000  0.4040480000000  0.5203430000000 1.0
C      1  0.4555430000000  0.4395760000000  0.5821000000000 1.0
C      1  0.4791780000000  0.4850800000000  0.5841320000000 1.0
C      1  0.5945330000000  0.5500110000000  0.4165090000000 1.0
C      1  0.4382170000000  0.4935390000000  0.4400630000000 1.0
C      1  0.4195070000000  0.5278650000000  0.4673910000000 1.0
C      1  0.5005730000000  0.3934280000000  0.5429510000000 1.0
C      1  0.4531250000000  0.4000910000000  0.4218700000000 1.0
C      1  0.5458870000000  0.4926630000000  0.3853770000000 1.0
C      1  0.4767350000000  0.4622150000000  0.4379360000000 1.0
C      1  0.5012800000000  0.5764860000000  0.5571290000000 1.0
C      1  0.5400930000000  0.4894170000000  0.5727730000000 1.0
C      1  0.4861530000000  0.4355220000000  0.3673890000000 1.0
C      1  0.4079100000000  0.4954750000000  0.5195190000000 1.0
C      1  0.4374340000000  0.5305920000000  0.5188340000000 1.0
C      1  0.5206390000000  0.4787010000000  0.4429780000000 1.0
C      1  0.4499040000000  0.4161270000000  0.5064480000000 1.0
C      1  0.4484350000000  0.5305980000000  0.4643080000000 1.0
C      1  0.6035970000000  0.4709400000000  0.5099180000000 1.0
C      1  0.5126800000000  0.6211540000000  0.5032350000000 1.0
C      1  0.4553320000000  0.4715100000000  0.5419080000000 1.0
C      1  0.5582670000000  0.4790470000000  0.4071520000000 1.0
C      1  0.4353700000000  0.4198540000000  0.4174610000000 1.0
C      1  0.5472880000000  0.5154610000000  0.5342430000000 1.0
C      1  0.4952750000000  0.4873810000000  0.4293370000000 1.0
C      1  0.6022620000000  0.4886340000000  0.4269290000000 1.0
C      1  0.5905550000000  0.4885610000000  0.5552780000000 1.0
C      1  0.4880390000000  0.4395440000000  0.3930760000000 1.0
C      1  0.4881710000000  0.4810990000000  0.6088560000000 1.0
C      1  0.4036680000000  0.4721150000000  0.5040120000000 1.0
C      1  0.5830730000000  0.5695110000000  0.5297320000000 1.0
C      1  0.5599400000000  0.5124040000000  0.3713040000000 1.0
C      1  0.4716830000000  0.5431300000000  0.6221840000000 1.0
C      1  0.4973740000000  0.4152950000000  0.4344750000000 1.0
C      1  0.4285200000000  0.5559510000000  0.5227790000000 1.0
C      1  0.4104990000000  0.5953330000000  0.5048770000000 1.0
C      1  0.4906920000000  0.4312830000000  0.4843930000000 1.0
C      1  0.4768670000000  0.4069680000000  0.5521050000000 1.0
C      1  0.4871390000000  0.6202790000000  0.5116880000000 1.0
C      1  0.4942400000000  0.5872470000000  0.4193500000000 1.0
C      1  0.4065390000000  0.5493720000000  0.4805890000000 1.0
C      1  0.4547560000000  0.5460060000000  0.5609800000000 1.0
C      1  0.5505550000000  0.5616000000000  0.4613060000000 1.0
C      1  0.5002920000000  0.4274430000000  0.5110850000000 1.0
C      1  0.5840580000000  0.4271350000000  0.4942160000000 1.0
C      1  0.5217610000000  0.4662790000000  0.5709830000000 1.0
C      1  0.5865550000000  0.4776290000000  0.4079590000000 1.0
C      1  0.4899110000000  0.5368580000000  0.4879300000000 1.0
C      1  0.4325740000000  0.4460900000000  0.4224660000000 1.0
C      1  0.5516650000000  0.4875310000000  0.5298190000000 1.0
C      1  0.5404240000000  0.4017550000000  0.5100870000000 1.0
C      1  0.4984890000000  0.4996380000000  0.5218790000000 1.0
C      1  0.5772660000000  0.4674370000000  0.4683550000000 1.0
C      1  0.4615420000000  0.6139350000000  0.3880020000000 1.0
C      1  0.4685700000000  0.3886830000000  0.4652050000000 1.0
C      1  0.4750740000000  0.5988760000000  0.5250970000000 1.0
C      1  0.5943310000000  0.5188850000000  0.5154890000000 1.0
C      1  0.4302540000000  0.4583870000000  0.5461010000000 1.0
C      1  0.4122230000000  0.5671870000000  0.5021980000000 1.0
C      1  0.4555630000000  0.4948680000000  0.4956880000000 1.0
C      1  0.5937980000000  0.5074850000000  0.4465250000000 1.0
C      1  0.5994240000000  0.4930640000000  0.5279570000000 1.0
C      1  0.5978400000000  0.5795620000000  0.5486860000000 1.0
C      1  0.4783330000000  0.5449620000000  0.6493170000000 1.0
C      1  0.4798680000000  0.4309700000000  0.5685580000000 1.0
C      1  0.5181350000000  0.4909260000000  0.3827510000000 1.0
C      1  0.4832590000000  0.5619510000000  0.6042680000000 1.0
C      1  0.5074830000000  0.4741910000000  0.5153060000000 1.0
C      1  0.4433530000000  0.4439710000000  0.5013450000000 1.0
C      1  0.4539400000000  0.5224050000000  0.6141610000000 1.0
C      1  0.5120360000000  0.4693580000000  0.4688490000000 1.0
C      1  0.4919990000000  0.5455980000000  0.7000680000000 1.0
C      1  0.4342560000000  0.5042040000000  0.5128440000000 1.0
END
