TITL C-627106-156-1933 -15.1390378266326 125000 -987.274491997232 0 0 161 (C1) n - 1
REM
REM in /home/nfs/bkarasulu/CARBON/AIRSS/Generating-Clusters/LCBOP/Only-C1/SD-CG/FIRE-CG
REM
REM
REM
REM
REM
REM ./C.cell (11c1c37f851c82e70ff6c80c92926a4b)
REM AIRSS Version 0.9.1 bugfix July 2018 build 013d7b7c2542+ Fri, 06 Jul 2018 19:26:36 +0100
REM compiler GCC version 9.2.1 20190827 (Red Hat 9.2.1-1)
REM options -cpp -mtune=generic -march=x86-64 -g -O0 -fpre-include=/usr/include/finclude/math-vector-fortran.h
REM seed 1428292513 -58291326 -2142163125 -2140679172 -13492427 -611671317 721509686 -884816195 1496082594 -165434468 -714235263 -725903816 -2106729772 2058039108 -309842799 -295901761 27092165 1169043873 -2104313805 -772377952 839424268 2011723353 -675049028 617901345 -1491645167 1515515646 525220344 -320942547 1769773524 1067837809 -1344566162 -918013969 -1893949685
REM
CELL 1.54180   50.00000   50.00000   50.00000   90.00000   90.00000   90.00000
LATT -1
SFAC C  
C      1  0.4667560000000  0.4761840000000  0.4000910000000 1.0
C      1  0.4726830000000  0.3798880000000  0.4207400000000 1.0
C      1  0.4529320000000  0.5794070000000  0.5758680000000 1.0
C      1  0.5414200000000  0.4374970000000  0.5187230000000 1.0
C      1  0.4970670000000  0.4313420000000  0.4661550000000 1.0
C      1  0.4605170000000  0.3874750000000  0.3982270000000 1.0
C      1  0.6049860000000  0.5019680000000  0.4474730000000 1.0
C      1  0.4923100000000  0.5636290000000  0.6304700000000 1.0
C      1  0.5076480000000  0.6115710000000  0.5464300000000 1.0
C      1  0.5899570000000  0.4607990000000  0.5701480000000 1.0
C      1  0.4166000000000  0.6199600000000  0.5039460000000 1.0
C      1  0.4809260000000  0.4994500000000  0.3946170000000 1.0
C      1  0.4475780000000  0.4590830000000  0.4403860000000 1.0
C      1  0.4468620000000  0.4578960000000  0.5949840000000 1.0
C      1  0.4592220000000  0.6172760000000  0.5271980000000 1.0
C      1  0.4361810000000  0.4793220000000  0.5101940000000 1.0
C      1  0.5647070000000  0.5023520000000  0.5455320000000 1.0
C      1  0.4046650000000  0.4876110000000  0.4758910000000 1.0
C      1  0.4969410000000  0.5257310000000  0.4481640000000 1.0
C      1  0.5423190000000  0.5782690000000  0.5613910000000 1.0
C      1  0.5615520000000  0.4901630000000  0.5997650000000 1.0
C      1  0.5390120000000  0.5434290000000  0.4578120000000 1.0
C      1  0.5525390000000  0.5544180000000  0.4348740000000 1.0
C      1  0.4766080000000  0.5086330000000  0.4578720000000 1.0
C      1  0.5319710000000  0.5333100000000  0.5859060000000 1.0
C      1  0.5033490000000  0.4889680000000  0.5130210000000 1.0
C      1  0.5280530000000  0.4122390000000  0.5235010000000 1.0
C      1  0.4319090000000  0.6105660000000  0.5252960000000 1.0
C      1  0.5404250000000  0.4542440000000  0.4668150000000 1.0
C      1  0.4119640000000  0.5547680000000  0.5766610000000 1.0
C      1  0.5841030000000  0.4439200000000  0.5464010000000 1.0
C      1  0.4536990000000  0.5287290000000  0.6256850000000 1.0
C      1  0.3947990000000  0.5433660000000  0.4657440000000 1.0
C      1  0.4026360000000  0.6265580000000  0.4829530000000 1.0
C      1  0.3825030000000  0.4832750000000  0.4904300000000 1.0
C      1  0.4569120000000  0.5084770000000  0.5486980000000 1.0
C      1  0.4264260000000  0.4365270000000  0.5385820000000 1.0
C      1  0.4988090000000  0.4144700000000  0.4420160000000 1.0
C      1  0.4920000000000  0.4690170000000  0.5298250000000 1.0
C      1  0.5580390000000  0.4324570000000  0.4562600000000 1.0
C      1  0.3843660000000  0.4080370000000  0.4876320000000 1.0
C      1  0.5875740000000  0.5703440000000  0.4752450000000 1.0
C      1  0.5010150000000  0.5684590000000  0.3949330000000 1.0
C      1  0.4649790000000  0.5344710000000  0.5465210000000 1.0
C      1  0.6188970000000  0.4640780000000  0.5181460000000 1.0
C      1  0.5322630000000  0.5588440000000  0.4801620000000 1.0
C      1  0.6188160000000  0.4788860000000  0.4934580000000 1.0
C      1  0.5365980000000  0.4970310000000  0.4444450000000 1.0
C      1  0.4845070000000  0.4459240000000  0.5147600000000 1.0
C      1  0.5021700000000  0.3806330000000  0.4884940000000 1.0
C      1  0.5047840000000  0.5611510000000  0.4881820000000 1.0
C      1  0.6060020000000  0.5267300000000  0.5389890000000 1.0
C      1  0.4358900000000  0.4139590000000  0.5492300000000 1.0
C      1  0.5658220000000  0.4951250000000  0.4805300000000 1.0
C      1  0.5192060000000  0.5946840000000  0.5657250000000 1.0
C      1  0.6010590000000  0.4180720000000  0.5082890000000 1.0
C      1  0.5494810000000  0.5022560000000  0.5020490000000 1.0
C      1  0.6123690000000  0.5333020000000  0.5137410000000 1.0
C      1  0.4945190000000  0.5519470000000  0.4375420000000 1.0
C      1  0.4379160000000  0.4096430000000  0.4823800000000 1.0
C      1  0.3812090000000  0.4979430000000  0.5381890000000 1.0
C      1  0.4963390000000  0.4756620000000  0.5575690000000 1.0
C      1  0.4960180000000  0.5734050000000  0.4209290000000 1.0
C      1  0.5930810000000  0.4559830000000  0.4258860000000 1.0
C      1  0.4102820000000  0.4076520000000  0.4849190000000 1.0
C      1  0.4564570000000  0.4045990000000  0.5636720000000 1.0
C      1  0.6027970000000  0.4407720000000  0.5244010000000 1.0
C      1  0.5047150000000  0.5015670000000  0.5633780000000 1.0
C      1  0.4511630000000  0.4348530000000  0.4813510000000 1.0
C      1  0.4152880000000  0.5504120000000  0.6051060000000 1.0
C      1  0.4543420000000  0.3867350000000  0.4798550000000 1.0
C      1  0.4709590000000  0.4457020000000  0.5856350000000 1.0
C      1  0.5683190000000  0.5335900000000  0.4223280000000 1.0
C      1  0.5188250000000  0.4060840000000  0.5496250000000 1.0
C      1  0.4960230000000  0.4588210000000  0.5799210000000 1.0
C      1  0.4527300000000  0.4070710000000  0.3819170000000 1.0
C      1  0.5539110000000  0.4883430000000  0.3991740000000 1.0
C      1  0.6269540000000  0.4767520000000  0.5425950000000 1.0
C      1  0.3955250000000  0.5387320000000  0.5189680000000 1.0
C      1  0.6141320000000  0.5009210000000  0.4756610000000 1.0
C      1  0.4701580000000  0.4674530000000  0.4266180000000 1.0
C      1  0.4511840000000  0.5091760000000  0.4710420000000 1.0
C      1  0.5232810000000  0.5227000000000  0.3919230000000 1.0
C      1  0.4942470000000  0.5842200000000  0.4725340000000 1.0
C      1  0.5470570000000  0.5812790000000  0.4276290000000 1.0
C      1  0.5070150000000  0.5278820000000  0.5723420000000 1.0
C      1  0.5697270000000  0.5887590000000  0.5184790000000 1.0
C      1  0.5364200000000  0.4555500000000  0.4971320000000 1.0
C      1  0.3961210000000  0.5216670000000  0.5419620000000 1.0
C      1  0.4228510000000  0.5357640000000  0.4191060000000 1.0
C      1  0.5528520000000  0.4807400000000  0.4599110000000 1.0
C      1  0.4856940000000  0.3893950000000  0.4435750000000 1.0
C      1  0.4510380000000  0.5412600000000  0.4238170000000 1.0
C      1  0.5113300000000  0.4546600000000  0.4577970000000 1.0
C      1  0.4357520000000  0.4828260000000  0.5862540000000 1.0
C      1  0.5202390000000  0.5991930000000  0.4649450000000 1.0
C      1  0.4329590000000  0.4445130000000  0.6146560000000 1.0
C      1  0.5183940000000  0.4403900000000  0.5835410000000 1.0
C      1  0.5290010000000  0.4826520000000  0.5045580000000 1.0
C      1  0.4344920000000  0.4848990000000  0.4805330000000 1.0
C      1  0.5918990000000  0.5067740000000  0.5533860000000 1.0
C      1  0.4444280000000  0.5484320000000  0.5002910000000 1.0
C      1  0.4421330000000  0.4582240000000  0.4676930000000 1.0
C      1  0.4792420000000  0.5701930000000  0.5753740000000 1.0
C      1  0.5423980000000  0.5859470000000  0.4802550000000 1.0
C      1  0.5667030000000  0.4110830000000  0.4721610000000 1.0
C      1  0.4847730000000  0.5446370000000  0.5646320000000 1.0
C      1  0.6099600000000  0.5277740000000  0.4863570000000 1.0
C      1  0.3741160000000  0.4846680000000  0.5158810000000 1.0
C      1  0.5676530000000  0.4642120000000  0.5894710000000 1.0
C      1  0.5239390000000  0.5202030000000  0.4520570000000 1.0
C      1  0.5689340000000  0.5865780000000  0.4900320000000 1.0
C      1  0.5311850000000  0.6009260000000  0.4383250000000 1.0
C      1  0.5095080000000  0.4957870000000  0.3909130000000 1.0
C      1  0.4509420000000  0.4329210000000  0.3756750000000 1.0
C      1  0.4139910000000  0.5270730000000  0.3947380000000 1.0
C      1  0.6064380000000  0.4833990000000  0.5615810000000 1.0
C      1  0.4106480000000  0.5268640000000  0.5660560000000 1.0
C      1  0.5010040000000  0.5850530000000  0.5859760000000 1.0
C      1  0.4951550000000  0.4695000000000  0.4400750000000 1.0
C      1  0.4948840000000  0.5402410000000  0.5030320000000 1.0
C      1  0.5551020000000  0.5724310000000  0.5364980000000 1.0
C      1  0.4803800000000  0.3809950000000  0.4704530000000 1.0
C      1  0.5198690000000  0.3941720000000  0.5033980000000 1.0
C      1  0.4746480000000  0.5436360000000  0.6332670000000 1.0
C      1  0.5112730000000  0.4264810000000  0.4185580000000 1.0
C      1  0.4935140000000  0.5144130000000  0.5087470000000 1.0
C      1  0.5551840000000  0.5183530000000  0.5242120000000 1.0
C      1  0.5215320000000  0.4471880000000  0.4037830000000 1.0
C      1  0.5572560000000  0.4500980000000  0.5387560000000 1.0
C      1  0.5910360000000  0.5275850000000  0.4413250000000 1.0
C      1  0.4455730000000  0.5375570000000  0.4743940000000 1.0
C      1  0.5520530000000  0.5178860000000  0.4023320000000 1.0
C      1  0.4533760000000  0.5490800000000  0.5254480000000 1.0
C      1  0.5063660000000  0.4157590000000  0.5728120000000 1.0
C      1  0.5517010000000  0.4770640000000  0.5467030000000 1.0
C      1  0.5451720000000  0.4462300000000  0.5900490000000 1.0
C      1  0.5037820000000  0.5815030000000  0.6138140000000 1.0
C      1  0.4046730000000  0.5397910000000  0.4408720000000 1.0
C      1  0.5741770000000  0.4389430000000  0.4339780000000 1.0
C      1  0.5450060000000  0.5577010000000  0.5807770000000 1.0
C      1  0.6047240000000  0.4794270000000  0.4310060000000 1.0
C      1  0.4772010000000  0.4179820000000  0.5768690000000 1.0
C      1  0.4851160000000  0.6181240000000  0.5335850000000 1.0
C      1  0.4203350000000  0.5935590000000  0.5445780000000 1.0
C      1  0.4789700000000  0.4352590000000  0.4886430000000 1.0
C      1  0.4536760000000  0.5546250000000  0.4516640000000 1.0
C      1  0.4266290000000  0.5765280000000  0.5658560000000 1.0
C      1  0.3923830000000  0.5438800000000  0.4926310000000 1.0
C      1  0.4556040000000  0.4585210000000  0.3815470000000 1.0
C      1  0.4745080000000  0.5276120000000  0.4007030000000 1.0
C      1  0.5964630000000  0.5446610000000  0.4663990000000 1.0
C      1  0.5520430000000  0.5456610000000  0.5276570000000 1.0
C      1  0.5465490000000  0.5124600000000  0.5985200000000 1.0
C      1  0.4305130000000  0.5264240000000  0.6101640000000 1.0
C      1  0.4293710000000  0.4609220000000  0.5283310000000 1.0
C      1  0.4686330000000  0.5786310000000  0.4600690000000 1.0
C      1  0.5283080000000  0.4739630000000  0.3961690000000 1.0
C      1  0.5000500000000  0.5409090000000  0.3900580000000 1.0
C      1  0.4249140000000  0.5091600000000  0.5865930000000 1.0
C      1  0.5857080000000  0.4059420000000  0.4901890000000 1.0
END
