TITL C-627107-135-2067 0.0310406224328028 125000 -1181.6343219555 0 0 191 (C1) n - 1
REM
REM in /home/nfs/bkarasulu/CARBON/AIRSS/Generating-Clusters/LCBOP/Only-C1/SD-CG/FIRE-CG
REM
REM
REM
REM
REM
REM ./C.cell (11c1c37f851c82e70ff6c80c92926a4b)
REM AIRSS Version 0.9.1 bugfix July 2018 build 013d7b7c2542+ Fri, 06 Jul 2018 19:26:36 +0100
REM compiler GCC version 9.2.1 20190827 (Red Hat 9.2.1-1)
REM options -cpp -mtune=generic -march=x86-64 -g -O0 -fpre-include=/usr/include/finclude/math-vector-fortran.h
REM seed -817505139 -1637036250 -1479370904 -565523848 1396869242 811556813 -2141583045 1421302768 -1120854659 964244360 235991563 1335001896 -85952283 780853131 521767178 -1026111944 -1062485414 -404918113 -750517474 -1719849476 2112445159 -1427223164 -980869309 -116230506 850825744 732943851 -1607824628 1470314625 2048935493 -831155417 1076499723 1895358998 -804014581
REM
CELL 1.54180   50.00000   50.00000   50.00000   90.00000   90.00000   90.00000
LATT -1
SFAC C  
C      1  0.5815920000000  0.5049810000000  0.5177960000000 1.0
C      1  0.6389610000000  0.5136580000000  0.5165230000000 1.0
C      1  0.4834010000000  0.5389690000000  0.3765600000000 1.0
C      1  0.6047170000000  0.5577870000000  0.4517280000000 1.0
C      1  0.5772700000000  0.5095120000000  0.3983120000000 1.0
C      1  0.4207560000000  0.4985520000000  0.5632370000000 1.0
C      1  0.3973800000000  0.4014530000000  0.4761610000000 1.0
C      1  0.5705110000000  0.4735810000000  0.4783090000000 1.0
C      1  0.5292280000000  0.5626750000000  0.5635650000000 1.0
C      1  0.4664590000000  0.4289690000000  0.6220430000000 1.0
C      1  0.4681500000000  0.4054560000000  0.4526800000000 1.0
C      1  0.5539810000000  0.5085410000000  0.4517910000000 1.0
C      1  0.5378220000000  0.3681390000000  0.4242690000000 1.0
C      1  0.3821200000000  0.5105010000000  0.4788790000000 1.0
C      1  0.4626210000000  0.5299490000000  0.4843290000000 1.0
C      1  0.4406540000000  0.5795370000000  0.4356280000000 1.0
C      1  0.5711270000000  0.4992040000000  0.4926570000000 1.0
C      1  0.5219100000000  0.4360740000000  0.4415660000000 1.0
C      1  0.5102630000000  0.6248640000000  0.4608690000000 1.0
C      1  0.4578250000000  0.6157960000000  0.4672160000000 1.0
C      1  0.5016880000000  0.5205230000000  0.4435370000000 1.0
C      1  0.4951820000000  0.4995610000000  0.5567370000000 1.0
C      1  0.4228190000000  0.5288240000000  0.5056730000000 1.0
C      1  0.5349850000000  0.4492710000000  0.4002620000000 1.0
C      1  0.5261090000000  0.5197860000000  0.4900710000000 1.0
C      1  0.3972090000000  0.5393380000000  0.5096410000000 1.0
C      1  0.4642680000000  0.4726820000000  0.5165970000000 1.0
C      1  0.5423610000000  0.3897820000000  0.4422530000000 1.0
C      1  0.5360420000000  0.6132680000000  0.6150090000000 1.0
C      1  0.5578380000000  0.5501130000000  0.5995290000000 1.0
C      1  0.4651690000000  0.6152120000000  0.5167040000000 1.0
C      1  0.4666450000000  0.4119530000000  0.5132770000000 1.0
C      1  0.4398740000000  0.5183700000000  0.5545710000000 1.0
C      1  0.5393170000000  0.6271800000000  0.6373070000000 1.0
C      1  0.5122990000000  0.5919290000000  0.5226680000000 1.0
C      1  0.5707610000000  0.4098280000000  0.5451970000000 1.0
C      1  0.3840170000000  0.5404260000000  0.4839620000000 1.0
C      1  0.5317580000000  0.4334820000000  0.5538450000000 1.0
C      1  0.4804570000000  0.5083600000000  0.4843860000000 1.0
C      1  0.5248900000000  0.5858560000000  0.5475400000000 1.0
C      1  0.4498700000000  0.4793030000000  0.4519240000000 1.0
C      1  0.5168720000000  0.5759040000000  0.4996550000000 1.0
C      1  0.5386070000000  0.4181800000000  0.5102220000000 1.0
C      1  0.5425350000000  0.6399100000000  0.6603240000000 1.0
C      1  0.4167860000000  0.5851610000000  0.4804610000000 1.0
C      1  0.4242230000000  0.4785300000000  0.4661840000000 1.0
C      1  0.5857460000000  0.4618770000000  0.4548610000000 1.0
C      1  0.4466450000000  0.3930300000000  0.4681040000000 1.0
C      1  0.4883430000000  0.4612060000000  0.4762260000000 1.0
C      1  0.5583940000000  0.5510000000000  0.4761700000000 1.0
C      1  0.6214160000000  0.4639700000000  0.5210410000000 1.0
C      1  0.4247400000000  0.5336310000000  0.4497130000000 1.0
C      1  0.6069040000000  0.4279740000000  0.4908810000000 1.0
C      1  0.3736470000000  0.4954540000000  0.5023470000000 1.0
C      1  0.5608590000000  0.4408850000000  0.4125070000000 1.0
C      1  0.5170960000000  0.5036860000000  0.4274720000000 1.0
C      1  0.6141050000000  0.4003470000000  0.4915870000000 1.0
C      1  0.5825120000000  0.5247480000000  0.5663280000000 1.0
C      1  0.3847010000000  0.4124720000000  0.4973050000000 1.0
C      1  0.5679780000000  0.3912420000000  0.4540440000000 1.0
C      1  0.4371820000000  0.5516290000000  0.4314290000000 1.0
C      1  0.4928800000000  0.4237840000000  0.5127120000000 1.0
C      1  0.4404460000000  0.5287020000000  0.5271940000000 1.0
C      1  0.5658110000000  0.5249740000000  0.5889830000000 1.0
C      1  0.5794820000000  0.3700290000000  0.4695170000000 1.0
C      1  0.5840280000000  0.4140130000000  0.4509720000000 1.0
C      1  0.5173850000000  0.6061650000000  0.5686290000000 1.0
C      1  0.6263860000000  0.5587450000000  0.4674680000000 1.0
C      1  0.4884100000000  0.5254400000000  0.5662200000000 1.0
C      1  0.4436320000000  0.5989970000000  0.5275100000000 1.0
C      1  0.4587790000000  0.6278300000000  0.4926510000000 1.0
C      1  0.5859740000000  0.5165390000000  0.5412920000000 1.0
C      1  0.4937050000000  0.5661620000000  0.4863780000000 1.0
C      1  0.5422820000000  0.5737840000000  0.4856820000000 1.0
C      1  0.4230160000000  0.4562090000000  0.4822540000000 1.0
C      1  0.4366240000000  0.4810940000000  0.4009260000000 1.0
C      1  0.5195020000000  0.4076790000000  0.4462810000000 1.0
C      1  0.5489310000000  0.6637300000000  0.7067560000000 1.0
C      1  0.4915250000000  0.3719890000000  0.4271830000000 1.0
C      1  0.6337360000000  0.4876140000000  0.5194830000000 1.0
C      1  0.4362320000000  0.5949440000000  0.4603990000000 1.0
C      1  0.5266680000000  0.5512580000000  0.6609920000000 1.0
C      1  0.4282110000000  0.4135410000000  0.5455170000000 1.0
C      1  0.4103170000000  0.5107010000000  0.4378870000000 1.0
C      1  0.4869840000000  0.4592670000000  0.4197970000000 1.0
C      1  0.4018900000000  0.4969640000000  0.4623040000000 1.0
C      1  0.3836450000000  0.4812840000000  0.5252850000000 1.0
C      1  0.4867340000000  0.4984430000000  0.6173050000000 1.0
C      1  0.4601890000000  0.4323130000000  0.4540720000000 1.0
C      1  0.3970440000000  0.4944620000000  0.5470830000000 1.0
C      1  0.5321570000000  0.5978690000000  0.5923350000000 1.0
C      1  0.4175230000000  0.4402280000000  0.6089560000000 1.0
C      1  0.4152180000000  0.4198080000000  0.4331020000000 1.0
C      1  0.4512530000000  0.3656440000000  0.5083290000000 1.0
C      1  0.5048310000000  0.5551250000000  0.3793350000000 1.0
C      1  0.5239950000000  0.4741070000000  0.5272770000000 1.0
C      1  0.4454910000000  0.4460070000000  0.6138380000000 1.0
C      1  0.5025830000000  0.4403240000000  0.4898750000000 1.0
C      1  0.4057210000000  0.4595110000000  0.5928810000000 1.0
C      1  0.5205420000000  0.5189970000000  0.5176650000000 1.0
C      1  0.5134140000000  0.4930020000000  0.4013910000000 1.0
C      1  0.3952390000000  0.4666830000000  0.4221870000000 1.0
C      1  0.4238450000000  0.5908700000000  0.5081710000000 1.0
C      1  0.6023870000000  0.3772920000000  0.4843540000000 1.0
C      1  0.5356600000000  0.4887480000000  0.4427830000000 1.0
C      1  0.4843020000000  0.6149660000000  0.4546350000000 1.0
C      1  0.5655930000000  0.4855400000000  0.4063420000000 1.0
C      1  0.4601380000000  0.5507890000000  0.5248250000000 1.0
C      1  0.5591710000000  0.4019910000000  0.5199700000000 1.0
C      1  0.5529840000000  0.5521280000000  0.3837540000000 1.0
C      1  0.4246600000000  0.4803150000000  0.5850880000000 1.0
C      1  0.6064490000000  0.4404310000000  0.5171520000000 1.0
C      1  0.4513620000000  0.5879460000000  0.5534430000000 1.0
C      1  0.4587100000000  0.5037140000000  0.4440330000000 1.0
C      1  0.4857970000000  0.4779180000000  0.5721850000000 1.0
C      1  0.5457580000000  0.6519640000000  0.6837090000000 1.0
C      1  0.5420840000000  0.5705520000000  0.5885600000000 1.0
C      1  0.4990630000000  0.5152070000000  0.6336910000000 1.0
C      1  0.5692180000000  0.3447770000000  0.4702970000000 1.0
C      1  0.4925910000000  0.3954450000000  0.4433150000000 1.0
C      1  0.6277630000000  0.5616520000000  0.4955190000000 1.0
C      1  0.5049140000000  0.4119040000000  0.5937260000000 1.0
C      1  0.5785950000000  0.5569150000000  0.4570400000000 1.0
C      1  0.3939690000000  0.4551570000000  0.5198730000000 1.0
C      1  0.5416300000000  0.5682530000000  0.6739100000000 1.0
C      1  0.4012690000000  0.4137450000000  0.5424630000000 1.0
C      1  0.5358790000000  0.4580640000000  0.5673740000000 1.0
C      1  0.4189900000000  0.4010510000000  0.4569810000000 1.0
C      1  0.4128840000000  0.4897350000000  0.4167510000000 1.0
C      1  0.5932010000000  0.4271070000000  0.5393630000000 1.0
C      1  0.4933920000000  0.5696320000000  0.4580890000000 1.0
C      1  0.4670380000000  0.6058140000000  0.5695520000000 1.0
C      1  0.4725840000000  0.5523470000000  0.4994590000000 1.0
C      1  0.5321890000000  0.4031470000000  0.5875400000000 1.0
C      1  0.4333660000000  0.4277950000000  0.4116560000000 1.0
C      1  0.4917520000000  0.6151190000000  0.5585390000000 1.0
C      1  0.4345730000000  0.5304580000000  0.4784690000000 1.0
C      1  0.4587770000000  0.5387440000000  0.4170050000000 1.0
C      1  0.4612980000000  0.4959130000000  0.3941510000000 1.0
C      1  0.5713770000000  0.5335940000000  0.3886420000000 1.0
C      1  0.4390850000000  0.4362120000000  0.4723860000000 1.0
C      1  0.5514960000000  0.5996230000000  0.4758480000000 1.0
C      1  0.5460170000000  0.4578610000000  0.4776110000000 1.0
C      1  0.6046400000000  0.6294060000000  0.5189970000000 1.0
C      1  0.5098190000000  0.5431460000000  0.5663490000000 1.0
C      1  0.5983320000000  0.6074870000000  0.5038080000000 1.0
C      1  0.5353430000000  0.6117340000000  0.4552860000000 1.0
C      1  0.5132460000000  0.3591340000000  0.4175340000000 1.0
C      1  0.4201260000000  0.4575630000000  0.5096480000000 1.0
C      1  0.5956370000000  0.4359110000000  0.4648150000000 1.0
C      1  0.5312450000000  0.5875060000000  0.4073120000000 1.0
C      1  0.5439210000000  0.4771750000000  0.5842800000000 1.0
C      1  0.4614840000000  0.5353720000000  0.5668710000000 1.0
C      1  0.5122930000000  0.5333090000000  0.6478100000000 1.0
C      1  0.5538050000000  0.5207750000000  0.4790500000000 1.0
C      1  0.3943390000000  0.5665330000000  0.4739010000000 1.0
C      1  0.4596160000000  0.5610180000000  0.5519470000000 1.0
C      1  0.5172210000000  0.4229870000000  0.5304510000000 1.0
C      1  0.5382360000000  0.6022160000000  0.4286090000000 1.0
C      1  0.4636250000000  0.5254220000000  0.3918230000000 1.0
C      1  0.4778160000000  0.4818920000000  0.4935450000000 1.0
C      1  0.4739480000000  0.4839540000000  0.5973300000000 1.0
C      1  0.4752430000000  0.5243520000000  0.4355140000000 1.0
C      1  0.5527160000000  0.5005120000000  0.5939950000000 1.0
C      1  0.4913210000000  0.4257570000000  0.5727540000000 1.0
C      1  0.5379690000000  0.4780830000000  0.3948030000000 1.0
C      1  0.4854830000000  0.4508010000000  0.5653140000000 1.0
C      1  0.5333180000000  0.4614410000000  0.4524070000000 1.0
C      1  0.5756410000000  0.4636940000000  0.4249360000000 1.0
C      1  0.3950880000000  0.4411500000000  0.4322980000000 1.0
C      1  0.6364710000000  0.5395830000000  0.5105240000000 1.0
C      1  0.5758340000000  0.6085920000000  0.4867130000000 1.0
C      1  0.4646410000000  0.5877840000000  0.4225360000000 1.0
C      1  0.4860700000000  0.4818290000000  0.4007750000000 1.0
C      1  0.4486710000000  0.4725310000000  0.6007450000000 1.0
C      1  0.3870860000000  0.4272180000000  0.5216800000000 1.0
C      1  0.5290840000000  0.5657350000000  0.3894530000000 1.0
C      1  0.5491690000000  0.4125280000000  0.5655980000000 1.0
C      1  0.5132200000000  0.4979200000000  0.5347600000000 1.0
C      1  0.4546570000000  0.3904130000000  0.4965440000000 1.0
C      1  0.4910210000000  0.6116640000000  0.5286510000000 1.0
C      1  0.4384140000000  0.4518440000000  0.3994060000000 1.0
C      1  0.4860430000000  0.5903430000000  0.4403790000000 1.0
C      1  0.4735310000000  0.4580920000000  0.4485280000000 1.0
C      1  0.6144390000000  0.5843250000000  0.5056810000000 1.0
C      1  0.4893860000000  0.4149480000000  0.6174700000000 1.0
C      1  0.5320090000000  0.4379970000000  0.4911260000000 1.0
C      1  0.4443760000000  0.4538800000000  0.5236320000000 1.0
C      1  0.5048490000000  0.5161520000000  0.4719180000000 1.0
C      1  0.4485770000000  0.4262660000000  0.5305800000000 1.0
C      1  0.5111650000000  0.4435450000000  0.4160850000000 1.0
END
