TITL C-627109-622-1911 -5.58582107040177e-07 125000 -623.096004955432 0 0 103 (C1) n - 1
REM
REM in /home/nfs/bkarasulu/CARBON/AIRSS/Generating-Clusters/LCBOP/Only-C1/SD-CG/FIRE-CG
REM
REM
REM
REM
REM
REM ./C.cell (11c1c37f851c82e70ff6c80c92926a4b)
REM AIRSS Version 0.9.1 bugfix July 2018 build 013d7b7c2542+ Fri, 06 Jul 2018 19:26:36 +0100
REM compiler GCC version 9.2.1 20190827 (Red Hat 9.2.1-1)
REM options -cpp -mtune=generic -march=x86-64 -g -O0 -fpre-include=/usr/include/finclude/math-vector-fortran.h
REM seed 227084049 94413259 -1677332558 931855316 -1257690867 94425472 486591146 -141066930 -1443660140 1694906713 1849614129 741977926 1244790607 -117662343 -867969456 -1483563233 -1175836330 -912682444 660357539 1693902067 -392154303 -2130088039 1335688839 1569829939 -425486801 -845365795 -82560686 -1518249427 790747885 -1725159571 2122939961 -173553788 165745417
REM
CELL 1.54180   50.00000   50.00000   50.00000   90.00000   90.00000   90.00000
LATT -1
SFAC C  
C      1  0.4717900000000  0.5313530000000  0.4880990000000 1.0
C      1  0.4840300000000  0.5487770000000  0.5358820000000 1.0
C      1  0.4951760000000  0.4764090000000  0.4689000000000 1.0
C      1  0.5284890000000  0.4410030000000  0.4525170000000 1.0
C      1  0.5779140000000  0.3894300000000  0.4884620000000 1.0
C      1  0.5178550000000  0.4595400000000  0.4723320000000 1.0
C      1  0.5049270000000  0.5676940000000  0.4765990000000 1.0
C      1  0.5889070000000  0.5285020000000  0.5005890000000 1.0
C      1  0.4392350000000  0.5865720000000  0.4761010000000 1.0
C      1  0.4960860000000  0.6466430000000  0.5307930000000 1.0
C      1  0.5751680000000  0.5748860000000  0.4862630000000 1.0
C      1  0.5357570000000  0.3875890000000  0.5126680000000 1.0
C      1  0.5044000000000  0.6693030000000  0.5406190000000 1.0
C      1  0.3982250000000  0.6115290000000  0.5639420000000 1.0
C      1  0.4874960000000  0.6222390000000  0.5206650000000 1.0
C      1  0.5477070000000  0.4998030000000  0.4795930000000 1.0
C      1  0.5227110000000  0.3919980000000  0.4491210000000 1.0
C      1  0.5213770000000  0.4500900000000  0.4993690000000 1.0
C      1  0.6207900000000  0.4095050000000  0.4761780000000 1.0
C      1  0.4098880000000  0.5486020000000  0.4204210000000 1.0
C      1  0.5650490000000  0.4800560000000  0.4745860000000 1.0
C      1  0.4421000000000  0.5807020000000  0.5246260000000 1.0
C      1  0.5883440000000  0.5569610000000  0.5013360000000 1.0
C      1  0.5031840000000  0.5310890000000  0.5235710000000 1.0
C      1  0.6455170000000  0.4077370000000  0.4681400000000 1.0
C      1  0.3764000000000  0.5514350000000  0.5289900000000 1.0
C      1  0.5074290000000  0.4251010000000  0.5039650000000 1.0
C      1  0.5373550000000  0.3769430000000  0.4657280000000 1.0
C      1  0.3921740000000  0.5514650000000  0.4015240000000 1.0
C      1  0.4013460000000  0.4895290000000  0.4997400000000 1.0
C      1  0.5827280000000  0.4372860000000  0.4901000000000 1.0
C      1  0.4498120000000  0.5401680000000  0.5036140000000 1.0
C      1  0.4846190000000  0.4601020000000  0.5400230000000 1.0
C      1  0.5766020000000  0.5147350000000  0.5229280000000 1.0
C      1  0.4831400000000  0.4260010000000  0.4872940000000 1.0
C      1  0.5292890000000  0.5722680000000  0.4631410000000 1.0
C      1  0.4621280000000  0.4558940000000  0.5229900000000 1.0
C      1  0.5385760000000  0.4450200000000  0.5752270000000 1.0
C      1  0.5546970000000  0.5780270000000  0.4693500000000 1.0
C      1  0.5130600000000  0.4081940000000  0.5514380000000 1.0
C      1  0.4149750000000  0.4323060000000  0.4683600000000 1.0
C      1  0.4218900000000  0.5368960000000  0.5046680000000 1.0
C      1  0.5307360000000  0.4668880000000  0.5204500000000 1.0
C      1  0.5066610000000  0.3849860000000  0.5647370000000 1.0
C      1  0.4410340000000  0.5185730000000  0.4429300000000 1.0
C      1  0.5031570000000  0.5815880000000  0.5010970000000 1.0
C      1  0.4949480000000  0.4750560000000  0.5812820000000 1.0
C      1  0.5633070000000  0.4908300000000  0.5631860000000 1.0
C      1  0.4591890000000  0.5575630000000  0.5252400000000 1.0
C      1  0.4852940000000  0.4235730000000  0.4575660000000 1.0
C      1  0.5370050000000  0.5207280000000  0.4921480000000 1.0
C      1  0.4287810000000  0.5449300000000  0.4408180000000 1.0
C      1  0.5121860000000  0.4178250000000  0.4491930000000 1.0
C      1  0.5109910000000  0.4970350000000  0.4188390000000 1.0
C      1  0.5142100000000  0.4324930000000  0.5666690000000 1.0
C      1  0.5363490000000  0.5055020000000  0.4224270000000 1.0
C      1  0.5490460000000  0.5162400000000  0.5617800000000 1.0
C      1  0.5107820000000  0.5883550000000  0.5493360000000 1.0
C      1  0.5134490000000  0.5438440000000  0.5769440000000 1.0
C      1  0.4830220000000  0.4923370000000  0.4238360000000 1.0
C      1  0.5130970000000  0.5694940000000  0.5684540000000 1.0
C      1  0.4165500000000  0.4658340000000  0.5054860000000 1.0
C      1  0.4423140000000  0.4745120000000  0.4670030000000 1.0
C      1  0.5563420000000  0.4414790000000  0.4492800000000 1.0
C      1  0.4737560000000  0.4650800000000  0.4255650000000 1.0
C      1  0.3953690000000  0.5891210000000  0.5490090000000 1.0
C      1  0.5722640000000  0.4534890000000  0.4692820000000 1.0
C      1  0.5534240000000  0.5286250000000  0.5357650000000 1.0
C      1  0.5599550000000  0.4665500000000  0.5229960000000 1.0
C      1  0.4721190000000  0.4409320000000  0.4383790000000 1.0
C      1  0.5852820000000  0.4280590000000  0.5375920000000 1.0
C      1  0.4890530000000  0.5156280000000  0.5039740000000 1.0
C      1  0.4035710000000  0.5517430000000  0.5198360000000 1.0
C      1  0.5510990000000  0.3813760000000  0.4898890000000 1.0
C      1  0.4345040000000  0.5672420000000  0.4577930000000 1.0
C      1  0.4340290000000  0.4610080000000  0.5279330000000 1.0
C      1  0.5736060000000  0.4882320000000  0.5354890000000 1.0
C      1  0.5604040000000  0.5136090000000  0.4316130000000 1.0
C      1  0.5758850000000  0.4436250000000  0.5170530000000 1.0
C      1  0.4241710000000  0.4553350000000  0.4795000000000 1.0
C      1  0.4293310000000  0.4990060000000  0.4598840000000 1.0
C      1  0.4153520000000  0.5760120000000  0.5325990000000 1.0
C      1  0.4685780000000  0.4704490000000  0.4768610000000 1.0
C      1  0.4463470000000  0.5975380000000  0.5014980000000 1.0
C      1  0.5023720000000  0.5980400000000  0.5240620000000 1.0
C      1  0.5944050000000  0.4118600000000  0.4847000000000 1.0
C      1  0.5222320000000  0.5176370000000  0.5707070000000 1.0
C      1  0.5088880000000  0.4786260000000  0.5367190000000 1.0
C      1  0.3715850000000  0.5728700000000  0.5458230000000 1.0
C      1  0.5076660000000  0.4943600000000  0.5633200000000 1.0
C      1  0.4634590000000  0.6193860000000  0.5059950000000 1.0
C      1  0.4844490000000  0.5374180000000  0.4423270000000 1.0
C      1  0.5808240000000  0.5182360000000  0.4487750000000 1.0
C      1  0.4241400000000  0.4610690000000  0.5534700000000 1.0
C      1  0.5311260000000  0.5311290000000  0.5180410000000 1.0
C      1  0.4684020000000  0.4489510000000  0.4962130000000 1.0
C      1  0.4909650000000  0.4497640000000  0.5670450000000 1.0
C      1  0.4060200000000  0.5031790000000  0.4762470000000 1.0
C      1  0.4861760000000  0.5473830000000  0.4686120000000 1.0
C      1  0.5177690000000  0.4067600000000  0.5230320000000 1.0
C      1  0.4683080000000  0.5155250000000  0.4336400000000 1.0
C      1  0.5545130000000  0.4669830000000  0.5759880000000 1.0
C      1  0.5918140000000  0.5191190000000  0.4736230000000 1.0
END
