TITL C-627112-676-105 -0.0176535722947987 125000 -659.778092633987 0 0 108 (C1) n - 1
REM
REM in /home/nfs/bkarasulu/CARBON/AIRSS/Generating-Clusters/LCBOP/Only-C1/SD-CG/FIRE-CG
REM
REM
REM
REM
REM
REM ./C.cell (11c1c37f851c82e70ff6c80c92926a4b)
REM AIRSS Version 0.9.1 bugfix July 2018 build 013d7b7c2542+ Fri, 06 Jul 2018 19:26:36 +0100
REM compiler GCC version 9.2.1 20190827 (Red Hat 9.2.1-1)
REM options -cpp -mtune=generic -march=x86-64 -g -O0 -fpre-include=/usr/include/finclude/math-vector-fortran.h
REM seed -631257446 -1835733947 -2039453343 -66746864 1160517741 -1698462077 -1850773801 -1819684013 1963333565 181611247 -1630186660 -567266250 2019945600 -1135670001 2122825922 -2142528793 -1218803431 -1877559636 -529512549 1131090530 -761132704 223909660 2139638882 -2115292875 303529907 -301677132 1106594492 1185986572 321297097 -1522147235 401664917 -920931434 1238183881
REM
CELL 1.54180   50.00000   50.00000   50.00000   90.00000   90.00000   90.00000
LATT -1
SFAC C  
C      1  0.5548780000000  0.4422470000000  0.4379090000000 1.0
C      1  0.5674890000000  0.4365780000000  0.5751760000000 1.0
C      1  0.4956590000000  0.5528530000000  0.5331590000000 1.0
C      1  0.4546280000000  0.5939890000000  0.5398970000000 1.0
C      1  0.4439200000000  0.4675930000000  0.4943450000000 1.0
C      1  0.5348520000000  0.4311720000000  0.5045730000000 1.0
C      1  0.5545710000000  0.4311440000000  0.4865980000000 1.0
C      1  0.4502810000000  0.4961950000000  0.4289230000000 1.0
C      1  0.4506310000000  0.4237790000000  0.5315480000000 1.0
C      1  0.4708270000000  0.4780930000000  0.4340130000000 1.0
C      1  0.5879740000000  0.5061220000000  0.4673260000000 1.0
C      1  0.4391010000000  0.5375390000000  0.4054070000000 1.0
C      1  0.4877590000000  0.4020110000000  0.5529370000000 1.0
C      1  0.5720570000000  0.5281470000000  0.5494040000000 1.0
C      1  0.4272730000000  0.5256770000000  0.5430670000000 1.0
C      1  0.4725780000000  0.5406340000000  0.5424930000000 1.0
C      1  0.5715470000000  0.5429500000000  0.5733610000000 1.0
C      1  0.4903710000000  0.4872650000000  0.5348800000000 1.0
C      1  0.4558390000000  0.5731240000000  0.4901620000000 1.0
C      1  0.5163380000000  0.5959340000000  0.5246760000000 1.0
C      1  0.5375360000000  0.5919170000000  0.5064250000000 1.0
C      1  0.4865670000000  0.4080590000000  0.4625360000000 1.0
C      1  0.4727670000000  0.4427190000000  0.5763070000000 1.0
C      1  0.5274810000000  0.4496990000000  0.5240600000000 1.0
C      1  0.5449810000000  0.5165260000000  0.5402600000000 1.0
C      1  0.6097810000000  0.4747470000000  0.5280670000000 1.0
C      1  0.4907700000000  0.5355850000000  0.4890780000000 1.0
C      1  0.4500520000000  0.5867380000000  0.5142350000000 1.0
C      1  0.4999390000000  0.4974060000000  0.5600630000000 1.0
C      1  0.5317030000000  0.3972150000000  0.4390030000000 1.0
C      1  0.4537340000000  0.5211520000000  0.5379570000000 1.0
C      1  0.5341790000000  0.4749050000000  0.6200580000000 1.0
C      1  0.5647010000000  0.4416240000000  0.4642460000000 1.0
C      1  0.5479220000000  0.5566580000000  0.4755540000000 1.0
C      1  0.5497070000000  0.4615320000000  0.5371610000000 1.0
C      1  0.3874550000000  0.4738180000000  0.4925970000000 1.0
C      1  0.5364480000000  0.5836660000000  0.4780120000000 1.0
C      1  0.5474370000000  0.4165090000000  0.4287100000000 1.0
C      1  0.5245930000000  0.5119670000000  0.5635360000000 1.0
C      1  0.4048630000000  0.5051680000000  0.4160800000000 1.0
C      1  0.5713840000000  0.4486680000000  0.5503460000000 1.0
C      1  0.5273500000000  0.6117820000000  0.4331770000000 1.0
C      1  0.4477530000000  0.5386340000000  0.3788420000000 1.0
C      1  0.4969340000000  0.4827030000000  0.4240080000000 1.0
C      1  0.5805060000000  0.5836630000000  0.5317200000000 1.0
C      1  0.5970410000000  0.4547190000000  0.5404630000000 1.0
C      1  0.5260900000000  0.6169630000000  0.4071950000000 1.0
C      1  0.5525550000000  0.5392890000000  0.5921580000000 1.0
C      1  0.4796060000000  0.4946850000000  0.5807410000000 1.0
C      1  0.4370200000000  0.4731710000000  0.5676670000000 1.0
C      1  0.4777100000000  0.4044810000000  0.4898780000000 1.0
C      1  0.4665000000000  0.4524290000000  0.4453260000000 1.0
C      1  0.4442170000000  0.4786460000000  0.5199750000000 1.0
C      1  0.4013030000000  0.4338540000000  0.5216520000000 1.0
C      1  0.4306660000000  0.4653340000000  0.5414140000000 1.0
C      1  0.4957250000000  0.5849440000000  0.3468170000000 1.0
C      1  0.4763710000000  0.5871290000000  0.5569760000000 1.0
C      1  0.5079000000000  0.5392980000000  0.5119200000000 1.0
C      1  0.4870610000000  0.4333400000000  0.5986800000000 1.0
C      1  0.5314890000000  0.4997830000000  0.6110420000000 1.0
C      1  0.4640000000000  0.4966040000000  0.5279610000000 1.0
C      1  0.4714520000000  0.5467020000000  0.5922480000000 1.0
C      1  0.5352750000000  0.5327020000000  0.5166570000000 1.0
C      1  0.4898520000000  0.4237940000000  0.4163530000000 1.0
C      1  0.4389590000000  0.5610290000000  0.4206580000000 1.0
C      1  0.5099360000000  0.3938470000000  0.4543940000000 1.0
C      1  0.4632360000000  0.4702810000000  0.5781950000000 1.0
C      1  0.5289340000000  0.5997770000000  0.4567540000000 1.0
C      1  0.4434870000000  0.5785340000000  0.4401210000000 1.0
C      1  0.5534080000000  0.5373760000000  0.4560050000000 1.0
C      1  0.5093760000000  0.4344430000000  0.6130930000000 1.0
C      1  0.5949230000000  0.5200530000000  0.5350860000000 1.0
C      1  0.4724670000000  0.5195390000000  0.5931760000000 1.0
C      1  0.6049350000000  0.5003910000000  0.5175020000000 1.0
C      1  0.6020130000000  0.5037670000000  0.4898210000000 1.0
C      1  0.5553490000000  0.4369630000000  0.5988560000000 1.0
C      1  0.5109590000000  0.6025600000000  0.3595850000000 1.0
C      1  0.5594430000000  0.5753060000000  0.5169430000000 1.0
C      1  0.4418920000000  0.5275300000000  0.4833830000000 1.0
C      1  0.4584490000000  0.4211600000000  0.5031400000000 1.0
C      1  0.5212080000000  0.6139000000000  0.3812930000000 1.0
C      1  0.4256260000000  0.4379030000000  0.5353540000000 1.0
C      1  0.4311420000000  0.5127880000000  0.4169560000000 1.0
C      1  0.5337480000000  0.5183490000000  0.5902990000000 1.0
C      1  0.5519140000000  0.4887740000000  0.5323090000000 1.0
C      1  0.4963000000000  0.3859920000000  0.5331310000000 1.0
C      1  0.4998090000000  0.5213620000000  0.4674640000000 1.0
C      1  0.3988980000000  0.4968000000000  0.4849740000000 1.0
C      1  0.5435270000000  0.4666680000000  0.4278990000000 1.0
C      1  0.5036250000000  0.4647940000000  0.5242150000000 1.0
C      1  0.4726640000000  0.5713630000000  0.5807830000000 1.0
C      1  0.4633960000000  0.5452940000000  0.4886860000000 1.0
C      1  0.4478190000000  0.4420530000000  0.4873950000000 1.0
C      1  0.3874280000000  0.4501370000000  0.5052040000000 1.0
C      1  0.4993720000000  0.5800600000000  0.5407200000000 1.0
C      1  0.4499460000000  0.5846930000000  0.4652280000000 1.0
C      1  0.4694360000000  0.4237110000000  0.5540260000000 1.0
C      1  0.5078450000000  0.4407060000000  0.4050680000000 1.0
C      1  0.4609910000000  0.5484860000000  0.3580550000000 1.0
C      1  0.5539380000000  0.5499710000000  0.5036140000000 1.0
C      1  0.4183390000000  0.5149440000000  0.4819520000000 1.0
C      1  0.5340310000000  0.4476540000000  0.6135370000000 1.0
C      1  0.5175820000000  0.4651120000000  0.4159850000000 1.0
C      1  0.5653170000000  0.5120130000000  0.4516120000000 1.0
C      1  0.4914510000000  0.3863960000000  0.5067060000000 1.0
C      1  0.5543960000000  0.4917190000000  0.4353310000000 1.0
C      1  0.4779210000000  0.5652340000000  0.3462970000000 1.0
C      1  0.4776180000000  0.4265970000000  0.4421740000000 1.0
END
