TITL C-627108-131-1871 -6.15103113251092e-07 125000 -1183.34395281349 0 0 195 (C1) n - 1
REM
REM in /home/nfs/bkarasulu/CARBON/AIRSS/Generating-Clusters/LCBOP/Only-C1/SD-CG/FIRE-CG
REM
REM
REM
REM
REM
REM ./C.cell (11c1c37f851c82e70ff6c80c92926a4b)
REM AIRSS Version 0.9.1 bugfix July 2018 build 013d7b7c2542+ Fri, 06 Jul 2018 19:26:36 +0100
REM compiler GCC version 9.2.1 20190827 (Red Hat 9.2.1-1)
REM options -cpp -mtune=generic -march=x86-64 -g -O0 -fpre-include=/usr/include/finclude/math-vector-fortran.h
REM seed -1042857833 -368142629 1502810046 -342365404 2144094780 1176612383 -788884715 885781868 -712863086 -558463361 2083734311 -175065484 831724680 -2056828431 1728117568 1301197191 1753965113 -1330006105 869118922 1454910370 1295470904 -1340610614 142368594 421037671 -1178829469 2058494150 -827847630 1887306334 -1516731317 -497503190 1797931861 150988288 1296512770
REM
CELL 1.54180   50.00000   50.00000   50.00000   90.00000   90.00000   90.00000
LATT -1
SFAC C  
C      1  0.5425750000000  0.4982620000000  0.5641130000000 1.0
C      1  0.5239980000000  0.6203660000000  0.4908080000000 1.0
C      1  0.3905260000000  0.4658080000000  0.5216990000000 1.0
C      1  0.5657540000000  0.3925920000000  0.4560810000000 1.0
C      1  0.5213720000000  0.5657590000000  0.4308020000000 1.0
C      1  0.5824430000000  0.4822240000000  0.5304050000000 1.0
C      1  0.4022000000000  0.4051570000000  0.4639520000000 1.0
C      1  0.4417410000000  0.5934730000000  0.5234460000000 1.0
C      1  0.4927530000000  0.3947920000000  0.5630760000000 1.0
C      1  0.4454880000000  0.4079450000000  0.4875610000000 1.0
C      1  0.4873810000000  0.3631980000000  0.4885550000000 1.0
C      1  0.6373930000000  0.5195240000000  0.4995170000000 1.0
C      1  0.4377380000000  0.6107790000000  0.4786330000000 1.0
C      1  0.4983150000000  0.3793700000000  0.5386470000000 1.0
C      1  0.5308040000000  0.5397940000000  0.4330850000000 1.0
C      1  0.5212580000000  0.4342870000000  0.4136830000000 1.0
C      1  0.5506280000000  0.5591200000000  0.5357860000000 1.0
C      1  0.3929120000000  0.4973150000000  0.5690980000000 1.0
C      1  0.4714690000000  0.3775220000000  0.4676940000000 1.0
C      1  0.5228070000000  0.4552670000000  0.6102500000000 1.0
C      1  0.5652750000000  0.4154410000000  0.4123290000000 1.0
C      1  0.4737290000000  0.6278630000000  0.5045690000000 1.0
C      1  0.4117910000000  0.4801970000000  0.6413900000000 1.0
C      1  0.4595120000000  0.5511440000000  0.4925040000000 1.0
C      1  0.4775450000000  0.5711650000000  0.4169370000000 1.0
C      1  0.5015860000000  0.5922940000000  0.5929700000000 1.0
C      1  0.5910150000000  0.5975650000000  0.5613570000000 1.0
C      1  0.6018050000000  0.5757210000000  0.5731400000000 1.0
C      1  0.4018680000000  0.5728250000000  0.4948820000000 1.0
C      1  0.4210430000000  0.5742840000000  0.5164410000000 1.0
C      1  0.5394470000000  0.5320470000000  0.4586030000000 1.0
C      1  0.5888210000000  0.5347270000000  0.4980070000000 1.0
C      1  0.5368600000000  0.4109200000000  0.4093840000000 1.0
C      1  0.4161260000000  0.5759010000000  0.4294600000000 1.0
C      1  0.5813880000000  0.5395680000000  0.4179600000000 1.0
C      1  0.5368020000000  0.5229730000000  0.4102550000000 1.0
C      1  0.3816470000000  0.4448480000000  0.5051650000000 1.0
C      1  0.4518690000000  0.5356800000000  0.5327320000000 1.0
C      1  0.3836580000000  0.4506050000000  0.4773220000000 1.0
C      1  0.5194440000000  0.6064420000000  0.5755710000000 1.0
C      1  0.5680330000000  0.4910840000000  0.5042450000000 1.0
C      1  0.5352670000000  0.4576400000000  0.4207910000000 1.0
C      1  0.4742700000000  0.5892140000000  0.5870090000000 1.0
C      1  0.4902980000000  0.5863780000000  0.4908670000000 1.0
C      1  0.4790830000000  0.4789700000000  0.4018420000000 1.0
C      1  0.5212180000000  0.5105530000000  0.5788370000000 1.0
C      1  0.4540940000000  0.4910840000000  0.6086430000000 1.0
C      1  0.4173940000000  0.4881840000000  0.4684630000000 1.0
C      1  0.5245350000000  0.4111920000000  0.4711090000000 1.0
C      1  0.4476940000000  0.5039420000000  0.4226980000000 1.0
C      1  0.5504620000000  0.5803390000000  0.5161620000000 1.0
C      1  0.5600100000000  0.4401340000000  0.4567170000000 1.0
C      1  0.4141130000000  0.4772300000000  0.5265500000000 1.0
C      1  0.5355090000000  0.3901260000000  0.4522890000000 1.0
C      1  0.4774500000000  0.4731390000000  0.6107490000000 1.0
C      1  0.5133230000000  0.4934870000000  0.4839330000000 1.0
C      1  0.4506400000000  0.4785140000000  0.4069530000000 1.0
C      1  0.4644890000000  0.5257150000000  0.4351680000000 1.0
C      1  0.6147730000000  0.5410650000000  0.4591670000000 1.0
C      1  0.5218430000000  0.6392900000000  0.5369930000000 1.0
C      1  0.5390530000000  0.6016250000000  0.4740940000000 1.0
C      1  0.4254710000000  0.4314330000000  0.5671270000000 1.0
C      1  0.5653520000000  0.6064470000000  0.5530760000000 1.0
C      1  0.5464840000000  0.4698980000000  0.5054840000000 1.0
C      1  0.4264430000000  0.5486630000000  0.5285590000000 1.0
C      1  0.3929370000000  0.5436460000000  0.4518400000000 1.0
C      1  0.4483740000000  0.5886260000000  0.4646920000000 1.0
C      1  0.5198070000000  0.4961080000000  0.3723330000000 1.0
C      1  0.6110480000000  0.5082100000000  0.6026000000000 1.0
C      1  0.4483310000000  0.4222530000000  0.4104520000000 1.0
C      1  0.6006340000000  0.5501940000000  0.5848770000000 1.0
C      1  0.5334810000000  0.3705560000000  0.5066150000000 1.0
C      1  0.3902200000000  0.4779890000000  0.4711400000000 1.0
C      1  0.5073680000000  0.4978670000000  0.4373790000000 1.0
C      1  0.5677140000000  0.5206400000000  0.5108740000000 1.0
C      1  0.5751720000000  0.4922030000000  0.4207750000000 1.0
C      1  0.5052660000000  0.3699240000000  0.5117600000000 1.0
C      1  0.4048380000000  0.5291250000000  0.5295110000000 1.0
C      1  0.5651730000000  0.4878650000000  0.5530390000000 1.0
C      1  0.4219650000000  0.5131770000000  0.4829800000000 1.0
C      1  0.5340760000000  0.5567800000000  0.6090580000000 1.0
C      1  0.5515390000000  0.5500570000000  0.5878480000000 1.0
C      1  0.5366400000000  0.6267160000000  0.5163050000000 1.0
C      1  0.5055440000000  0.4788560000000  0.6151530000000 1.0
C      1  0.5194050000000  0.4392040000000  0.5355830000000 1.0
C      1  0.4694390000000  0.4486110000000  0.5709460000000 1.0
C      1  0.4214360000000  0.5392730000000  0.4019220000000 1.0
C      1  0.5026730000000  0.5418270000000  0.3806990000000 1.0
C      1  0.4408460000000  0.5747480000000  0.4420230000000 1.0
C      1  0.5181210000000  0.5184420000000  0.3889510000000 1.0
C      1  0.3932160000000  0.5486480000000  0.4813790000000 1.0
C      1  0.5544220000000  0.4430010000000  0.5049520000000 1.0
C      1  0.4530340000000  0.5077100000000  0.5375530000000 1.0
C      1  0.4478950000000  0.5264850000000  0.4860210000000 1.0
C      1  0.4573690000000  0.4296220000000  0.5278900000000 1.0
C      1  0.4003010000000  0.5253780000000  0.4989880000000 1.0
C      1  0.5236880000000  0.5625580000000  0.3785810000000 1.0
C      1  0.3907560000000  0.4746410000000  0.6557510000000 1.0
C      1  0.4060640000000  0.4477800000000  0.5754600000000 1.0
C      1  0.5603120000000  0.3799150000000  0.5046960000000 1.0
C      1  0.5506360000000  0.4248810000000  0.4827950000000 1.0
C      1  0.4291270000000  0.5299850000000  0.5778540000000 1.0
C      1  0.4729210000000  0.5410430000000  0.3803580000000 1.0
C      1  0.5693090000000  0.4943440000000  0.4716690000000 1.0
C      1  0.4050490000000  0.5496090000000  0.4250990000000 1.0
C      1  0.4463730000000  0.3819270000000  0.4496630000000 1.0
C      1  0.4115140000000  0.4093110000000  0.5211700000000 1.0
C      1  0.5280850000000  0.4258230000000  0.5569090000000 1.0
C      1  0.4378700000000  0.4149340000000  0.5132570000000 1.0
C      1  0.5139230000000  0.5745050000000  0.6112010000000 1.0
C      1  0.5794110000000  0.3709220000000  0.5220770000000 1.0
C      1  0.5454800000000  0.4627850000000  0.4462760000000 1.0
C      1  0.4072060000000  0.5196700000000  0.5590200000000 1.0
C      1  0.6205080000000  0.4665550000000  0.4770000000000 1.0
C      1  0.4970690000000  0.5710860000000  0.5134070000000 1.0
C      1  0.5192910000000  0.5262350000000  0.5258220000000 1.0
C      1  0.4727540000000  0.4049240000000  0.4791280000000 1.0
C      1  0.4790930000000  0.4704610000000  0.5572440000000 1.0
C      1  0.5717620000000  0.4174520000000  0.4402080000000 1.0
C      1  0.4346160000000  0.4668720000000  0.4557440000000 1.0
C      1  0.4762150000000  0.5546010000000  0.5285700000000 1.0
C      1  0.4942550000000  0.4767760000000  0.4256600000000 1.0
C      1  0.3971150000000  0.4324960000000  0.4597160000000 1.0
C      1  0.4176660000000  0.4460410000000  0.4455420000000 1.0
C      1  0.4655260000000  0.4588600000000  0.4899190000000 1.0
C      1  0.4478420000000  0.6152720000000  0.5052490000000 1.0
C      1  0.5418730000000  0.5768110000000  0.4886970000000 1.0
C      1  0.5556770000000  0.6070440000000  0.5258060000000 1.0
C      1  0.4419180000000  0.3974460000000  0.4250120000000 1.0
C      1  0.4399420000000  0.4506100000000  0.4060630000000 1.0
C      1  0.5786560000000  0.5550030000000  0.4802070000000 1.0
C      1  0.4514920000000  0.5147730000000  0.5912650000000 1.0
C      1  0.6122460000000  0.4790300000000  0.4547650000000 1.0
C      1  0.5472560000000  0.5652920000000  0.5638730000000 1.0
C      1  0.6154330000000  0.5288640000000  0.4866320000000 1.0
C      1  0.5507690000000  0.5531970000000  0.4750820000000 1.0
C      1  0.4959230000000  0.6143060000000  0.4927420000000 1.0
C      1  0.6073110000000  0.4687110000000  0.5288310000000 1.0
C      1  0.5439820000000  0.5937870000000  0.5684270000000 1.0
C      1  0.5490820000000  0.5670660000000  0.3887960000000 1.0
C      1  0.5170260000000  0.5026050000000  0.6057550000000 1.0
C      1  0.5669410000000  0.3989710000000  0.4845350000000 1.0
C      1  0.4608510000000  0.5802230000000  0.5416230000000 1.0
C      1  0.4389170000000  0.4883820000000  0.5220090000000 1.0
C      1  0.4788610000000  0.4469300000000  0.5972730000000 1.0
C      1  0.5240710000000  0.4767370000000  0.3554220000000 1.0
C      1  0.4764170000000  0.4198050000000  0.4067590000000 1.0
C      1  0.4981910000000  0.4159280000000  0.4778320000000 1.0
C      1  0.4665830000000  0.5058000000000  0.4889370000000 1.0
C      1  0.3940970000000  0.4716480000000  0.5765730000000 1.0
C      1  0.3871540000000  0.4191870000000  0.5153780000000 1.0
C      1  0.5278590000000  0.3887100000000  0.4249910000000 1.0
C      1  0.4275280000000  0.3943470000000  0.4693530000000 1.0
C      1  0.6214150000000  0.5317890000000  0.5925950000000 1.0
C      1  0.6180430000000  0.4631970000000  0.5033660000000 1.0
C      1  0.5645410000000  0.5164200000000  0.4094580000000 1.0
C      1  0.5016750000000  0.5809890000000  0.4218850000000 1.0
C      1  0.4995710000000  0.5271170000000  0.5692860000000 1.0
C      1  0.4908190000000  0.5084970000000  0.4767850000000 1.0
C      1  0.5996360000000  0.5269660000000  0.4394360000000 1.0
C      1  0.5373370000000  0.4961080000000  0.4591190000000 1.0
C      1  0.6206440000000  0.4611950000000  0.5514780000000 1.0
C      1  0.5754800000000  0.5355270000000  0.5917570000000 1.0
C      1  0.5686590000000  0.5659870000000  0.4110330000000 1.0
C      1  0.5038230000000  0.4532870000000  0.5170100000000 1.0
C      1  0.4555530000000  0.4829000000000  0.4999630000000 1.0
C      1  0.5830190000000  0.4174280000000  0.3918550000000 1.0
C      1  0.4628540000000  0.4579190000000  0.4610360000000 1.0
C      1  0.4847730000000  0.4538280000000  0.4410240000000 1.0
C      1  0.4325300000000  0.4855660000000  0.6258070000000 1.0
C      1  0.5674960000000  0.4840680000000  0.6084010000000 1.0
C      1  0.5818480000000  0.5078890000000  0.6023400000000 1.0
C      1  0.4674950000000  0.5743980000000  0.4796840000000 1.0
C      1  0.4353610000000  0.5585450000000  0.5776410000000 1.0
C      1  0.5134020000000  0.6298230000000  0.5608900000000 1.0
C      1  0.5109260000000  0.4144560000000  0.5763700000000 1.0
C      1  0.4742370000000  0.4952150000000  0.5501230000000 1.0
C      1  0.4766850000000  0.5273100000000  0.5857490000000 1.0
C      1  0.5055110000000  0.4336520000000  0.5984820000000 1.0
C      1  0.5503940000000  0.4628520000000  0.6096910000000 1.0
C      1  0.4769710000000  0.4446090000000  0.5117800000000 1.0
C      1  0.5186210000000  0.4740460000000  0.5029250000000 1.0
C      1  0.4597460000000  0.5549670000000  0.4318800000000 1.0
C      1  0.4456310000000  0.5397500000000  0.3872000000000 1.0
C      1  0.5661260000000  0.5878380000000  0.4298590000000 1.0
C      1  0.4887950000000  0.5160460000000  0.4490100000000 1.0
C      1  0.4537180000000  0.4274980000000  0.5579750000000 1.0
C      1  0.5999050000000  0.5656480000000  0.4645160000000 1.0
C      1  0.4979200000000  0.5355330000000  0.5422760000000 1.0
C      1  0.5532780000000  0.6020070000000  0.4493300000000 1.0
C      1  0.4946890000000  0.4321070000000  0.4237660000000 1.0
C      1  0.5900550000000  0.4975510000000  0.4469390000000 1.0
C      1  0.4651620000000  0.4010970000000  0.5664250000000 1.0
C      1  0.4552910000000  0.5777050000000  0.5697460000000 1.0
C      1  0.5465010000000  0.5333440000000  0.5248980000000 1.0
END
