TITL C-627109-622-1246 -402.268636681485 125000 -941.754135014854 0 0 154 (C1) n - 1
REM
REM in /home/nfs/bkarasulu/CARBON/AIRSS/Generating-Clusters/LCBOP/Only-C1/SD-CG/FIRE-CG
REM
REM
REM
REM
REM
REM ./C.cell (11c1c37f851c82e70ff6c80c92926a4b)
REM AIRSS Version 0.9.1 bugfix July 2018 build 013d7b7c2542+ Fri, 06 Jul 2018 19:26:36 +0100
REM compiler GCC version 9.2.1 20190827 (Red Hat 9.2.1-1)
REM options -cpp -mtune=generic -march=x86-64 -g -O0 -fpre-include=/usr/include/finclude/math-vector-fortran.h
REM seed 806475396 -640067982 876482785 -650265529 1695357639 -312884936 1929154882 205623953 -310790292 -1070730819 1194061017 819958428 2015099096 1719262293 1080339564 1475067003 1952819736 -1250120547 -370273466 -1208901765 438024923 -650112387 1890848285 674704577 -1944942376 -120575810 -343659233 -1864394483 -1169500100 -363027058 -1684726918 -514585131 -193695036
REM
CELL 1.54180   50.00000   50.00000   50.00000   90.00000   90.00000   90.00000
LATT -1
SFAC C  
C      1  0.4489210000000  0.4663490000000  0.5302310000000 1.0
C      1  0.5847850000000  0.6045620000000  0.4611950000000 1.0
C      1  0.4974640000000  0.4389000000000  0.5955600000000 1.0
C      1  0.4643490000000  0.4854930000000  0.4821200000000 1.0
C      1  0.4412200000000  0.5073140000000  0.4440330000000 1.0
C      1  0.4361650000000  0.4950330000000  0.4725660000000 1.0
C      1  0.4958440000000  0.5466840000000  0.5017670000000 1.0
C      1  0.4768780000000  0.4420200000000  0.4974480000000 1.0
C      1  0.4692240000000  0.5818450000000  0.5918210000000 1.0
C      1  0.5600800000000  0.4888900000000  0.3992790000000 1.0
C      1  0.6346070000000  0.5295950000000  0.5491610000000 1.0
C      1  0.4709360000000  0.5343470000000  0.4618570000000 1.0
C      1  0.5622690000000  0.4620600000000  0.5338130000000 1.0
C      1  0.4890050000000  0.4053720000000  0.5620200000000 1.0
C      1  0.4815450000000  0.5250030000000  0.5147300000000 1.0
C      1  0.4720330000000  0.6119360000000  0.5129230000000 1.0
C      1  0.4184620000000  0.4759870000000  0.4168590000000 1.0
C      1  0.4623520000000  0.4102810000000  0.5705760000000 1.0
C      1  0.4593520000000  0.6084500000000  0.4888360000000 1.0
C      1  0.4940190000000  0.4032210000000  0.4725970000000 1.0
C      1  0.4961420000000  0.5544680000000  0.5605400000000 1.0
C      1  0.4108490000000  0.4126250000000  0.4790810000000 1.0
C      1  0.4716160000000  0.4519330000000  0.5227640000000 1.0
C      1  0.5238380000000  0.4917200000000  0.5875470000000 1.0
C      1  0.5353080000000  0.5513040000000  0.4186910000000 1.0
C      1  0.4985340000000  0.4987910000000  0.5803040000000 1.0
C      1  0.4944270000000  0.5429130000000  0.4733180000000 1.0
C      1  0.4907870000000  0.3963560000000  0.5349030000000 1.0
C      1  0.5286700000000  0.5574660000000  0.5943010000000 1.0
C      1  0.4758330000000  0.4537860000000  0.6024490000000 1.0
C      1  0.5312120000000  0.4194540000000  0.4395650000000 1.0
C      1  0.5385130000000  0.4045260000000  0.5202370000000 1.0
C      1  0.4324780000000  0.5159500000000  0.4936300000000 1.0
C      1  0.5513840000000  0.4357680000000  0.4837230000000 1.0
C      1  0.4583380000000  0.5936310000000  0.4412590000000 1.0
C      1  0.5018400000000  0.4976300000000  0.3644090000000 1.0
C      1  0.4430190000000  0.5759540000000  0.4279640000000 1.0
C      1  0.5698570000000  0.5166090000000  0.5128660000000 1.0
C      1  0.5160250000000  0.4674710000000  0.4649670000000 1.0
C      1  0.4235150000000  0.5740790000000  0.5560320000000 1.0
C      1  0.4897910000000  0.4582280000000  0.4550980000000 1.0
C      1  0.4704990000000  0.5626590000000  0.5700280000000 1.0
C      1  0.5527980000000  0.4080720000000  0.4958610000000 1.0
C      1  0.4516980000000  0.3925220000000  0.4998910000000 1.0
C      1  0.5494760000000  0.4673300000000  0.4152340000000 1.0
C      1  0.4443050000000  0.4292310000000  0.5648290000000 1.0
C      1  0.5237750000000  0.5509610000000  0.5671860000000 1.0
C      1  0.4004370000000  0.4620370000000  0.4912960000000 1.0
C      1  0.5089970000000  0.4222720000000  0.5750360000000 1.0
C      1  0.5550690000000  0.5867740000000  0.4951310000000 1.0
C      1  0.4909150000000  0.4515760000000  0.5419460000000 1.0
C      1  0.6033920000000  0.4786540000000  0.4178730000000 1.0
C      1  0.6027550000000  0.5782470000000  0.4976720000000 1.0
C      1  0.5458730000000  0.4892980000000  0.5700810000000 1.0
C      1  0.5011120000000  0.4244470000000  0.4937150000000 1.0
C      1  0.5080920000000  0.6261770000000  0.4876780000000 1.0
C      1  0.5124200000000  0.5691910000000  0.5047580000000 1.0
C      1  0.5542920000000  0.5197510000000  0.4896860000000 1.0
C      1  0.5925730000000  0.4988730000000  0.5073780000000 1.0
C      1  0.4147840000000  0.4624080000000  0.4414610000000 1.0
C      1  0.6305110000000  0.5492540000000  0.5317830000000 1.0
C      1  0.4251600000000  0.5270450000000  0.4310580000000 1.0
C      1  0.5303250000000  0.4332550000000  0.5576490000000 1.0
C      1  0.5808890000000  0.5898860000000  0.4846300000000 1.0
C      1  0.5318100000000  0.5243080000000  0.4164530000000 1.0
C      1  0.5527420000000  0.5063300000000  0.4655560000000 1.0
C      1  0.4469820000000  0.5994270000000  0.5901370000000 1.0
C      1  0.5214620000000  0.4609140000000  0.4112490000000 1.0
C      1  0.4870450000000  0.5817660000000  0.6140580000000 1.0
C      1  0.5792240000000  0.4186520000000  0.5426740000000 1.0
C      1  0.5663340000000  0.4554180000000  0.4373660000000 1.0
C      1  0.5925130000000  0.4732500000000  0.5718880000000 1.0
C      1  0.4719020000000  0.6051980000000  0.4631020000000 1.0
C      1  0.3932580000000  0.4347550000000  0.4843080000000 1.0
C      1  0.6022190000000  0.4746500000000  0.4934170000000 1.0
C      1  0.5468780000000  0.5916140000000  0.5230460000000 1.0
C      1  0.4693570000000  0.5135900000000  0.4415030000000 1.0
C      1  0.4791360000000  0.5928190000000  0.6384560000000 1.0
C      1  0.4006580000000  0.4664950000000  0.5213250000000 1.0
C      1  0.5258270000000  0.5088610000000  0.3701270000000 1.0
C      1  0.5155660000000  0.3997010000000  0.4538550000000 1.0
C      1  0.4072090000000  0.5694380000000  0.4874320000000 1.0
C      1  0.4849440000000  0.4839210000000  0.3824360000000 1.0
C      1  0.5171210000000  0.5089420000000  0.4358910000000 1.0
C      1  0.5288710000000  0.4932780000000  0.4570930000000 1.0
C      1  0.4471700000000  0.5393620000000  0.4786440000000 1.0
C      1  0.4710870000000  0.4591280000000  0.4756050000000 1.0
C      1  0.5574810000000  0.5731120000000  0.5415480000000 1.0
C      1  0.5542660000000  0.4338570000000  0.4525290000000 1.0
C      1  0.5141830000000  0.4352280000000  0.4220900000000 1.0
C      1  0.4634740000000  0.5142740000000  0.5381630000000 1.0
C      1  0.5191300000000  0.5892160000000  0.4599800000000 1.0
C      1  0.5183670000000  0.4562820000000  0.5433520000000 1.0
C      1  0.5931220000000  0.4668930000000  0.4420700000000 1.0
C      1  0.5006720000000  0.6148140000000  0.5135470000000 1.0
C      1  0.4676340000000  0.3859720000000  0.5222630000000 1.0
C      1  0.5236740000000  0.4817050000000  0.5300290000000 1.0
C      1  0.5950250000000  0.4497030000000  0.5059700000000 1.0
C      1  0.5857810000000  0.6177540000000  0.4382410000000 1.0
C      1  0.4293860000000  0.5529790000000  0.4244000000000 1.0
C      1  0.4144280000000  0.5166330000000  0.5377330000000 1.0
C      1  0.5990630000000  0.4296870000000  0.5265660000000 1.0
C      1  0.6193510000000  0.5653390000000  0.5138530000000 1.0
C      1  0.5417720000000  0.5098930000000  0.3935240000000 1.0
C      1  0.5538770000000  0.5231300000000  0.5363530000000 1.0
C      1  0.4911110000000  0.5004850000000  0.4279480000000 1.0
C      1  0.6297800000000  0.5077780000000  0.5635400000000 1.0
C      1  0.4242640000000  0.4025660000000  0.5023090000000 1.0
C      1  0.4104280000000  0.4813440000000  0.5701100000000 1.0
C      1  0.4027620000000  0.5550390000000  0.5113680000000 1.0
C      1  0.6369340000000  0.4743590000000  0.4607540000000 1.0
C      1  0.5463060000000  0.5481710000000  0.5490330000000 1.0
C      1  0.5228380000000  0.4457160000000  0.4843110000000 1.0
C      1  0.6097450000000  0.4721210000000  0.4656280000000 1.0
C      1  0.4478100000000  0.4930470000000  0.5220130000000 1.0
C      1  0.5313600000000  0.5758160000000  0.4819520000000 1.0
C      1  0.4238300000000  0.4122350000000  0.4539110000000 1.0
C      1  0.4148730000000  0.4742140000000  0.4688330000000 1.0
C      1  0.4394380000000  0.5287670000000  0.5490370000000 1.0
C      1  0.4096870000000  0.4406410000000  0.5337420000000 1.0
C      1  0.3894980000000  0.5867720000000  0.4763190000000 1.0
C      1  0.4289800000000  0.4757190000000  0.5891090000000 1.0
C      1  0.5656320000000  0.4521650000000  0.5064770000000 1.0
C      1  0.4520850000000  0.4665010000000  0.5997770000000 1.0
C      1  0.5170860000000  0.5927720000000  0.5217170000000 1.0
C      1  0.4177460000000  0.4344910000000  0.4385060000000 1.0
C      1  0.4447240000000  0.5546970000000  0.5589190000000 1.0
C      1  0.4483000000000  0.3983270000000  0.4523660000000 1.0
C      1  0.4802620000000  0.5043630000000  0.5612600000000 1.0
C      1  0.4714580000000  0.6032010000000  0.6610940000000 1.0
C      1  0.5004970000000  0.6102530000000  0.4645330000000 1.0
C      1  0.5501690000000  0.4165740000000  0.5438230000000 1.0
C      1  0.5102970000000  0.4072520000000  0.5173200000000 1.0
C      1  0.5667950000000  0.4714180000000  0.5612370000000 1.0
C      1  0.4338870000000  0.4480370000000  0.5467520000000 1.0
C      1  0.4570230000000  0.4810490000000  0.3817800000000 1.0
C      1  0.4846450000000  0.4999470000000  0.4984010000000 1.0
C      1  0.5728240000000  0.5125490000000  0.4479300000000 1.0
C      1  0.5088980000000  0.4880930000000  0.5072470000000 1.0
C      1  0.4976120000000  0.4796060000000  0.4077910000000 1.0
C      1  0.4322620000000  0.5631230000000  0.4766450000000 1.0
C      1  0.4886370000000  0.4399380000000  0.4338760000000 1.0
C      1  0.5882030000000  0.4896670000000  0.3982960000000 1.0
C      1  0.4660560000000  0.3948460000000  0.4741750000000 1.0
C      1  0.4338480000000  0.4793780000000  0.3951250000000 1.0
C      1  0.6151420000000  0.4872700000000  0.5720380000000 1.0
C      1  0.5860740000000  0.6305100000000  0.4155080000000 1.0
C      1  0.4258180000000  0.5960570000000  0.5735250000000 1.0
C      1  0.4112620000000  0.5273870000000  0.5113310000000 1.0
C      1  0.5384360000000  0.5009620000000  0.5446700000000 1.0
C      1  0.5125990000000  0.5702530000000  0.6115890000000 1.0
C      1  0.4111230000000  0.4135040000000  0.5252720000000 1.0
C      1  0.4045760000000  0.5694250000000  0.5357710000000 1.0
C      1  0.4047500000000  0.4893780000000  0.5425970000000 1.0
END
