TITL C-627109-622-469 -6.91878739814993e-07 125000 -584.575016326854 0 0 100 (C1) n - 1
REM
REM in /home/nfs/bkarasulu/CARBON/AIRSS/Generating-Clusters/LCBOP/Only-C1/SD-CG/FIRE-CG
REM
REM
REM
REM
REM
REM ./C.cell (11c1c37f851c82e70ff6c80c92926a4b)
REM AIRSS Version 0.9.1 bugfix July 2018 build 013d7b7c2542+ Fri, 06 Jul 2018 19:26:36 +0100
REM compiler GCC version 9.2.1 20190827 (Red Hat 9.2.1-1)
REM options -cpp -mtune=generic -march=x86-64 -g -O0 -fpre-include=/usr/include/finclude/math-vector-fortran.h
REM seed -2096477012 1353021386 -1188913630 2070765921 -863747610 -2029200890 1614622816 -2058230680 -167570741 1387397290 757897347 1525647427 2139643111 285651857 1477210052 -1318926776 -784677880 -2002858661 841354612 1530302199 385944770 1171522239 1763375475 1162763863 -889522876 -431870761 -2133701877 1133424910 -1194618690 -1638383645 362221234 -72961355 -1838820630
REM
CELL 1.54180   50.00000   50.00000   50.00000   90.00000   90.00000   90.00000
LATT -1
SFAC C  
C      1  0.4766390000000  0.4603430000000  0.4736380000000 1.0
C      1  0.5536060000000  0.4709010000000  0.4644390000000 1.0
C      1  0.4807530000000  0.4550030000000  0.4280980000000 1.0
C      1  0.4879330000000  0.4815850000000  0.4876510000000 1.0
C      1  0.5380150000000  0.5901920000000  0.5060510000000 1.0
C      1  0.4993000000000  0.5259770000000  0.4293020000000 1.0
C      1  0.4150870000000  0.5417220000000  0.5136300000000 1.0
C      1  0.4599220000000  0.5288240000000  0.4949720000000 1.0
C      1  0.4723470000000  0.4541050000000  0.5771240000000 1.0
C      1  0.5518900000000  0.5237710000000  0.4213820000000 1.0
C      1  0.5049070000000  0.5313780000000  0.4588120000000 1.0
C      1  0.4782730000000  0.5399250000000  0.5388310000000 1.0
C      1  0.4525680000000  0.4687730000000  0.5610630000000 1.0
C      1  0.5030890000000  0.5247780000000  0.5415210000000 1.0
C      1  0.5911550000000  0.4566010000000  0.4895470000000 1.0
C      1  0.5374660000000  0.4169300000000  0.5302140000000 1.0
C      1  0.4613970000000  0.4343920000000  0.5940820000000 1.0
C      1  0.5142700000000  0.5480370000000  0.5081290000000 1.0
C      1  0.5250740000000  0.5263970000000  0.4157870000000 1.0
C      1  0.5398930000000  0.5439200000000  0.4996280000000 1.0
C      1  0.5678820000000  0.5186940000000  0.5471890000000 1.0
C      1  0.5801800000000  0.4894810000000  0.5159240000000 1.0
C      1  0.6052090000000  0.5027310000000  0.5162470000000 1.0
C      1  0.5644560000000  0.4560460000000  0.5433270000000 1.0
C      1  0.4870730000000  0.4440480000000  0.4535260000000 1.0
C      1  0.4148080000000  0.5132640000000  0.4756740000000 1.0
C      1  0.5292810000000  0.5869200000000  0.5325260000000 1.0
C      1  0.5004080000000  0.4143700000000  0.4912650000000 1.0
C      1  0.4812810000000  0.5269660000000  0.4784380000000 1.0
C      1  0.5659310000000  0.4016860000000  0.4697550000000 1.0
C      1  0.4514050000000  0.4153900000000  0.6088540000000 1.0
C      1  0.5301040000000  0.5805900000000  0.4591150000000 1.0
C      1  0.5982500000000  0.5298270000000  0.5089830000000 1.0
C      1  0.4003970000000  0.5321610000000  0.4913190000000 1.0
C      1  0.5016470000000  0.4564640000000  0.5783190000000 1.0
C      1  0.5133650000000  0.4812790000000  0.5854570000000 1.0
C      1  0.4599530000000  0.5633390000000  0.4512110000000 1.0
C      1  0.5540880000000  0.4992010000000  0.5066550000000 1.0
C      1  0.4564060000000  0.4727390000000  0.4262400000000 1.0
C      1  0.3502510000000  0.5475770000000  0.4792710000000 1.0
C      1  0.5158630000000  0.4294040000000  0.5133480000000 1.0
C      1  0.4409910000000  0.5304410000000  0.5167650000000 1.0
C      1  0.4525240000000  0.5264120000000  0.5424140000000 1.0
C      1  0.4877270000000  0.4866600000000  0.3960190000000 1.0
C      1  0.4862300000000  0.4821160000000  0.5161120000000 1.0
C      1  0.4511400000000  0.4529740000000  0.4838740000000 1.0
C      1  0.5065200000000  0.4983210000000  0.5289380000000 1.0
C      1  0.5817000000000  0.4778330000000  0.4687460000000 1.0
C      1  0.5334980000000  0.4857950000000  0.5237440000000 1.0
C      1  0.4823900000000  0.5762080000000  0.4634940000000 1.0
C      1  0.4514650000000  0.5265980000000  0.5721840000000 1.0
C      1  0.4766190000000  0.4015230000000  0.5011480000000 1.0
C      1  0.5733380000000  0.5164610000000  0.4367620000000 1.0
C      1  0.4707830000000  0.5218090000000  0.4245560000000 1.0
C      1  0.4950300000000  0.4381620000000  0.5327690000000 1.0
C      1  0.4880400000000  0.5854350000000  0.5542860000000 1.0
C      1  0.5021130000000  0.4678070000000  0.4125960000000 1.0
C      1  0.3745100000000  0.5400980000000  0.4851620000000 1.0
C      1  0.4197140000000  0.4876950000000  0.4885140000000 1.0
C      1  0.4227060000000  0.4830690000000  0.5175100000000 1.0
C      1  0.5239780000000  0.4767560000000  0.4276840000000 1.0
C      1  0.4916460000000  0.5963440000000  0.4833120000000 1.0
C      1  0.5173110000000  0.5423290000000  0.5620790000000 1.0
C      1  0.5370820000000  0.4886700000000  0.5749360000000 1.0
C      1  0.5098560000000  0.4019710000000  0.4447100000000 1.0
C      1  0.5280670000000  0.5120040000000  0.4657390000000 1.0
C      1  0.5543850000000  0.5679610000000  0.4945830000000 1.0
C      1  0.4344280000000  0.4765310000000  0.5416700000000 1.0
C      1  0.4541330000000  0.4423980000000  0.5098270000000 1.0
C      1  0.5953090000000  0.5271850000000  0.4800800000000 1.0
C      1  0.5238160000000  0.5693040000000  0.5524770000000 1.0
C      1  0.5006190000000  0.5396430000000  0.5870670000000 1.0
C      1  0.4328480000000  0.4001510000000  0.5234260000000 1.0
C      1  0.4534070000000  0.4138350000000  0.5120180000000 1.0
C      1  0.4749430000000  0.5623450000000  0.5583580000000 1.0
C      1  0.5458250000000  0.4341310000000  0.5516780000000 1.0
C      1  0.5440100000000  0.5184470000000  0.4888820000000 1.0
C      1  0.4304720000000  0.4674290000000  0.4715390000000 1.0
C      1  0.4650100000000  0.4970430000000  0.4113670000000 1.0
C      1  0.5815400000000  0.4607190000000  0.5176350000000 1.0
C      1  0.5236750000000  0.4385520000000  0.5706040000000 1.0
C      1  0.4340470000000  0.4700670000000  0.4433790000000 1.0
C      1  0.4925310000000  0.6011720000000  0.5334790000000 1.0
C      1  0.5002690000000  0.4202810000000  0.4627120000000 1.0
C      1  0.4517620000000  0.5372490000000  0.4408760000000 1.0
C      1  0.4752620000000  0.4562750000000  0.5246320000000 1.0
C      1  0.4818630000000  0.6043450000000  0.5083850000000 1.0
C      1  0.5504700000000  0.4841630000000  0.5496190000000 1.0
C      1  0.4053400000000  0.5607250000000  0.5306140000000 1.0
C      1  0.5868790000000  0.5066690000000  0.4608140000000 1.0
C      1  0.4297780000000  0.5236700000000  0.4534630000000 1.0
C      1  0.5078960000000  0.5622630000000  0.4568760000000 1.0
C      1  0.4721320000000  0.5455420000000  0.5827450000000 1.0
C      1  0.5443210000000  0.4499920000000  0.4806730000000 1.0
C      1  0.5344280000000  0.4872890000000  0.4516750000000 1.0
C      1  0.5299720000000  0.4548770000000  0.5038350000000 1.0
C      1  0.5568720000000  0.5727720000000  0.4661230000000 1.0
C      1  0.5209400000000  0.5976710000000  0.4824460000000 1.0
C      1  0.5806450000000  0.5359770000000  0.5316350000000 1.0
C      1  0.5533740000000  0.4241060000000  0.4742120000000 1.0
END
