TITL C-627106-156-769 0.00758104006343564 125000 -396.627855649137 0 0 67 (C1) n - 1
REM
REM in /home/nfs/bkarasulu/CARBON/AIRSS/Generating-Clusters/LCBOP/Only-C1/SD-CG/FIRE-CG
REM
REM
REM
REM
REM
REM ./C.cell (11c1c37f851c82e70ff6c80c92926a4b)
REM AIRSS Version 0.9.1 bugfix July 2018 build 013d7b7c2542+ Fri, 06 Jul 2018 19:26:36 +0100
REM compiler GCC version 9.2.1 20190827 (Red Hat 9.2.1-1)
REM options -cpp -mtune=generic -march=x86-64 -g -O0 -fpre-include=/usr/include/finclude/math-vector-fortran.h
REM seed 552583650 590320522 1437756883 -74391630 -1047161129 1898366320 1662508020 -971416154 -2068923272 -1022170545 -1723369585 348769487 -1822159282 -166649387 -995171584 1462051233 -1329041850 -396207128 -635054570 -232915045 1917658472 -1461892022 2034311188 1966746843 891409355 2012786457 1819525929 1134505125 1898184443 1488674980 -206152308 -2080559155 -102781502
REM
CELL 1.54180   50.00000   50.00000   50.00000   90.00000   90.00000   90.00000
LATT -1
SFAC C  
C      1  0.4399130000000  0.5091300000000  0.4897230000000 1.0
C      1  0.5605200000000  0.5059180000000  0.5218590000000 1.0
C      1  0.4450400000000  0.4707540000000  0.5211900000000 1.0
C      1  0.5036290000000  0.5398550000000  0.4828850000000 1.0
C      1  0.4549120000000  0.4686820000000  0.4306190000000 1.0
C      1  0.5280670000000  0.5452240000000  0.5599670000000 1.0
C      1  0.5233290000000  0.5178110000000  0.4861090000000 1.0
C      1  0.5198090000000  0.5692010000000  0.5716560000000 1.0
C      1  0.5757580000000  0.5586390000000  0.5622260000000 1.0
C      1  0.4676560000000  0.5091090000000  0.4827630000000 1.0
C      1  0.4356210000000  0.3923800000000  0.4771760000000 1.0
C      1  0.5124750000000  0.5920240000000  0.5818780000000 1.0
C      1  0.5140880000000  0.4997780000000  0.5367800000000 1.0
C      1  0.5083200000000  0.5266640000000  0.5505080000000 1.0
C      1  0.5012100000000  0.4454410000000  0.4397850000000 1.0
C      1  0.5127080000000  0.4334140000000  0.4639000000000 1.0
C      1  0.5374820000000  0.4588040000000  0.4091020000000 1.0
C      1  0.5116090000000  0.4902140000000  0.4785130000000 1.0
C      1  0.5309940000000  0.4392980000000  0.6203490000000 1.0
C      1  0.5101160000000  0.4744610000000  0.5824170000000 1.0
C      1  0.4773200000000  0.4336440000000  0.5202920000000 1.0
C      1  0.4402000000000  0.4180050000000  0.4784200000000 1.0
C      1  0.4665270000000  0.4838050000000  0.5356900000000 1.0
C      1  0.5720570000000  0.4851530000000  0.5063270000000 1.0
C      1  0.5328180000000  0.5104410000000  0.5145360000000 1.0
C      1  0.5464140000000  0.5208150000000  0.4664950000000 1.0
C      1  0.4830040000000  0.4848640000000  0.4792660000000 1.0
C      1  0.4268960000000  0.4665610000000  0.4739470000000 1.0
C      1  0.5593040000000  0.4781790000000  0.4816010000000 1.0
C      1  0.5196730000000  0.4567620000000  0.6016560000000 1.0
C      1  0.4958210000000  0.4850350000000  0.4122020000000 1.0
C      1  0.5007530000000  0.5910090000000  0.4938320000000 1.0
C      1  0.4795780000000  0.5318140000000  0.4698370000000 1.0
C      1  0.5127520000000  0.4628240000000  0.4198670000000 1.0
C      1  0.4559550000000  0.5152490000000  0.4301970000000 1.0
C      1  0.5271290000000  0.4846130000000  0.5619400000000 1.0
C      1  0.4863020000000  0.6075040000000  0.4784650000000 1.0
C      1  0.5934690000000  0.5777690000000  0.5669360000000 1.0
C      1  0.4707780000000  0.4588070000000  0.4723090000000 1.0
C      1  0.4307140000000  0.5073500000000  0.4435260000000 1.0
C      1  0.4456690000000  0.4450960000000  0.4780140000000 1.0
C      1  0.5073780000000  0.5651690000000  0.4939640000000 1.0
C      1  0.5641820000000  0.5126040000000  0.5493900000000 1.0
C      1  0.4902910000000  0.5575210000000  0.4031200000000 1.0
C      1  0.5542440000000  0.4918200000000  0.5660880000000 1.0
C      1  0.4732680000000  0.6042860000000  0.4553020000000 1.0
C      1  0.5169850000000  0.4461290000000  0.4902410000000 1.0
C      1  0.4741770000000  0.4523400000000  0.4444370000000 1.0
C      1  0.5581710000000  0.4360450000000  0.6210940000000 1.0
C      1  0.5318360000000  0.4695840000000  0.4832420000000 1.0
C      1  0.4688790000000  0.4917490000000  0.4187070000000 1.0
C      1  0.4311540000000  0.4831380000000  0.4985590000000 1.0
C      1  0.4831180000000  0.4826630000000  0.5822880000000 1.0
C      1  0.4992490000000  0.4513100000000  0.5138390000000 1.0
C      1  0.4243430000000  0.5200270000000  0.4682750000000 1.0
C      1  0.4941590000000  0.4787550000000  0.5264140000000 1.0
C      1  0.4697080000000  0.5851100000000  0.4371050000000 1.0
C      1  0.5563650000000  0.5391950000000  0.5573710000000 1.0
C      1  0.4711700000000  0.5364070000000  0.4425410000000 1.0
C      1  0.6107120000000  0.5967500000000  0.5716310000000 1.0
C      1  0.4768480000000  0.5597800000000  0.4275250000000 1.0
C      1  0.4307720000000  0.4778760000000  0.4464410000000 1.0
C      1  0.5147790000000  0.4256570000000  0.6376880000000 1.0
C      1  0.4647690000000  0.4885010000000  0.5634740000000 1.0
C      1  0.5625630000000  0.4990710000000  0.4622040000000 1.0
C      1  0.5030430000000  0.5538800000000  0.3806860000000 1.0
C      1  0.4514510000000  0.4425310000000  0.5236140000000 1.0
END
