TITL C-627111-6168-1072 0.00391262848360459 125000 -631.784345896285 0 0 104 (C1) n - 1
REM
REM in /home/nfs/bkarasulu/CARBON/AIRSS/Generating-Clusters/LCBOP/Only-C1/SD-CG/FIRE-CG
REM
REM
REM
REM
REM
REM ./C.cell (11c1c37f851c82e70ff6c80c92926a4b)
REM AIRSS Version 0.9.1 bugfix July 2018 build 013d7b7c2542+ Fri, 06 Jul 2018 19:26:36 +0100
REM compiler GCC version 9.2.1 20190827 (Red Hat 9.2.1-1)
REM options -cpp -mtune=generic -march=x86-64 -g -O0 -fpre-include=/usr/include/finclude/math-vector-fortran.h
REM seed 1606181740 -1415907847 1021268211 -151728098 -413440798 -499722170 1356964685 922528496 -1515111317 1699259305 -649282964 1902437620 978565890 -1399845544 -1422997457 -2058503882 -256461886 -1586016040 2113033221 1828162411 1851370281 1440108139 916356334 60991040 725096734 1701233570 -1809636612 1078751468 1575377689 762108663 1816146476 -890707835 77453622
REM
CELL 1.54180   50.00000   50.00000   50.00000   90.00000   90.00000   90.00000
LATT -1
SFAC C  
C      1  0.5259320000000  0.5201320000000  0.4456170000000 1.0
C      1  0.4234760000000  0.4726250000000  0.5348430000000 1.0
C      1  0.5615810000000  0.4592900000000  0.4746340000000 1.0
C      1  0.5380070000000  0.5422860000000  0.4893810000000 1.0
C      1  0.4452760000000  0.6179260000000  0.6371960000000 1.0
C      1  0.4424720000000  0.5334980000000  0.4505090000000 1.0
C      1  0.4874480000000  0.4618990000000  0.4761550000000 1.0
C      1  0.4786210000000  0.4122930000000  0.4904110000000 1.0
C      1  0.5731230000000  0.4753840000000  0.4104640000000 1.0
C      1  0.4714000000000  0.5837110000000  0.5448330000000 1.0
C      1  0.5043590000000  0.4614000000000  0.4346150000000 1.0
C      1  0.4415820000000  0.4609620000000  0.4497490000000 1.0
C      1  0.5618870000000  0.5245920000000  0.5275940000000 1.0
C      1  0.5888840000000  0.5275740000000  0.4562250000000 1.0
C      1  0.4961400000000  0.4875820000000  0.4269160000000 1.0
C      1  0.5086130000000  0.5526480000000  0.5294870000000 1.0
C      1  0.3997980000000  0.5397530000000  0.4889290000000 1.0
C      1  0.4620740000000  0.6066200000000  0.5530310000000 1.0
C      1  0.5550220000000  0.4174280000000  0.4569110000000 1.0
C      1  0.5841760000000  0.3748080000000  0.5324350000000 1.0
C      1  0.5873910000000  0.4545250000000  0.5399300000000 1.0
C      1  0.4062600000000  0.4645330000000  0.4808570000000 1.0
C      1  0.3813280000000  0.5152120000000  0.6040590000000 1.0
C      1  0.4002690000000  0.4900090000000  0.4927820000000 1.0
C      1  0.4828490000000  0.4297660000000  0.5124160000000 1.0
C      1  0.4795570000000  0.4166420000000  0.4412140000000 1.0
C      1  0.5828590000000  0.4695800000000  0.5636530000000 1.0
C      1  0.4255580000000  0.5337850000000  0.6018930000000 1.0
C      1  0.4383270000000  0.4054920000000  0.4674330000000 1.0
C      1  0.5151110000000  0.5681470000000  0.6011670000000 1.0
C      1  0.5281980000000  0.4906940000000  0.5163350000000 1.0
C      1  0.4957170000000  0.5152200000000  0.5585050000000 1.0
C      1  0.4370440000000  0.6402840000000  0.6477770000000 1.0
C      1  0.4650580000000  0.5306200000000  0.5012550000000 1.0
C      1  0.5871590000000  0.5741990000000  0.5693390000000 1.0
C      1  0.3988490000000  0.5146050000000  0.4487010000000 1.0
C      1  0.4701820000000  0.5158870000000  0.5488240000000 1.0
C      1  0.5917110000000  0.4703630000000  0.5164720000000 1.0
C      1  0.4210010000000  0.4179810000000  0.4839460000000 1.0
C      1  0.5316880000000  0.4949750000000  0.4881750000000 1.0
C      1  0.4183640000000  0.4430800000000  0.4966990000000 1.0
C      1  0.5363270000000  0.5127440000000  0.5325690000000 1.0
C      1  0.4790620000000  0.5217860000000  0.3908550000000 1.0
C      1  0.5874870000000  0.4267590000000  0.5395480000000 1.0
C      1  0.5303600000000  0.5196000000000  0.4735120000000 1.0
C      1  0.5955170000000  0.5028430000000  0.4409620000000 1.0
C      1  0.4156330000000  0.4922700000000  0.5795480000000 1.0
C      1  0.5398190000000  0.5693110000000  0.5916600000000 1.0
C      1  0.4605480000000  0.4394060000000  0.5278180000000 1.0
C      1  0.4585960000000  0.5100320000000  0.4066210000000 1.0
C      1  0.5371370000000  0.5555700000000  0.3669580000000 1.0
C      1  0.5164730000000  0.5286800000000  0.5440910000000 1.0
C      1  0.5859540000000  0.4631850000000  0.4898890000000 1.0
C      1  0.4810050000000  0.5596360000000  0.5352670000000 1.0
C      1  0.4288330000000  0.4745060000000  0.5627820000000 1.0
C      1  0.5724830000000  0.5306050000000  0.4123280000000 1.0
C      1  0.4494550000000  0.4574980000000  0.5719820000000 1.0
C      1  0.4208060000000  0.5247270000000  0.4338020000000 1.0
C      1  0.5105560000000  0.4383350000000  0.5154680000000 1.0
C      1  0.4937110000000  0.5656390000000  0.4852250000000 1.0
C      1  0.5414610000000  0.4116090000000  0.4798460000000 1.0
C      1  0.4653760000000  0.5356850000000  0.5291100000000 1.0
C      1  0.5359230000000  0.4712560000000  0.4740150000000 1.0
C      1  0.4625150000000  0.5717330000000  0.6141600000000 1.0
C      1  0.5139830000000  0.5098040000000  0.4221290000000 1.0
C      1  0.4442060000000  0.5517280000000  0.6074890000000 1.0
C      1  0.4640830000000  0.4413600000000  0.5559920000000 1.0
C      1  0.6068180000000  0.5148470000000  0.4990190000000 1.0
C      1  0.5862880000000  0.4004660000000  0.5365340000000 1.0
C      1  0.4072350000000  0.4907080000000  0.5202860000000 1.0
C      1  0.4347250000000  0.4505400000000  0.5191960000000 1.0
C      1  0.5836050000000  0.5112940000000  0.5400590000000 1.0
C      1  0.5641200000000  0.5375570000000  0.5011990000000 1.0
C      1  0.5067020000000  0.5244460000000  0.3983250000000 1.0
C      1  0.5802280000000  0.5030440000000  0.4145800000000 1.0
C      1  0.5814860000000  0.4967450000000  0.5642340000000 1.0
C      1  0.5772640000000  0.5445800000000  0.4357780000000 1.0
C      1  0.5995930000000  0.4979160000000  0.5203350000000 1.0
C      1  0.5663550000000  0.4427380000000  0.4507150000000 1.0
C      1  0.4671770000000  0.5553300000000  0.4851400000000 1.0
C      1  0.4182810000000  0.5587900000000  0.4829810000000 1.0
C      1  0.4614500000000  0.5118090000000  0.4553150000000 1.0
C      1  0.4536470000000  0.5952440000000  0.6263630000000 1.0
C      1  0.5294350000000  0.4214010000000  0.5019960000000 1.0
C      1  0.5161740000000  0.5570080000000  0.5014650000000 1.0
C      1  0.4309470000000  0.5165230000000  0.4085300000000 1.0
C      1  0.4698790000000  0.4985800000000  0.4310520000000 1.0
C      1  0.6081200000000  0.4663380000000  0.4721020000000 1.0
C      1  0.5241720000000  0.5400020000000  0.3833620000000 1.0
C      1  0.6017120000000  0.4752140000000  0.4463120000000 1.0
C      1  0.4666510000000  0.5086410000000  0.4833030000000 1.0
C      1  0.4430490000000  0.5551530000000  0.4693530000000 1.0
C      1  0.5637710000000  0.5713280000000  0.5804920000000 1.0
C      1  0.5122940000000  0.4615490000000  0.4622890000000 1.0
C      1  0.5819350000000  0.4578210000000  0.4319700000000 1.0
C      1  0.4151890000000  0.4638230000000  0.4540930000000 1.0
C      1  0.4896560000000  0.5683610000000  0.6084930000000 1.0
C      1  0.4663950000000  0.4084110000000  0.4651530000000 1.0
C      1  0.5873140000000  0.5298800000000  0.4845330000000 1.0
C      1  0.4071850000000  0.5137640000000  0.5952830000000 1.0
C      1  0.3961090000000  0.5139380000000  0.4773110000000 1.0
C      1  0.5183380000000  0.4647590000000  0.5236280000000 1.0
C      1  0.4624420000000  0.4608220000000  0.4666130000000 1.0
C      1  0.4925970000000  0.4363100000000  0.4276120000000 1.0
END
