TITL C-627106-156-2 27887.012752452 125000 -760.957396551023 0 0 125 (C1) n - 1
REM
REM in /home/nfs/bkarasulu/CARBON/AIRSS/Generating-Clusters/LCBOP/Only-C1/SD-CG/FIRE-CG
REM
REM
REM
REM
REM
REM ./C.cell (11c1c37f851c82e70ff6c80c92926a4b)
REM AIRSS Version 0.9.1 bugfix July 2018 build 013d7b7c2542+ Fri, 06 Jul 2018 19:26:36 +0100
REM compiler GCC version 9.2.1 20190827 (Red Hat 9.2.1-1)
REM options -cpp -mtune=generic -march=x86-64 -g -O0 -fpre-include=/usr/include/finclude/math-vector-fortran.h
REM seed -1546875794 -964331273 -175954748 -296806831 975464117 634359817 2123802766 1132408344 1992000722 -1637787951 596895710 2027656382 422043978 -198649172 756093754 630096305 663433464 -83488543 -1370092314 -1884544794 839398731 -1748133873 1932073988 786786462 -442942638 699940935 1619945265 973983882 114063274 -312333490 -851154996 294201956 1954880078
REM
CELL 1.54180   50.00000   50.00000   50.00000   90.00000   90.00000   90.00000
LATT -1
SFAC C  
C      1  0.4937480000000  0.4872510000000  0.4166570000000 1.0
C      1  0.4774490000000  0.4095160000000  0.4900200000000 1.0
C      1  0.4531530000000  0.5582250000000  0.4248910000000 1.0
C      1  0.5040630000000  0.5386840000000  0.4147660000000 1.0
C      1  0.6065510000000  0.5678480000000  0.4953410000000 1.0
C      1  0.4699690000000  0.4915980000000  0.4375410000000 1.0
C      1  0.4775880000000  0.5327620000000  0.4759210000000 1.0
C      1  0.5873510000000  0.4682810000000  0.5353410000000 1.0
C      1  0.4229580000000  0.5101130000000  0.4516850000000 1.0
C      1  0.4593380000000  0.4093810000000  0.5122910000000 1.0
C      1  0.5955770000000  0.5290490000000  0.4549660000000 1.0
C      1  0.3965150000000  0.5459340000000  0.4964560000000 1.0
C      1  0.5621390000000  0.5039740000000  0.5252590000000 1.0
C      1  0.6012740000000  0.5446320000000  0.5652560000000 1.0
C      1  0.4366080000000  0.4894630000000  0.5462520000000 1.0
C      1  0.6055170000000  0.5207910000000  0.4803700000000 1.0
C      1  0.4350240000000  0.4709160000000  0.4898130000000 1.0
C      1  0.5495320000000  0.4349650000000  0.5811140000000 1.0
C      1  0.5615570000000  0.4908810000000  0.5732370000000 1.0
C      1  0.5053410000000  0.4137680000000  0.4975770000000 1.0
C      1  0.5084590000000  0.4705540000000  0.5407210000000 1.0
C      1  0.4217140000000  0.5726330000000  0.4638170000000 1.0
C      1  0.4593970000000  0.4674670000000  0.4766810000000 1.0
C      1  0.4783620000000  0.4870760000000  0.4853120000000 1.0
C      1  0.5228030000000  0.4808710000000  0.4548780000000 1.0
C      1  0.5329770000000  0.5294510000000  0.5693380000000 1.0
C      1  0.5298140000000  0.5519900000000  0.4244600000000 1.0
C      1  0.5897630000000  0.4929600000000  0.5201950000000 1.0
C      1  0.4542010000000  0.5314840000000  0.4909060000000 1.0
C      1  0.4702960000000  0.4156820000000  0.4623670000000 1.0
C      1  0.4553800000000  0.4501140000000  0.4260760000000 1.0
C      1  0.6276270000000  0.6100350000000  0.4304540000000 1.0
C      1  0.5656830000000  0.4672300000000  0.4478430000000 1.0
C      1  0.5509010000000  0.4418290000000  0.4531770000000 1.0
C      1  0.5371230000000  0.5034970000000  0.5807560000000 1.0
C      1  0.5180070000000  0.4382660000000  0.4359330000000 1.0
C      1  0.3942030000000  0.5074010000000  0.4581100000000 1.0
C      1  0.4439330000000  0.5268840000000  0.5689850000000 1.0
C      1  0.5767400000000  0.4818720000000  0.4715400000000 1.0
C      1  0.3957980000000  0.5279370000000  0.5191940000000 1.0
C      1  0.5287220000000  0.4458460000000  0.5969230000000 1.0
C      1  0.4702780000000  0.4031050000000  0.5481140000000 1.0
C      1  0.5108150000000  0.5102480000000  0.4110150000000 1.0
C      1  0.5189130000000  0.4795260000000  0.5170600000000 1.0
C      1  0.4439070000000  0.4495330000000  0.5728890000000 1.0
C      1  0.5770140000000  0.5583890000000  0.5606850000000 1.0
C      1  0.5528060000000  0.5491780000000  0.5713520000000 1.0
C      1  0.6223160000000  0.5970890000000  0.4524490000000 1.0
C      1  0.5111050000000  0.5064920000000  0.4583090000000 1.0
C      1  0.4248930000000  0.4962460000000  0.4953610000000 1.0
C      1  0.5075980000000  0.4602310000000  0.4182670000000 1.0
C      1  0.4819340000000  0.5552390000000  0.4240770000000 1.0
C      1  0.5124980000000  0.5303250000000  0.5486420000000 1.0
C      1  0.4816070000000  0.5067880000000  0.4615110000000 1.0
C      1  0.4286790000000  0.4623780000000  0.4296480000000 1.0
C      1  0.5516190000000  0.4325040000000  0.5320670000000 1.0
C      1  0.5083740000000  0.4652370000000  0.5999920000000 1.0
C      1  0.5018260000000  0.4769170000000  0.4953370000000 1.0
C      1  0.4454830000000  0.5728430000000  0.4486840000000 1.0
C      1  0.6266930000000  0.5338730000000  0.5233230000000 1.0
C      1  0.5786630000000  0.4698270000000  0.5632590000000 1.0
C      1  0.4172430000000  0.5668970000000  0.4917840000000 1.0
C      1  0.5399420000000  0.5061810000000  0.4183330000000 1.0
C      1  0.4895810000000  0.5797440000000  0.5114930000000 1.0
C      1  0.4668870000000  0.5830400000000  0.4919780000000 1.0
C      1  0.4625870000000  0.4293210000000  0.5595570000000 1.0
C      1  0.5601710000000  0.4531270000000  0.5138540000000 1.0
C      1  0.4697820000000  0.5817470000000  0.4631580000000 1.0
C      1  0.5495740000000  0.4358540000000  0.4820350000000 1.0
C      1  0.4220080000000  0.5118430000000  0.5579070000000 1.0
C      1  0.4687460000000  0.4622300000000  0.4489150000000 1.0
C      1  0.6209670000000  0.5353940000000  0.5494920000000 1.0
C      1  0.5775040000000  0.5759510000000  0.5386260000000 1.0
C      1  0.5115980000000  0.3994860000000  0.5214680000000 1.0
C      1  0.4485350000000  0.4341840000000  0.5178900000000 1.0
C      1  0.5765770000000  0.5346310000000  0.4368300000000 1.0
C      1  0.5208060000000  0.5742660000000  0.4407910000000 1.0
C      1  0.5513080000000  0.5325180000000  0.4246940000000 1.0
C      1  0.4344290000000  0.5162580000000  0.4779830000000 1.0
C      1  0.3996410000000  0.4534420000000  0.4703030000000 1.0
C      1  0.5449450000000  0.4836110000000  0.4354340000000 1.0
C      1  0.4361640000000  0.5499940000000  0.4053260000000 1.0
C      1  0.3853700000000  0.5314210000000  0.4726420000000 1.0
C      1  0.4604260000000  0.5004920000000  0.5876740000000 1.0
C      1  0.4499870000000  0.5729500000000  0.5371070000000 1.0
C      1  0.5126210000000  0.4922530000000  0.5911190000000 1.0
C      1  0.4920880000000  0.5752300000000  0.4449530000000 1.0
C      1  0.4370680000000  0.4930130000000  0.4336140000000 1.0
C      1  0.4221140000000  0.4453750000000  0.5234260000000 1.0
C      1  0.5137330000000  0.4609260000000  0.4751310000000 1.0
C      1  0.5754390000000  0.4470160000000  0.5801050000000 1.0
C      1  0.4272150000000  0.4615190000000  0.5492600000000 1.0
C      1  0.5470940000000  0.5276120000000  0.5144390000000 1.0
C      1  0.4007330000000  0.5271150000000  0.5469690000000 1.0
C      1  0.5523410000000  0.4923070000000  0.4832940000000 1.0
C      1  0.4403320000000  0.5768470000000  0.5079960000000 1.0
C      1  0.5435830000000  0.4235240000000  0.5560590000000 1.0
C      1  0.4180830000000  0.4428680000000  0.4499320000000 1.0
C      1  0.4669890000000  0.4940630000000  0.5428470000000 1.0
C      1  0.4570500000000  0.4700880000000  0.5910720000000 1.0
C      1  0.4807390000000  0.4592040000000  0.6043450000000 1.0
C      1  0.5468290000000  0.4803070000000  0.5104810000000 1.0
C      1  0.5072540000000  0.5576390000000  0.5070910000000 1.0
C      1  0.6158870000000  0.5834690000000  0.4742460000000 1.0
C      1  0.4950460000000  0.4210660000000  0.4455680000000 1.0
C      1  0.6150680000000  0.5406050000000  0.4985370000000 1.0
C      1  0.5456020000000  0.5204860000000  0.4862120000000 1.0
C      1  0.5888810000000  0.5783710000000  0.5145490000000 1.0
C      1  0.4767800000000  0.5845480000000  0.5369390000000 1.0
C      1  0.4959450000000  0.3936630000000  0.5430020000000 1.0
C      1  0.5967910000000  0.4947460000000  0.4902140000000 1.0
C      1  0.4884460000000  0.5062860000000  0.5827990000000 1.0
C      1  0.4544650000000  0.5320140000000  0.5193900000000 1.0
C      1  0.4133760000000  0.4528370000000  0.4964030000000 1.0
C      1  0.4504190000000  0.5451340000000  0.5455390000000 1.0
C      1  0.4808650000000  0.4691200000000  0.5404320000000 1.0
C      1  0.5212920000000  0.4345420000000  0.4857730000000 1.0
C      1  0.5232990000000  0.5281680000000  0.4717340000000 1.0
C      1  0.4017070000000  0.5015060000000  0.5099030000000 1.0
C      1  0.5027600000000  0.5443040000000  0.4826540000000 1.0
C      1  0.5231130000000  0.5411910000000  0.5246350000000 1.0
C      1  0.3866540000000  0.4792640000000  0.4629770000000 1.0
C      1  0.4885820000000  0.5142360000000  0.5540410000000 1.0
C      1  0.4407190000000  0.4222620000000  0.4569250000000 1.0
C      1  0.4680450000000  0.4456120000000  0.5356620000000 1.0
END
