TITL C-627110-360-1509 45.5546882538864 125000 -303.452250130816 0 0 51 (C1) n - 1
REM
REM in /home/nfs/bkarasulu/CARBON/AIRSS/Generating-Clusters/LCBOP/Only-C1/SD-CG/FIRE-CG
REM
REM
REM
REM
REM
REM ./C.cell (11c1c37f851c82e70ff6c80c92926a4b)
REM AIRSS Version 0.9.1 bugfix July 2018 build 013d7b7c2542+ Fri, 06 Jul 2018 19:26:36 +0100
REM compiler GCC version 9.2.1 20190827 (Red Hat 9.2.1-1)
REM options -cpp -mtune=generic -march=x86-64 -g -O0 -fpre-include=/usr/include/finclude/math-vector-fortran.h
REM seed -603924666 1480600567 -964373118 818794833 294309062 1761431813 -722424856 1591134499 -2089558628 -2030695647 -1505730568 -181827209 -1060502110 -1968534011 -793312574 -1409660236 -1545019660 8960585 -1697614 -1858124688 -1418288879 -1451050871 -438306104 -236930782 -1018837409 1833007231 -363032132 585820848 1211587818 1708308186 201549478 1255820366 -1251398375
REM
CELL 1.54180   50.00000   50.00000   50.00000   90.00000   90.00000   90.00000
LATT -1
SFAC C  
C      1  0.5831710000000  0.5579050000000  0.5053420000000 1.0
C      1  0.5064010000000  0.4648480000000  0.4846760000000 1.0
C      1  0.4788720000000  0.4228370000000  0.5695500000000 1.0
C      1  0.5127380000000  0.6337960000000  0.4959630000000 1.0
C      1  0.4343310000000  0.5087090000000  0.5243360000000 1.0
C      1  0.4416440000000  0.4137550000000  0.5230700000000 1.0
C      1  0.5211170000000  0.7118910000000  0.5135780000000 1.0
C      1  0.4640910000000  0.4425750000000  0.5555080000000 1.0
C      1  0.5611330000000  0.5910310000000  0.4477000000000 1.0
C      1  0.5471170000000  0.6074830000000  0.4630480000000 1.0
C      1  0.5814310000000  0.5236530000000  0.4135870000000 1.0
C      1  0.4923760000000  0.4013480000000  0.5548200000000 1.0
C      1  0.5199020000000  0.4060710000000  0.5540830000000 1.0
C      1  0.4980080000000  0.4743160000000  0.5326300000000 1.0
C      1  0.5326980000000  0.4390410000000  0.4285550000000 1.0
C      1  0.4427720000000  0.4378180000000  0.5373400000000 1.0
C      1  0.4843480000000  0.3936500000000  0.4650730000000 1.0
C      1  0.4503780000000  0.3972330000000  0.5041570000000 1.0
C      1  0.3996470000000  0.4600390000000  0.5307470000000 1.0
C      1  0.4563100000000  0.4761780000000  0.4702960000000 1.0
C      1  0.5723160000000  0.5713600000000  0.4338870000000 1.0
C      1  0.4618600000000  0.4787780000000  0.4980370000000 1.0
C      1  0.4895850000000  0.4743670000000  0.5055360000000 1.0
C      1  0.4274490000000  0.4602030000000  0.5283490000000 1.0
C      1  0.4562870000000  0.5831750000000  0.5226160000000 1.0
C      1  0.5263220000000  0.4306350000000  0.5686910000000 1.0
C      1  0.4408920000000  0.4826140000000  0.5167620000000 1.0
C      1  0.5010670000000  0.4089000000000  0.4510650000000 1.0
C      1  0.5519990000000  0.4527370000000  0.4165770000000 1.0
C      1  0.5310860000000  0.6212530000000  0.4790300000000 1.0
C      1  0.5417070000000  0.4966810000000  0.5333220000000 1.0
C      1  0.4659180000000  0.3898830000000  0.4838740000000 1.0
C      1  0.4986970000000  0.4561220000000  0.4587860000000 1.0
C      1  0.5018050000000  0.4338590000000  0.5848240000000 1.0
C      1  0.4727080000000  0.6028020000000  0.5156950000000 1.0
C      1  0.5111270000000  0.4344670000000  0.4455730000000 1.0
C      1  0.5693880000000  0.5377680000000  0.5145150000000 1.0
C      1  0.4914900000000  0.6192260000000  0.5067750000000 1.0
C      1  0.5183980000000  0.6865980000000  0.5078760000000 1.0
C      1  0.5775050000000  0.4977970000000  0.4091790000000 1.0
C      1  0.4730000000000  0.4657680000000  0.4516250000000 1.0
C      1  0.5557230000000  0.5172290000000  0.5242140000000 1.0
C      1  0.5357150000000  0.4536150000000  0.5556790000000 1.0
C      1  0.5156370000000  0.6608930000000  0.5020800000000 1.0
C      1  0.5794520000000  0.5486490000000  0.4222150000000 1.0
C      1  0.5255160000000  0.4751470000000  0.5404270000000 1.0
C      1  0.3736770000000  0.4599930000000  0.5329000000000 1.0
C      1  0.4435000000000  0.5603290000000  0.5267970000000 1.0
C      1  0.4784730000000  0.4667380000000  0.5514880000000 1.0
C      1  0.4357380000000  0.5349850000000  0.5275350000000 1.0
C      1  0.5674800000000  0.4732530000000  0.4100080000000 1.0
END
