TITL C-627111-6168-770 6.07172448130646 125000 -903.059177024293 0 0 150 (C1) n - 1
REM
REM in /home/nfs/bkarasulu/CARBON/AIRSS/Generating-Clusters/LCBOP/Only-C1/SD-CG/FIRE-CG
REM
REM
REM
REM
REM
REM ./C.cell (11c1c37f851c82e70ff6c80c92926a4b)
REM AIRSS Version 0.9.1 bugfix July 2018 build 013d7b7c2542+ Fri, 06 Jul 2018 19:26:36 +0100
REM compiler GCC version 9.2.1 20190827 (Red Hat 9.2.1-1)
REM options -cpp -mtune=generic -march=x86-64 -g -O0 -fpre-include=/usr/include/finclude/math-vector-fortran.h
REM seed 460674015 -1150097595 -1579168156 208025539 1724283476 -1805970127 -1920595463 68976008 1135548661 -664404981 -948403999 -1688780812 -407911631 725058106 -1587748535 -970866571 196127477 1759166465 -554014532 1637249449 457969886 1196146488 2058954043 -83947513 588584141 -48182481 -666621816 -447469443 1741987731 516723698 -1444664163 2026008245 -925584754
REM
CELL 1.54180   50.00000   50.00000   50.00000   90.00000   90.00000   90.00000
LATT -1
SFAC C  
C      1  0.4395810000000  0.4390570000000  0.5573910000000 1.0
C      1  0.4609000000000  0.5766460000000  0.4285740000000 1.0
C      1  0.5102070000000  0.4142980000000  0.4890490000000 1.0
C      1  0.5090780000000  0.5858990000000  0.4174590000000 1.0
C      1  0.5595880000000  0.4342770000000  0.4350810000000 1.0
C      1  0.6115490000000  0.5316520000000  0.5034880000000 1.0
C      1  0.4528620000000  0.5829280000000  0.5241020000000 1.0
C      1  0.4906530000000  0.4302040000000  0.3984740000000 1.0
C      1  0.5486920000000  0.5176890000000  0.4477190000000 1.0
C      1  0.4810040000000  0.4548440000000  0.5043670000000 1.0
C      1  0.6107610000000  0.5400800000000  0.4755670000000 1.0
C      1  0.5513220000000  0.4444190000000  0.5069230000000 1.0
C      1  0.5257750000000  0.4668300000000  0.5460150000000 1.0
C      1  0.4711680000000  0.4488040000000  0.4082670000000 1.0
C      1  0.5371960000000  0.5439700000000  0.5835740000000 1.0
C      1  0.5238220000000  0.4988770000000  0.5857430000000 1.0
C      1  0.4470220000000  0.4647020000000  0.5106950000000 1.0
C      1  0.4737520000000  0.3870430000000  0.4738910000000 1.0
C      1  0.5697340000000  0.5915260000000  0.5071740000000 1.0
C      1  0.4547090000000  0.4304410000000  0.4695160000000 1.0
C      1  0.4949140000000  0.4309380000000  0.5640190000000 1.0
C      1  0.4794880000000  0.5144630000000  0.6042810000000 1.0
C      1  0.4105580000000  0.5151430000000  0.4545480000000 1.0
C      1  0.5600610000000  0.5114360000000  0.4724320000000 1.0
C      1  0.5109150000000  0.6566100000000  0.5642940000000 1.0
C      1  0.5807010000000  0.5666500000000  0.5002270000000 1.0
C      1  0.5374590000000  0.4524950000000  0.4805120000000 1.0
C      1  0.5569890000000  0.5866060000000  0.5580190000000 1.0
C      1  0.6198290000000  0.4953680000000  0.5393890000000 1.0
C      1  0.4544860000000  0.5126550000000  0.5180770000000 1.0
C      1  0.5116060000000  0.6362350000000  0.5480500000000 1.0
C      1  0.5876920000000  0.5370750000000  0.4330990000000 1.0
C      1  0.5674990000000  0.5146820000000  0.4243320000000 1.0
C      1  0.4723010000000  0.5818350000000  0.5448550000000 1.0
C      1  0.4215720000000  0.4819410000000  0.6110190000000 1.0
C      1  0.3843520000000  0.4517970000000  0.4522200000000 1.0
C      1  0.6247430000000  0.5120380000000  0.5187550000000 1.0
C      1  0.5740320000000  0.5313960000000  0.5370520000000 1.0
C      1  0.4755670000000  0.3946620000000  0.5345400000000 1.0
C      1  0.4397540000000  0.5569590000000  0.5210790000000 1.0
C      1  0.4802750000000  0.4638080000000  0.4527040000000 1.0
C      1  0.5002330000000  0.3883420000000  0.4833610000000 1.0
C      1  0.4264040000000  0.5242960000000  0.5833700000000 1.0
C      1  0.3822990000000  0.5071610000000  0.4552920000000 1.0
C      1  0.4476740000000  0.3970160000000  0.5309440000000 1.0
C      1  0.4266410000000  0.4578280000000  0.4914550000000 1.0
C      1  0.4396240000000  0.4620830000000  0.6119370000000 1.0
C      1  0.5409860000000  0.4827150000000  0.3799000000000 1.0
C      1  0.5449240000000  0.6013450000000  0.4624780000000 1.0
C      1  0.5355980000000  0.5808690000000  0.4204860000000 1.0
C      1  0.4583640000000  0.5071560000000  0.4918330000000 1.0
C      1  0.5263920000000  0.4774530000000  0.4769510000000 1.0
C      1  0.5121150000000  0.5953520000000  0.5142800000000 1.0
C      1  0.3731740000000  0.4913060000000  0.4773810000000 1.0
C      1  0.5125990000000  0.6151270000000  0.5320480000000 1.0
C      1  0.5176250000000  0.4291310000000  0.4030430000000 1.0
C      1  0.5887730000000  0.5447480000000  0.5171630000000 1.0
C      1  0.5468920000000  0.5685520000000  0.5748300000000 1.0
C      1  0.4912210000000  0.4175350000000  0.5384720000000 1.0
C      1  0.4852130000000  0.5916110000000  0.4321000000000 1.0
C      1  0.4404730000000  0.5878950000000  0.4141140000000 1.0
C      1  0.4542540000000  0.4766600000000  0.4569110000000 1.0
C      1  0.4977830000000  0.5382670000000  0.5359910000000 1.0
C      1  0.5119640000000  0.5162650000000  0.5457990000000 1.0
C      1  0.4466570000000  0.5325840000000  0.5379810000000 1.0
C      1  0.5242900000000  0.4297720000000  0.5714790000000 1.0
C      1  0.5025140000000  0.4866440000000  0.5423720000000 1.0
C      1  0.5747080000000  0.4888570000000  0.5648660000000 1.0
C      1  0.4434460000000  0.4572080000000  0.4075740000000 1.0
C      1  0.5490330000000  0.4681270000000  0.4025410000000 1.0
C      1  0.5456830000000  0.5092350000000  0.3775070000000 1.0
C      1  0.4901140000000  0.5618930000000  0.5493970000000 1.0
C      1  0.6109750000000  0.5289980000000  0.4490270000000 1.0
C      1  0.5577340000000  0.5235710000000  0.3969650000000 1.0
C      1  0.4891830000000  0.6075130000000  0.4560380000000 1.0
C      1  0.5417630000000  0.4413120000000  0.4119970000000 1.0
C      1  0.4793040000000  0.4817450000000  0.5631010000000 1.0
C      1  0.5917240000000  0.4293350000000  0.4863330000000 1.0
C      1  0.5162840000000  0.6036050000000  0.4673770000000 1.0
C      1  0.4862690000000  0.4660900000000  0.4256010000000 1.0
C      1  0.5704380000000  0.4098420000000  0.4811620000000 1.0
C      1  0.5012850000000  0.5314000000000  0.6117100000000 1.0
C      1  0.5680620000000  0.4819020000000  0.4215470000000 1.0
C      1  0.5897290000000  0.5617880000000  0.4733490000000 1.0
C      1  0.5530140000000  0.4171020000000  0.4576620000000 1.0
C      1  0.5139770000000  0.5406330000000  0.4708400000000 1.0
C      1  0.5611120000000  0.6070060000000  0.4851380000000 1.0
C      1  0.4362900000000  0.4118070000000  0.5519760000000 1.0
C      1  0.5378590000000  0.4558140000000  0.5701320000000 1.0
C      1  0.4865060000000  0.5167070000000  0.4242680000000 1.0
C      1  0.5392470000000  0.4086240000000  0.5580570000000 1.0
C      1  0.5809370000000  0.4515720000000  0.5017160000000 1.0
C      1  0.4052090000000  0.5141540000000  0.5054840000000 1.0
C      1  0.5542560000000  0.5820240000000  0.4421310000000 1.0
C      1  0.4374380000000  0.4538060000000  0.4660750000000 1.0
C      1  0.5337480000000  0.5194500000000  0.5652850000000 1.0
C      1  0.4520800000000  0.4042240000000  0.4796900000000 1.0
C      1  0.4572870000000  0.5505930000000  0.4394990000000 1.0
C      1  0.3961340000000  0.5043940000000  0.5508870000000 1.0
C      1  0.4911960000000  0.4911470000000  0.4150120000000 1.0
C      1  0.4950950000000  0.4806020000000  0.5130050000000 1.0
C      1  0.4704440000000  0.5069890000000  0.5770830000000 1.0
C      1  0.5284640000000  0.4267690000000  0.4706280000000 1.0
C      1  0.4680980000000  0.6088900000000  0.4769210000000 1.0
C      1  0.5648310000000  0.5961930000000  0.5343530000000 1.0
C      1  0.3992180000000  0.4544300000000  0.4990790000000 1.0
C      1  0.5106570000000  0.4939100000000  0.4929140000000 1.0
C      1  0.5276480000000  0.4482750000000  0.5245710000000 1.0
C      1  0.5296660000000  0.5351650000000  0.6103420000000 1.0
C      1  0.4616250000000  0.4519090000000  0.6001190000000 1.0
C      1  0.5092330000000  0.5215320000000  0.4917600000000 1.0
C      1  0.4201210000000  0.5277080000000  0.4823470000000 1.0
C      1  0.5256670000000  0.5333370000000  0.4467540000000 1.0
C      1  0.4661950000000  0.5039530000000  0.6260540000000 1.0
C      1  0.4578720000000  0.5040190000000  0.4636020000000 1.0
C      1  0.4901730000000  0.5347530000000  0.5094450000000 1.0
C      1  0.5761890000000  0.5625850000000  0.4468510000000 1.0
C      1  0.4705770000000  0.4513950000000  0.5711980000000 1.0
C      1  0.5554310000000  0.4125000000000  0.5078060000000 1.0
C      1  0.3975820000000  0.4477520000000  0.5274540000000 1.0
C      1  0.5020350000000  0.4327450000000  0.5149030000000 1.0
C      1  0.4164820000000  0.5062800000000  0.6008510000000 1.0
C      1  0.4214910000000  0.4715870000000  0.4206400000000 1.0
C      1  0.4429390000000  0.5478910000000  0.4924400000000 1.0
C      1  0.6014010000000  0.4854810000000  0.5563810000000 1.0
C      1  0.3810220000000  0.4634620000000  0.4781100000000 1.0
C      1  0.5613300000000  0.5127650000000  0.5543620000000 1.0
C      1  0.5451400000000  0.4896280000000  0.6029680000000 1.0
C      1  0.4315940000000  0.4780040000000  0.5316800000000 1.0
C      1  0.4199890000000  0.4553130000000  0.5454570000000 1.0
C      1  0.5877460000000  0.4780340000000  0.4997020000000 1.0
C      1  0.4568250000000  0.6002300000000  0.5006490000000 1.0
C      1  0.3994400000000  0.4559350000000  0.4301580000000 1.0
C      1  0.4217670000000  0.4988490000000  0.4320390000000 1.0
C      1  0.5763060000000  0.4993710000000  0.4892050000000 1.0
C      1  0.4487000000000  0.5235900000000  0.5656980000000 1.0
C      1  0.4798560000000  0.4451960000000  0.4746350000000 1.0
C      1  0.4738590000000  0.5507990000000  0.4905400000000 1.0
C      1  0.5498020000000  0.4019690000000  0.5336870000000 1.0
C      1  0.4962720000000  0.5630440000000  0.4769820000000 1.0
C      1  0.5583960000000  0.4725890000000  0.5833000000000 1.0
C      1  0.5089880000000  0.5332430000000  0.4244860000000 1.0
C      1  0.4655250000000  0.5235130000000  0.4427220000000 1.0
C      1  0.4134750000000  0.5005520000000  0.5296160000000 1.0
C      1  0.5152740000000  0.3658640000000  0.4869470000000 1.0
C      1  0.4387210000000  0.3984400000000  0.5041060000000 1.0
C      1  0.3777840000000  0.5074460000000  0.5000600000000 1.0
C      1  0.5760910000000  0.4591070000000  0.4381500000000 1.0
C      1  0.5467070000000  0.5128470000000  0.6202330000000 1.0
C      1  0.5093820000000  0.5853880000000  0.4885170000000 1.0
END
