TITL C-627108-131-1962 2.75245713252016 125000 -181.593321525773 0 0 32 (C1) n - 1
REM
REM in /home/nfs/bkarasulu/CARBON/AIRSS/Generating-Clusters/LCBOP/Only-C1/SD-CG/FIRE-CG
REM
REM
REM
REM
REM
REM ./C.cell (11c1c37f851c82e70ff6c80c92926a4b)
REM AIRSS Version 0.9.1 bugfix July 2018 build 013d7b7c2542+ Fri, 06 Jul 2018 19:26:36 +0100
REM compiler GCC version 9.2.1 20190827 (Red Hat 9.2.1-1)
REM options -cpp -mtune=generic -march=x86-64 -g -O0 -fpre-include=/usr/include/finclude/math-vector-fortran.h
REM seed -1646479358 1969405825 1462079738 955399644 -1079487199 1800538153 1691283475 -1894732112 1382364508 -160214787 -697689047 -1927884329 -1096684314 1870361248 -1812350717 -105160032 466936387 -1572305305 -1522136737 -357658673 -355299491 -1358692472 -1883650705 1212401379 929951830 -1947948443 -1195128285 220218203 -999080616 -1877440243 -142869109 -1063680929 2073261353
REM
CELL 1.54180   50.00000   50.00000   50.00000   90.00000   90.00000   90.00000
LATT -1
SFAC C  
C      1  0.4872410000000  0.4327010000000  0.4570560000000 1.0
C      1  0.4101260000000  0.4738510000000  0.4888760000000 1.0
C      1  0.5929080000000  0.5879960000000  0.5525640000000 1.0
C      1  0.4995170000000  0.4892350000000  0.4774270000000 1.0
C      1  0.4735450000000  0.5143730000000  0.4017720000000 1.0
C      1  0.4144230000000  0.4994240000000  0.4779270000000 1.0
C      1  0.3481250000000  0.4469850000000  0.4549120000000 1.0
C      1  0.5948090000000  0.5286590000000  0.4745820000000 1.0
C      1  0.3993130000000  0.4524900000000  0.4715300000000 1.0
C      1  0.5930210000000  0.5813220000000  0.5783210000000 1.0
C      1  0.5793500000000  0.4890350000000  0.6094460000000 1.0
C      1  0.4461030000000  0.4442220000000  0.4797910000000 1.0
C      1  0.4593910000000  0.4979350000000  0.4512060000000 1.0
C      1  0.5736620000000  0.5098140000000  0.5384020000000 1.0
C      1  0.5771790000000  0.5061970000000  0.5644450000000 1.0
C      1  0.5666640000000  0.5176700000000  0.5124750000000 1.0
C      1  0.5868510000000  0.5617480000000  0.5085740000000 1.0
C      1  0.4702370000000  0.4515630000000  0.4671930000000 1.0
C      1  0.5905110000000  0.5802720000000  0.5272380000000 1.0
C      1  0.5214270000000  0.4984660000000  0.4890940000000 1.0
C      1  0.4664910000000  0.5066130000000  0.4256290000000 1.0
C      1  0.3234310000000  0.4445760000000  0.4469090000000 1.0
C      1  0.4763800000000  0.4795000000000  0.4650640000000 1.0
C      1  0.5862400000000  0.5359820000000  0.6009660000000 1.0
C      1  0.4344010000000  0.4617750000000  0.4999150000000 1.0
C      1  0.5905610000000  0.5617800000000  0.5962120000000 1.0
C      1  0.5829440000000  0.5360880000000  0.4980870000000 1.0
C      1  0.5808940000000  0.5099780000000  0.5919860000000 1.0
C      1  0.5433670000000  0.5077110000000  0.5007000000000 1.0
C      1  0.3732160000000  0.4494690000000  0.4630460000000 1.0
C      1  0.4355250000000  0.5070860000000  0.4630750000000 1.0
C      1  0.4221480000000  0.4354830000000  0.4655790000000 1.0
END
