TITL C-627106-156-1350 2.55335676362476 125000 -1169.11998849031 0 0 190 (C1) n - 1
REM
REM in /home/nfs/bkarasulu/CARBON/AIRSS/Generating-Clusters/LCBOP/Only-C1/SD-CG/FIRE-CG
REM
REM
REM
REM
REM
REM ./C.cell (11c1c37f851c82e70ff6c80c92926a4b)
REM AIRSS Version 0.9.1 bugfix July 2018 build 013d7b7c2542+ Fri, 06 Jul 2018 19:26:36 +0100
REM compiler GCC version 9.2.1 20190827 (Red Hat 9.2.1-1)
REM options -cpp -mtune=generic -march=x86-64 -g -O0 -fpre-include=/usr/include/finclude/math-vector-fortran.h
REM seed -831647892 1838991877 -726336761 -670222951 743754176 -641443962 1733580700 -1982826807 -527105016 1907046989 1275958076 -231924620 2029468331 38991490 238158516 1466469752 -72328796 -680974118 431472495 1257954810 1631824718 1516480506 -1669672038 -55136837 -106088357 1747656042 -1112319294 2067736159 1648653634 1428710523 718862273 -1621905119 2117911988
REM
CELL 1.54180   50.00000   50.00000   50.00000   90.00000   90.00000   90.00000
LATT -1
SFAC C  
C      1  0.4720350000000  0.5700300000000  0.4784960000000 1.0
C      1  0.4470420000000  0.5686220000000  0.4266640000000 1.0
C      1  0.3998260000000  0.5121320000000  0.4278360000000 1.0
C      1  0.5275150000000  0.4459080000000  0.5841570000000 1.0
C      1  0.4833750000000  0.5358200000000  0.5081710000000 1.0
C      1  0.5361640000000  0.3983900000000  0.4302240000000 1.0
C      1  0.4837550000000  0.5118160000000  0.6199890000000 1.0
C      1  0.4131960000000  0.4815530000000  0.5039680000000 1.0
C      1  0.4227040000000  0.5591780000000  0.4143650000000 1.0
C      1  0.6128160000000  0.5407270000000  0.4940050000000 1.0
C      1  0.5099200000000  0.5172700000000  0.3807420000000 1.0
C      1  0.5202310000000  0.3928520000000  0.5361910000000 1.0
C      1  0.5387980000000  0.4135220000000  0.5259190000000 1.0
C      1  0.5192670000000  0.5062320000000  0.4814160000000 1.0
C      1  0.5789230000000  0.5141190000000  0.5557030000000 1.0
C      1  0.4487950000000  0.5146080000000  0.5839580000000 1.0
C      1  0.5800740000000  0.3928950000000  0.4863470000000 1.0
C      1  0.5169210000000  0.5428390000000  0.5483570000000 1.0
C      1  0.3793160000000  0.5320230000000  0.4821740000000 1.0
C      1  0.5192330000000  0.4309310000000  0.5140260000000 1.0
C      1  0.4839570000000  0.5617760000000  0.6083000000000 1.0
C      1  0.4428570000000  0.4604950000000  0.4651010000000 1.0
C      1  0.4624860000000  0.4685950000000  0.5994540000000 1.0
C      1  0.6060850000000  0.6211810000000  0.4770580000000 1.0
C      1  0.4553440000000  0.3932140000000  0.5263650000000 1.0
C      1  0.5628090000000  0.5471200000000  0.4505240000000 1.0
C      1  0.6833400000000  0.4150260000000  0.4713870000000 1.0
C      1  0.4913220000000  0.3951930000000  0.4811260000000 1.0
C      1  0.5718300000000  0.4591470000000  0.4055260000000 1.0
C      1  0.4601410000000  0.5821600000000  0.5698590000000 1.0
C      1  0.5122520000000  0.5149800000000  0.5389040000000 1.0
C      1  0.5810780000000  0.4717350000000  0.5811790000000 1.0
C      1  0.4300970000000  0.4817160000000  0.4825180000000 1.0
C      1  0.5796720000000  0.4846540000000  0.3952220000000 1.0
C      1  0.4951610000000  0.5387870000000  0.6203680000000 1.0
C      1  0.6090550000000  0.5153190000000  0.4813080000000 1.0
C      1  0.4680590000000  0.4729770000000  0.5389940000000 1.0
C      1  0.6088800000000  0.4784360000000  0.5149690000000 1.0
C      1  0.4994160000000  0.4930640000000  0.6352690000000 1.0
C      1  0.5226070000000  0.5418110000000  0.6289240000000 1.0
C      1  0.4035120000000  0.5469880000000  0.4772210000000 1.0
C      1  0.5093620000000  0.5456270000000  0.3827180000000 1.0
C      1  0.5374380000000  0.5028380000000  0.5281090000000 1.0
C      1  0.4149460000000  0.4244620000000  0.5184310000000 1.0
C      1  0.5088970000000  0.5813180000000  0.5713060000000 1.0
C      1  0.4537440000000  0.4731620000000  0.4413640000000 1.0
C      1  0.4592010000000  0.6063230000000  0.5219290000000 1.0
C      1  0.4541400000000  0.5467650000000  0.4434950000000 1.0
C      1  0.4932370000000  0.3836450000000  0.4549790000000 1.0
C      1  0.4787980000000  0.4573100000000  0.5160730000000 1.0
C      1  0.4973110000000  0.4645550000000  0.4931220000000 1.0
C      1  0.5393740000000  0.4909480000000  0.5998760000000 1.0
C      1  0.5681020000000  0.4212450000000  0.5262370000000 1.0
C      1  0.5292300000000  0.5403210000000  0.5758580000000 1.0
C      1  0.5958770000000  0.4664180000000  0.5365670000000 1.0
C      1  0.3935130000000  0.5764520000000  0.5103080000000 1.0
C      1  0.6118570000000  0.4517210000000  0.4718650000000 1.0
C      1  0.5914560000000  0.5792380000000  0.5273010000000 1.0
C      1  0.5260180000000  0.4656140000000  0.6054890000000 1.0
C      1  0.5985650000000  0.6225020000000  0.5033600000000 1.0
C      1  0.3345730000000  0.5658270000000  0.5549790000000 1.0
C      1  0.4738820000000  0.4129290000000  0.5374180000000 1.0
C      1  0.3542530000000  0.5749990000000  0.5392780000000 1.0
C      1  0.4686640000000  0.4860970000000  0.3968060000000 1.0
C      1  0.5251500000000  0.5535490000000  0.4783180000000 1.0
C      1  0.4413260000000  0.5410460000000  0.5448830000000 1.0
C      1  0.4724140000000  0.4388540000000  0.4066830000000 1.0
C      1  0.4667830000000  0.5005530000000  0.5383540000000 1.0
C      1  0.4227350000000  0.5963230000000  0.4814410000000 1.0
C      1  0.5673220000000  0.4920100000000  0.5955880000000 1.0
C      1  0.5353160000000  0.4909600000000  0.4410710000000 1.0
C      1  0.4809030000000  0.3885020000000  0.4295770000000 1.0
C      1  0.5669570000000  0.4854840000000  0.4944900000000 1.0
C      1  0.3280480000000  0.5195030000000  0.5373960000000 1.0
C      1  0.4084140000000  0.5357970000000  0.4171820000000 1.0
C      1  0.5334790000000  0.5848380000000  0.5095750000000 1.0
C      1  0.4467240000000  0.4573880000000  0.5519680000000 1.0
C      1  0.5490930000000  0.5432920000000  0.6233600000000 1.0
C      1  0.5793830000000  0.4440750000000  0.5729790000000 1.0
C      1  0.4382880000000  0.5076890000000  0.4735730000000 1.0
C      1  0.5603330000000  0.5777170000000  0.5713840000000 1.0
C      1  0.4359950000000  0.5968930000000  0.5078820000000 1.0
C      1  0.5505650000000  0.4391930000000  0.4483460000000 1.0
C      1  0.4920830000000  0.4316220000000  0.5250810000000 1.0
C      1  0.5334460000000  0.5000770000000  0.3794840000000 1.0
C      1  0.4931230000000  0.5250920000000  0.4273120000000 1.0
C      1  0.4333220000000  0.4444980000000  0.5285300000000 1.0
C      1  0.5443640000000  0.5391380000000  0.4279100000000 1.0
C      1  0.5203940000000  0.4468690000000  0.4906190000000 1.0
C      1  0.5100710000000  0.4528890000000  0.3718320000000 1.0
C      1  0.5592550000000  0.5055130000000  0.3917070000000 1.0
C      1  0.5602560000000  0.4988160000000  0.4538420000000 1.0
C      1  0.3391010000000  0.5242580000000  0.5115730000000 1.0
C      1  0.4841800000000  0.5789880000000  0.5857730000000 1.0
C      1  0.5251450000000  0.5122690000000  0.5859980000000 1.0
C      1  0.5821950000000  0.4403720000000  0.5439540000000 1.0
C      1  0.4315380000000  0.5362850000000  0.4856500000000 1.0
C      1  0.4898920000000  0.5853910000000  0.4118220000000 1.0
C      1  0.4714960000000  0.4165730000000  0.4770760000000 1.0
C      1  0.6074810000000  0.6427130000000  0.5195450000000 1.0
C      1  0.5683190000000  0.3807090000000  0.4656240000000 1.0
C      1  0.6145880000000  0.5041800000000  0.4538700000000 1.0
C      1  0.5092970000000  0.4009710000000  0.5640730000000 1.0
C      1  0.5272750000000  0.4735610000000  0.3707670000000 1.0
C      1  0.4772310000000  0.3672840000000  0.4125560000000 1.0
C      1  0.6367510000000  0.4393560000000  0.4711060000000 1.0
C      1  0.5036120000000  0.5833590000000  0.5167410000000 1.0
C      1  0.5395760000000  0.4763200000000  0.5415870000000 1.0
C      1  0.3695220000000  0.5116570000000  0.4646260000000 1.0
C      1  0.4854680000000  0.6076290000000  0.5088390000000 1.0
C      1  0.5406980000000  0.4975640000000  0.4986850000000 1.0
C      1  0.5877890000000  0.5555190000000  0.4392980000000 1.0
C      1  0.3977890000000  0.4326830000000  0.4964450000000 1.0
C      1  0.6061110000000  0.4757920000000  0.4567540000000 1.0
C      1  0.5813620000000  0.6027130000000  0.5139430000000 1.0
C      1  0.6055470000000  0.4936720000000  0.4045520000000 1.0
C      1  0.4587530000000  0.6023720000000  0.5501140000000 1.0
C      1  0.5805340000000  0.5758470000000  0.5534680000000 1.0
C      1  0.6602450000000  0.4271180000000  0.4712110000000 1.0
C      1  0.4527180000000  0.4466620000000  0.5065580000000 1.0
C      1  0.3627560000000  0.5397680000000  0.5053180000000 1.0
C      1  0.5426300000000  0.5595210000000  0.4994340000000 1.0
C      1  0.5348040000000  0.5690160000000  0.5805830000000 1.0
C      1  0.4279360000000  0.3989220000000  0.5214370000000 1.0
C      1  0.4644560000000  0.4233660000000  0.5818010000000 1.0
C      1  0.3903490000000  0.4478250000000  0.4747270000000 1.0
C      1  0.4764600000000  0.5928850000000  0.4608290000000 1.0
C      1  0.5689540000000  0.4551430000000  0.4334520000000 1.0
C      1  0.4320200000000  0.5492940000000  0.5199530000000 1.0
C      1  0.3226950000000  0.4935440000000  0.5460690000000 1.0
C      1  0.4520850000000  0.5523870000000  0.4708140000000 1.0
C      1  0.5242620000000  0.4175420000000  0.5824560000000 1.0
C      1  0.3278810000000  0.5108890000000  0.4892780000000 1.0
C      1  0.4695380000000  0.5876030000000  0.4318500000000 1.0
C      1  0.4731530000000  0.3726190000000  0.5177840000000 1.0
C      1  0.4667180000000  0.5231070000000  0.4363860000000 1.0
C      1  0.5943330000000  0.4957090000000  0.4977100000000 1.0
C      1  0.4869450000000  0.5144740000000  0.5248800000000 1.0
C      1  0.5611160000000  0.5375490000000  0.5039270000000 1.0
C      1  0.5919810000000  0.5356150000000  0.4187690000000 1.0
C      1  0.5020500000000  0.5689720000000  0.3941340000000 1.0
C      1  0.4874860000000  0.5620120000000  0.5006290000000 1.0
C      1  0.5531730000000  0.6045070000000  0.5121260000000 1.0
C      1  0.5665180000000  0.4579990000000  0.4879730000000 1.0
C      1  0.5897240000000  0.4410480000000  0.4875360000000 1.0
C      1  0.6092270000000  0.5133110000000  0.4255810000000 1.0
C      1  0.4398330000000  0.5412950000000  0.5907300000000 1.0
C      1  0.4536830000000  0.4383380000000  0.4797180000000 1.0
C      1  0.4495090000000  0.5151680000000  0.5546330000000 1.0
C      1  0.4721930000000  0.4144040000000  0.4211910000000 1.0
C      1  0.4894410000000  0.4401110000000  0.3835460000000 1.0
C      1  0.4638690000000  0.4983440000000  0.6016040000000 1.0
C      1  0.4809770000000  0.4083350000000  0.5644450000000 1.0
C      1  0.5180530000000  0.4733020000000  0.4304100000000 1.0
C      1  0.3421910000000  0.5051790000000  0.4671500000000 1.0
C      1  0.5640970000000  0.5289080000000  0.4079840000000 1.0
C      1  0.5140070000000  0.4469880000000  0.4255010000000 1.0
C      1  0.4429420000000  0.5594540000000  0.5683060000000 1.0
C      1  0.5439700000000  0.4469900000000  0.4750920000000 1.0
C      1  0.5749910000000  0.5190690000000  0.5857950000000 1.0
C      1  0.5642070000000  0.5253240000000  0.4700830000000 1.0
C      1  0.5310520000000  0.4256850000000  0.4328520000000 1.0
C      1  0.5693050000000  0.5385240000000  0.6057200000000 1.0
C      1  0.4850600000000  0.5033000000000  0.3841600000000 1.0
C      1  0.4009630000000  0.5761760000000  0.4811890000000 1.0
C      1  0.3181520000000  0.4689790000000  0.5534900000000 1.0
C      1  0.3232250000000  0.5415260000000  0.5541760000000 1.0
C      1  0.5182340000000  0.5316810000000  0.4375810000000 1.0
C      1  0.3698120000000  0.5642670000000  0.5186600000000 1.0
C      1  0.5830380000000  0.4165070000000  0.5012730000000 1.0
C      1  0.4974790000000  0.4889520000000  0.4804200000000 1.0
C      1  0.5182170000000  0.5299570000000  0.4660720000000 1.0
C      1  0.4203020000000  0.5753760000000  0.5212420000000 1.0
C      1  0.4534450000000  0.4500940000000  0.5788510000000 1.0
C      1  0.4801600000000  0.4552350000000  0.6177820000000 1.0
C      1  0.5076090000000  0.5016800000000  0.5658780000000 1.0
C      1  0.4628510000000  0.4649640000000  0.4154800000000 1.0
C      1  0.3889570000000  0.4684460000000  0.4565540000000 1.0
C      1  0.4540200000000  0.5015110000000  0.4487540000000 1.0
C      1  0.3867720000000  0.4961850000000  0.4480420000000 1.0
C      1  0.5064280000000  0.5698980000000  0.5442260000000 1.0
C      1  0.5623960000000  0.5219620000000  0.5315220000000 1.0
C      1  0.5046730000000  0.4673680000000  0.6243670000000 1.0
C      1  0.5895480000000  0.4861570000000  0.5565090000000 1.0
C      1  0.4851220000000  0.6132970000000  0.4797690000000 1.0
C      1  0.5520070000000  0.3818510000000  0.4444030000000 1.0
C      1  0.4986360000000  0.3832040000000  0.5085580000000 1.0
C      1  0.5318530000000  0.4578610000000  0.5589190000000 1.0
C      1  0.6064350000000  0.5600900000000  0.5120350000000 1.0
C      1  0.5789700000000  0.4772780000000  0.4481640000000 1.0
END
