TITL C-627109-622-963 10395.5183386501 125000 -1213.41211396314 0 0 197 (C1) n - 1
REM
REM in /home/nfs/bkarasulu/CARBON/AIRSS/Generating-Clusters/LCBOP/Only-C1/SD-CG/FIRE-CG
REM
REM
REM
REM
REM
REM ./C.cell (11c1c37f851c82e70ff6c80c92926a4b)
REM AIRSS Version 0.9.1 bugfix July 2018 build 013d7b7c2542+ Fri, 06 Jul 2018 19:26:36 +0100
REM compiler GCC version 9.2.1 20190827 (Red Hat 9.2.1-1)
REM options -cpp -mtune=generic -march=x86-64 -g -O0 -fpre-include=/usr/include/finclude/math-vector-fortran.h
REM seed 2034832433 1975174346 2009507527 -2083713486 -1499325122 -671540163 1070899344 249365622 -1740545313 -1045357779 -2021240571 1509315825 -1362307820 -1085037137 1483085730 810545638 -1646159704 382297165 -266559850 1630616134 -1828641978 1193972736 -1179219733 -900479111 -1975642591 592612075 665741064 -874033137 1918949583 -1764842184 -1759143288 -2055546117 242285236
REM
CELL 1.54180   50.00000   50.00000   50.00000   90.00000   90.00000   90.00000
LATT -1
SFAC C  
C      1  0.6036170000000  0.4077000000000  0.6067460000000 1.0
C      1  0.5033610000000  0.4232320000000  0.4124430000000 1.0
C      1  0.5215610000000  0.4334160000000  0.5187800000000 1.0
C      1  0.5434220000000  0.4285430000000  0.5747920000000 1.0
C      1  0.5219380000000  0.4657610000000  0.3820400000000 1.0
C      1  0.6072890000000  0.4437090000000  0.4333030000000 1.0
C      1  0.3943990000000  0.4242610000000  0.5021830000000 1.0
C      1  0.4349600000000  0.4563810000000  0.3950040000000 1.0
C      1  0.5236070000000  0.4715890000000  0.4816810000000 1.0
C      1  0.4537010000000  0.4183390000000  0.5409490000000 1.0
C      1  0.3982290000000  0.4825570000000  0.4250920000000 1.0
C      1  0.6000830000000  0.4191150000000  0.4460500000000 1.0
C      1  0.5099310000000  0.5670730000000  0.4509760000000 1.0
C      1  0.4755410000000  0.5469710000000  0.3865430000000 1.0
C      1  0.5949810000000  0.4663060000000  0.4207560000000 1.0
C      1  0.4487070000000  0.5375160000000  0.5208470000000 1.0
C      1  0.5018120000000  0.5083610000000  0.3689220000000 1.0
C      1  0.4818500000000  0.3924890000000  0.5688950000000 1.0
C      1  0.4082470000000  0.5235580000000  0.4977430000000 1.0
C      1  0.4951640000000  0.5395250000000  0.4511700000000 1.0
C      1  0.5539970000000  0.5279120000000  0.5870720000000 1.0
C      1  0.4491300000000  0.5391640000000  0.4716990000000 1.0
C      1  0.3783870000000  0.4780250000000  0.4753210000000 1.0
C      1  0.4926750000000  0.4230650000000  0.4759700000000 1.0
C      1  0.4050630000000  0.5096470000000  0.4190710000000 1.0
C      1  0.5021890000000  0.5585300000000  0.3909830000000 1.0
C      1  0.4337720000000  0.4430900000000  0.4820110000000 1.0
C      1  0.4902290000000  0.4211200000000  0.5063920000000 1.0
C      1  0.4698050000000  0.5729760000000  0.5871080000000 1.0
C      1  0.4297320000000  0.4261110000000  0.5533820000000 1.0
C      1  0.5142670000000  0.5415710000000  0.5307910000000 1.0
C      1  0.6197640000000  0.3883210000000  0.6132830000000 1.0
C      1  0.6090580000000  0.5183030000000  0.4380710000000 1.0
C      1  0.5357540000000  0.4777790000000  0.5798640000000 1.0
C      1  0.4689350000000  0.5263340000000  0.6078810000000 1.0
C      1  0.4270570000000  0.5816360000000  0.4641090000000 1.0
C      1  0.4270920000000  0.5439150000000  0.5896700000000 1.0
C      1  0.3885650000000  0.5624500000000  0.4440030000000 1.0
C      1  0.5338500000000  0.5209900000000  0.4797540000000 1.0
C      1  0.4938470000000  0.4699040000000  0.4851740000000 1.0
C      1  0.5457100000000  0.5303750000000  0.4097680000000 1.0
C      1  0.5784090000000  0.5322830000000  0.5735670000000 1.0
C      1  0.5863830000000  0.4116850000000  0.5249770000000 1.0
C      1  0.5409590000000  0.4952400000000  0.4877460000000 1.0
C      1  0.3899860000000  0.4309210000000  0.5277600000000 1.0
C      1  0.4850340000000  0.5871810000000  0.5665420000000 1.0
C      1  0.4494040000000  0.5673270000000  0.4733530000000 1.0
C      1  0.5384720000000  0.5528040000000  0.5925450000000 1.0
C      1  0.4955640000000  0.5609180000000  0.5223570000000 1.0
C      1  0.5118650000000  0.4050100000000  0.4629900000000 1.0
C      1  0.5542610000000  0.3909660000000  0.4865170000000 1.0
C      1  0.4436250000000  0.6289170000000  0.5143160000000 1.0
C      1  0.5812220000000  0.4926980000000  0.4647090000000 1.0
C      1  0.4423980000000  0.4778180000000  0.3776540000000 1.0
C      1  0.4404730000000  0.5687760000000  0.5812760000000 1.0
C      1  0.4723270000000  0.4815060000000  0.5457580000000 1.0
C      1  0.4878990000000  0.5045750000000  0.6122040000000 1.0
C      1  0.5309880000000  0.5866620000000  0.4493710000000 1.0
C      1  0.5463120000000  0.5094020000000  0.3895940000000 1.0
C      1  0.5150110000000  0.4424030000000  0.3937980000000 1.0
C      1  0.5492220000000  0.5876460000000  0.4974870000000 1.0
C      1  0.4812120000000  0.5760480000000  0.5408490000000 1.0
C      1  0.5325830000000  0.6046680000000  0.5164950000000 1.0
C      1  0.4428780000000  0.3792660000000  0.4813910000000 1.0
C      1  0.4668000000000  0.5268630000000  0.5377040000000 1.0
C      1  0.4822280000000  0.6058130000000  0.4696670000000 1.0
C      1  0.5639060000000  0.4056120000000  0.5093680000000 1.0
C      1  0.3842040000000  0.4836000000000  0.5013370000000 1.0
C      1  0.4860300000000  0.4794870000000  0.4277920000000 1.0
C      1  0.6019890000000  0.5174440000000  0.5129740000000 1.0
C      1  0.5649810000000  0.4875110000000  0.6488200000000 1.0
C      1  0.5499300000000  0.4150710000000  0.4292180000000 1.0
C      1  0.4217980000000  0.5920410000000  0.5350940000000 1.0
C      1  0.5649010000000  0.5553170000000  0.5318290000000 1.0
C      1  0.4042180000000  0.4383410000000  0.5510100000000 1.0
C      1  0.6066440000000  0.4936870000000  0.4213250000000 1.0
C      1  0.5981900000000  0.6023550000000  0.4784560000000 1.0
C      1  0.5492520000000  0.5776000000000  0.5835040000000 1.0
C      1  0.3824580000000  0.4778560000000  0.4485500000000 1.0
C      1  0.4862190000000  0.4548610000000  0.6094370000000 1.0
C      1  0.4731350000000  0.5809830000000  0.4792020000000 1.0
C      1  0.3991340000000  0.5376650000000  0.5871480000000 1.0
C      1  0.4673880000000  0.6387620000000  0.5216750000000 1.0
C      1  0.3802240000000  0.5571510000000  0.5907330000000 1.0
C      1  0.6190260000000  0.4053890000000  0.4612610000000 1.0
C      1  0.5248690000000  0.4938660000000  0.3778090000000 1.0
C      1  0.4695090000000  0.5383950000000  0.5618210000000 1.0
C      1  0.5367760000000  0.5040630000000  0.5910560000000 1.0
C      1  0.5663700000000  0.4605200000000  0.4168140000000 1.0
C      1  0.3740310000000  0.5512890000000  0.4655450000000 1.0
C      1  0.4199170000000  0.4642760000000  0.4185800000000 1.0
C      1  0.3951550000000  0.4598370000000  0.5670450000000 1.0
C      1  0.3909700000000  0.5109160000000  0.5815340000000 1.0
C      1  0.4441840000000  0.4868790000000  0.5533730000000 1.0
C      1  0.6020470000000  0.5118030000000  0.4653910000000 1.0
C      1  0.5812220000000  0.5888020000000  0.4598160000000 1.0
C      1  0.5932380000000  0.5697850000000  0.4414800000000 1.0
C      1  0.5527580000000  0.5055070000000  0.6631890000000 1.0
C      1  0.4427190000000  0.4788650000000  0.5081070000000 1.0
C      1  0.5032870000000  0.6201320000000  0.4786580000000 1.0
C      1  0.4993620000000  0.4597120000000  0.4423600000000 1.0
C      1  0.5316430000000  0.6031990000000  0.5465490000000 1.0
C      1  0.5123870000000  0.4495850000000  0.5432000000000 1.0
C      1  0.3883690000000  0.5403500000000  0.4872760000000 1.0
C      1  0.4525590000000  0.5140090000000  0.4323620000000 1.0
C      1  0.4593790000000  0.4865790000000  0.4314440000000 1.0
C      1  0.5863080000000  0.4282250000000  0.5990030000000 1.0
C      1  0.4845040000000  0.4566510000000  0.5405020000000 1.0
C      1  0.5385510000000  0.5509850000000  0.5396040000000 1.0
C      1  0.5743390000000  0.5461340000000  0.4844200000000 1.0
C      1  0.4281420000000  0.5255400000000  0.4223500000000 1.0
C      1  0.5628190000000  0.4978100000000  0.4429800000000 1.0
C      1  0.5119250000000  0.3792190000000  0.5097990000000 1.0
C      1  0.4685310000000  0.4375960000000  0.5227220000000 1.0
C      1  0.4386970000000  0.4908030000000  0.4821750000000 1.0
C      1  0.5120920000000  0.5448270000000  0.6015320000000 1.0
C      1  0.5539500000000  0.5361720000000  0.4655860000000 1.0
C      1  0.5646400000000  0.4570940000000  0.4977920000000 1.0
C      1  0.5548410000000  0.5958910000000  0.5620310000000 1.0
C      1  0.5836680000000  0.5469110000000  0.5512440000000 1.0
C      1  0.6048660000000  0.5464720000000  0.4327620000000 1.0
C      1  0.5210220000000  0.4118380000000  0.4347110000000 1.0
C      1  0.5678400000000  0.4833140000000  0.4872520000000 1.0
C      1  0.4486400000000  0.4511190000000  0.5057230000000 1.0
C      1  0.5862640000000  0.4204230000000  0.5505890000000 1.0
C      1  0.5269520000000  0.4665780000000  0.4503490000000 1.0
C      1  0.6506470000000  0.3798310000000  0.4945510000000 1.0
C      1  0.5072370000000  0.5269470000000  0.4751120000000 1.0
C      1  0.5211990000000  0.6035360000000  0.4014950000000 1.0
C      1  0.4175530000000  0.5991460000000  0.4847910000000 1.0
C      1  0.4902690000000  0.4298300000000  0.6008790000000 1.0
C      1  0.5978890000000  0.5293280000000  0.4875590000000 1.0
C      1  0.4543920000000  0.5015890000000  0.3732460000000 1.0
C      1  0.5491930000000  0.4749890000000  0.4344090000000 1.0
C      1  0.5111860000000  0.5131400000000  0.5324490000000 1.0
C      1  0.5303220000000  0.4530510000000  0.5660320000000 1.0
C      1  0.5826890000000  0.4504220000000  0.6155550000000 1.0
C      1  0.4748780000000  0.4217350000000  0.4088650000000 1.0
C      1  0.6018790000000  0.6088480000000  0.5043110000000 1.0
C      1  0.5077530000000  0.6043050000000  0.5631310000000 1.0
C      1  0.3201360000000  0.5497450000000  0.4649420000000 1.0
C      1  0.4257650000000  0.6071630000000  0.5112520000000 1.0
C      1  0.4528090000000  0.4340110000000  0.3987420000000 1.0
C      1  0.4306810000000  0.5543840000000  0.4189530000000 1.0
C      1  0.4841140000000  0.3906100000000  0.5146940000000 1.0
C      1  0.5755580000000  0.4692670000000  0.6327510000000 1.0
C      1  0.5572230000000  0.4348570000000  0.4097740000000 1.0
C      1  0.5046780000000  0.5274830000000  0.4260590000000 1.0
C      1  0.4523450000000  0.5589880000000  0.3998610000000 1.0
C      1  0.6353380000000  0.3924440000000  0.4776400000000 1.0
C      1  0.5720690000000  0.4261660000000  0.5744780000000 1.0
C      1  0.5351650000000  0.4987640000000  0.5354100000000 1.0
C      1  0.4320780000000  0.5187690000000  0.4822990000000 1.0
C      1  0.4394550000000  0.4685020000000  0.4389620000000 1.0
C      1  0.5310190000000  0.3827630000000  0.5606910000000 1.0
C      1  0.5283160000000  0.3858300000000  0.5329980000000 1.0
C      1  0.4835940000000  0.5521410000000  0.6023890000000 1.0
C      1  0.4713980000000  0.3954560000000  0.5428920000000 1.0
C      1  0.4153980000000  0.4217810000000  0.4835510000000 1.0
C      1  0.4341010000000  0.4669700000000  0.4658380000000 1.0
C      1  0.3895700000000  0.4846620000000  0.5757910000000 1.0
C      1  0.4235330000000  0.3964540000000  0.4748530000000 1.0
C      1  0.5266650000000  0.4051760000000  0.5780690000000 1.0
C      1  0.5303940000000  0.6033790000000  0.4266380000000 1.0
C      1  0.5016660000000  0.5008130000000  0.4202360000000 1.0
C      1  0.4991180000000  0.4080960000000  0.5853540000000 1.0
C      1  0.5618580000000  0.4960170000000  0.5365770000000 1.0
C      1  0.4266580000000  0.4893540000000  0.5297200000000 1.0
C      1  0.5195940000000  0.5432760000000  0.4080690000000 1.0
C      1  0.5526480000000  0.5898100000000  0.4679530000000 1.0
C      1  0.4439750000000  0.5213370000000  0.5952480000000 1.0
C      1  0.5560080000000  0.5254340000000  0.4374510000000 1.0
C      1  0.5089380000000  0.5852760000000  0.3861170000000 1.0
C      1  0.5735520000000  0.4085540000000  0.4436620000000 1.0
C      1  0.5253490000000  0.3869910000000  0.4830190000000 1.0
C      1  0.3461730000000  0.5508450000000  0.4652140000000 1.0
C      1  0.5132920000000  0.5147570000000  0.6041770000000 1.0
C      1  0.4404960000000  0.4982620000000  0.5789730000000 1.0
C      1  0.5659840000000  0.5644980000000  0.5052000000000 1.0
C      1  0.5869960000000  0.5023670000000  0.5295610000000 1.0
C      1  0.4906390000000  0.5676630000000  0.4962630000000 1.0
C      1  0.5127590000000  0.6228130000000  0.5051690000000 1.0
C      1  0.4824350000000  0.4791380000000  0.6233850000000 1.0
C      1  0.4868730000000  0.4489320000000  0.4659470000000 1.0
C      1  0.4731690000000  0.4779660000000  0.6492060000000 1.0
C      1  0.5366500000000  0.4499250000000  0.4988670000000 1.0
C      1  0.5398160000000  0.4105720000000  0.5243500000000 1.0
C      1  0.4027090000000  0.5006990000000  0.5155340000000 1.0
C      1  0.4761030000000  0.5199200000000  0.3746680000000 1.0
C      1  0.4942080000000  0.6369610000000  0.5213000000000 1.0
C      1  0.4156750000000  0.5700680000000  0.4396870000000 1.0
C      1  0.5797740000000  0.6042230000000  0.5517340000000 1.0
C      1  0.4644020000000  0.3773040000000  0.4969130000000 1.0
C      1  0.4282780000000  0.5833280000000  0.5597790000000 1.0
C      1  0.4844260000000  0.5048930000000  0.5351290000000 1.0
C      1  0.4662490000000  0.5305590000000  0.4510960000000 1.0
C      1  0.5952880000000  0.6091650000000  0.5303460000000 1.0
END
