TITL C-627110-360-2093 25103.3569754094 125000 -621.797146860513 0 0 103 (C1) n - 1
REM
REM in /home/nfs/bkarasulu/CARBON/AIRSS/Generating-Clusters/LCBOP/Only-C1/SD-CG/FIRE-CG
REM
REM
REM
REM
REM
REM ./C.cell (11c1c37f851c82e70ff6c80c92926a4b)
REM AIRSS Version 0.9.1 bugfix July 2018 build 013d7b7c2542+ Fri, 06 Jul 2018 19:26:36 +0100
REM compiler GCC version 9.2.1 20190827 (Red Hat 9.2.1-1)
REM options -cpp -mtune=generic -march=x86-64 -g -O0 -fpre-include=/usr/include/finclude/math-vector-fortran.h
REM seed -236704917 892166464 1719473185 -879822533 -794575417 -1724219539 2110561002 -1505661943 624544126 -912615666 1297686961 1598206465 -639674801 -229145491 -1190849965 -416603797 -922651417 2126295168 2031754971 1543871070 1156267449 -1704508422 -1480192566 1330842694 -245871637 -157398048 1363249790 1261247121 -430979929 -457966930 2071768658 1993261453 1622712838
REM
CELL 1.54180   50.00000   50.00000   50.00000   90.00000   90.00000   90.00000
LATT -1
SFAC C  
C      1  0.5258760000000  0.4666050000000  0.5550420000000 1.0
C      1  0.5454820000000  0.5435330000000  0.4796640000000 1.0
C      1  0.4679950000000  0.4733650000000  0.4098280000000 1.0
C      1  0.4809420000000  0.5696400000000  0.5640280000000 1.0
C      1  0.5675620000000  0.4799320000000  0.4470670000000 1.0
C      1  0.5284830000000  0.4333220000000  0.4299060000000 1.0
C      1  0.5418170000000  0.3750800000000  0.3522180000000 1.0
C      1  0.4787670000000  0.5243730000000  0.5084820000000 1.0
C      1  0.4278480000000  0.5515830000000  0.5328510000000 1.0
C      1  0.5373080000000  0.5223960000000  0.6110310000000 1.0
C      1  0.5676290000000  0.4502990000000  0.4070630000000 1.0
C      1  0.4392230000000  0.5134490000000  0.5680110000000 1.0
C      1  0.5247140000000  0.5629770000000  0.4749550000000 1.0
C      1  0.4395630000000  0.4610980000000  0.4463580000000 1.0
C      1  0.5896790000000  0.5264500000000  0.6057520000000 1.0
C      1  0.5106140000000  0.5185460000000  0.6045720000000 1.0
C      1  0.5636770000000  0.5249430000000  0.6106830000000 1.0
C      1  0.4455690000000  0.4509070000000  0.4722290000000 1.0
C      1  0.4558260000000  0.5078480000000  0.5910560000000 1.0
C      1  0.5047570000000  0.4162620000000  0.4958790000000 1.0
C      1  0.5370630000000  0.4366070000000  0.4570630000000 1.0
C      1  0.4888910000000  0.4734320000000  0.5228720000000 1.0
C      1  0.4211340000000  0.4978480000000  0.4851610000000 1.0
C      1  0.4635890000000  0.5739700000000  0.4052420000000 1.0
C      1  0.4960050000000  0.4666300000000  0.4076710000000 1.0
C      1  0.5545900000000  0.4598680000000  0.4626360000000 1.0
C      1  0.4347210000000  0.4894930000000  0.5525260000000 1.0
C      1  0.4254540000000  0.5083730000000  0.4600860000000 1.0
C      1  0.4369130000000  0.4327630000000  0.5165690000000 1.0
C      1  0.4887030000000  0.5297260000000  0.6189770000000 1.0
C      1  0.4842250000000  0.5615470000000  0.4214530000000 1.0
C      1  0.5750820000000  0.4718450000000  0.4212990000000 1.0
C      1  0.4434410000000  0.4649350000000  0.5642030000000 1.0
C      1  0.4718900000000  0.5433800000000  0.4405780000000 1.0
C      1  0.5295930000000  0.4096850000000  0.5350870000000 1.0
C      1  0.5036290000000  0.4140620000000  0.5249250000000 1.0
C      1  0.5052130000000  0.4887060000000  0.4822900000000 1.0
C      1  0.4626120000000  0.5252050000000  0.6124420000000 1.0
C      1  0.6108230000000  0.5390050000000  0.4488250000000 1.0
C      1  0.4226230000000  0.4779830000000  0.5042470000000 1.0
C      1  0.4921960000000  0.4650650000000  0.4748090000000 1.0
C      1  0.4667830000000  0.5894720000000  0.3832640000000 1.0
C      1  0.5461150000000  0.5139370000000  0.4767410000000 1.0
C      1  0.4508930000000  0.5109770000000  0.5103230000000 1.0
C      1  0.5461990000000  0.4414040000000  0.5040230000000 1.0
C      1  0.5057740000000  0.5140510000000  0.5554640000000 1.0
C      1  0.5869560000000  0.5976270000000  0.4850440000000 1.0
C      1  0.4308990000000  0.4520430000000  0.4967880000000 1.0
C      1  0.5097810000000  0.5712930000000  0.4264900000000 1.0
C      1  0.5678700000000  0.5061870000000  0.4579690000000 1.0
C      1  0.5366810000000  0.4329010000000  0.5861330000000 1.0
C      1  0.4268870000000  0.5369190000000  0.4594290000000 1.0
C      1  0.4875260000000  0.5269040000000  0.5383430000000 1.0
C      1  0.4812030000000  0.4178570000000  0.4807270000000 1.0
C      1  0.4708150000000  0.5460850000000  0.5525590000000 1.0
C      1  0.5128790000000  0.4744780000000  0.5330910000000 1.0
C      1  0.5248080000000  0.5732350000000  0.4484940000000 1.0
C      1  0.4708800000000  0.6076090000000  0.5967340000000 1.0
C      1  0.4698830000000  0.4626210000000  0.5747070000000 1.0
C      1  0.4513070000000  0.4953890000000  0.4173720000000 1.0
C      1  0.4430670000000  0.5482040000000  0.4396530000000 1.0
C      1  0.4767770000000  0.4299740000000  0.4259950000000 1.0
C      1  0.5029910000000  0.4410810000000  0.4204600000000 1.0
C      1  0.5487590000000  0.4295300000000  0.4098310000000 1.0
C      1  0.5691790000000  0.4308730000000  0.5498250000000 1.0
C      1  0.5212970000000  0.6010260000000  0.5656050000000 1.0
C      1  0.5067060000000  0.5797130000000  0.5578290000000 1.0
C      1  0.4559610000000  0.4499220000000  0.4249110000000 1.0
C      1  0.4349810000000  0.4899710000000  0.4407220000000 1.0
C      1  0.6141070000000  0.5648210000000  0.4582540000000 1.0
C      1  0.4662110000000  0.5850300000000  0.5827250000000 1.0
C      1  0.4370320000000  0.4919640000000  0.5250390000000 1.0
C      1  0.4565250000000  0.5775210000000  0.5028110000000 1.0
C      1  0.5489420000000  0.4672480000000  0.4908680000000 1.0
C      1  0.5458230000000  0.3899060000000  0.3732860000000 1.0
C      1  0.4731300000000  0.4444330000000  0.4754580000000 1.0
C      1  0.4430590000000  0.5386040000000  0.5535050000000 1.0
C      1  0.4777410000000  0.4885170000000  0.5852740000000 1.0
C      1  0.4835780000000  0.5948310000000  0.4906440000000 1.0
C      1  0.4213350000000  0.5518630000000  0.4831100000000 1.0
C      1  0.4895240000000  0.5119180000000  0.4827040000000 1.0
C      1  0.4925310000000  0.6238090000000  0.5972030000000 1.0
C      1  0.4387520000000  0.5659150000000  0.4176120000000 1.0
C      1  0.5852640000000  0.5285630000000  0.4564550000000 1.0
C      1  0.5617640000000  0.4296050000000  0.5760140000000 1.0
C      1  0.5019840000000  0.5707390000000  0.4902540000000 1.0
C      1  0.5022750000000  0.5033810000000  0.5815970000000 1.0
C      1  0.4823580000000  0.5527010000000  0.5010320000000 1.0
C      1  0.5513390000000  0.4271620000000  0.5282470000000 1.0
C      1  0.5329690000000  0.4914170000000  0.4883210000000 1.0
C      1  0.6147400000000  0.5273610000000  0.5986240000000 1.0
C      1  0.5486400000000  0.4073590000000  0.3930240000000 1.0
C      1  0.4835300000000  0.5252180000000  0.4582930000000 1.0
C      1  0.4826160000000  0.4242760000000  0.5426800000000 1.0
C      1  0.4882150000000  0.4412240000000  0.5665900000000 1.0
C      1  0.4328130000000  0.5629820000000  0.5067390000000 1.0
C      1  0.5154240000000  0.6208360000000  0.5830550000000 1.0
C      1  0.5724770000000  0.5513110000000  0.4717520000000 1.0
C      1  0.5907440000000  0.5737100000000  0.4729270000000 1.0
C      1  0.5292700000000  0.4263160000000  0.4840240000000 1.0
C      1  0.5160610000000  0.4465150000000  0.5725350000000 1.0
C      1  0.4676530000000  0.3957510000000  0.4723480000000 1.0
C      1  0.4559960000000  0.4231800000000  0.5328360000000 1.0
END
