TITL C-627111-6168-481 0.0142717213765783 125000 -1208.31303097781 0 0 198 (C1) n - 1
REM
REM in /home/nfs/bkarasulu/CARBON/AIRSS/Generating-Clusters/LCBOP/Only-C1/SD-CG/FIRE-CG
REM
REM
REM
REM
REM
REM ./C.cell (11c1c37f851c82e70ff6c80c92926a4b)
REM AIRSS Version 0.9.1 bugfix July 2018 build 013d7b7c2542+ Fri, 06 Jul 2018 19:26:36 +0100
REM compiler GCC version 9.2.1 20190827 (Red Hat 9.2.1-1)
REM options -cpp -mtune=generic -march=x86-64 -g -O0 -fpre-include=/usr/include/finclude/math-vector-fortran.h
REM seed 1607441337 -1851654587 251024644 -1996934434 1478195839 -710474483 1689500996 257566308 -890753578 -1212434981 1562950330 294995662 915132266 638572156 674130687 -602877502 1701467482 1766645327 905547892 -403993166 723020925 1127883122 438160382 -2046852789 1637528567 -13146800 1329287523 -1061575388 -1042010627 1140711908 791824989 1798107744 -939510129
REM
CELL 1.54180   50.00000   50.00000   50.00000   90.00000   90.00000   90.00000
LATT -1
SFAC C  
C      1  0.5561240000000  0.4915350000000  0.4208540000000 1.0
C      1  0.4149660000000  0.5702920000000  0.4376990000000 1.0
C      1  0.4807310000000  0.4565170000000  0.6120660000000 1.0
C      1  0.4558030000000  0.4444380000000  0.5964900000000 1.0
C      1  0.5697240000000  0.5136080000000  0.5129020000000 1.0
C      1  0.4617570000000  0.5536740000000  0.5552690000000 1.0
C      1  0.5334590000000  0.4639380000000  0.3908200000000 1.0
C      1  0.4741530000000  0.5465910000000  0.5060540000000 1.0
C      1  0.5911690000000  0.5746570000000  0.4228840000000 1.0
C      1  0.3935530000000  0.5332200000000  0.5067720000000 1.0
C      1  0.5801350000000  0.5071860000000  0.4195480000000 1.0
C      1  0.5356450000000  0.5438670000000  0.4024270000000 1.0
C      1  0.4180390000000  0.4158940000000  0.5656120000000 1.0
C      1  0.4612660000000  0.5529580000000  0.4114700000000 1.0
C      1  0.5080170000000  0.3773540000000  0.4531880000000 1.0
C      1  0.3701160000000  0.5327560000000  0.5719170000000 1.0
C      1  0.5998990000000  0.5513740000000  0.4368850000000 1.0
C      1  0.4395490000000  0.5777080000000  0.4498820000000 1.0
C      1  0.4368730000000  0.3592200000000  0.4553400000000 1.0
C      1  0.4861790000000  0.5308870000000  0.4543480000000 1.0
C      1  0.5224140000000  0.4920230000000  0.3837930000000 1.0
C      1  0.5525860000000  0.5407880000000  0.4761720000000 1.0
C      1  0.5208460000000  0.4948270000000  0.6026540000000 1.0
C      1  0.5315030000000  0.4455550000000  0.4624600000000 1.0
C      1  0.4607000000000  0.4357000000000  0.5466430000000 1.0
C      1  0.4775150000000  0.5108240000000  0.3901090000000 1.0
C      1  0.6169740000000  0.5371240000000  0.4864620000000 1.0
C      1  0.4984140000000  0.5565210000000  0.6121610000000 1.0
C      1  0.4418860000000  0.4275410000000  0.5281890000000 1.0
C      1  0.5112100000000  0.4679220000000  0.6122080000000 1.0
C      1  0.5308440000000  0.5940180000000  0.4610680000000 1.0
C      1  0.4115890000000  0.5151230000000  0.5181500000000 1.0
C      1  0.4370650000000  0.5929270000000  0.5624790000000 1.0
C      1  0.4099680000000  0.4883450000000  0.5071300000000 1.0
C      1  0.4624720000000  0.3748590000000  0.4952290000000 1.0
C      1  0.3909450000000  0.4672670000000  0.5032560000000 1.0
C      1  0.4437200000000  0.4796900000000  0.4470430000000 1.0
C      1  0.5017040000000  0.5123420000000  0.5898190000000 1.0
C      1  0.6014910000000  0.5507540000000  0.5073130000000 1.0
C      1  0.4149830000000  0.5452460000000  0.4237850000000 1.0
C      1  0.5541180000000  0.4419160000000  0.5936110000000 1.0
C      1  0.4347760000000  0.5458910000000  0.4036430000000 1.0
C      1  0.5345250000000  0.5013270000000  0.4352370000000 1.0
C      1  0.5002630000000  0.3943420000000  0.4737480000000 1.0
C      1  0.5947390000000  0.5770040000000  0.4989380000000 1.0
C      1  0.5043410000000  0.4411020000000  0.4552800000000 1.0
C      1  0.4496180000000  0.6237010000000  0.5060430000000 1.0
C      1  0.5103910000000  0.4464500000000  0.3987480000000 1.0
C      1  0.4557260000000  0.5267590000000  0.4625490000000 1.0
C      1  0.5374970000000  0.5513770000000  0.5480960000000 1.0
C      1  0.5931790000000  0.4663800000000  0.5618400000000 1.0
C      1  0.5168750000000  0.4206750000000  0.6174490000000 1.0
C      1  0.4285550000000  0.4524280000000  0.4411060000000 1.0
C      1  0.6264660000000  0.4885910000000  0.5033430000000 1.0
C      1  0.5201030000000  0.4011740000000  0.4129570000000 1.0
C      1  0.5261150000000  0.4959860000000  0.4614920000000 1.0
C      1  0.4325550000000  0.4264520000000  0.5901650000000 1.0
C      1  0.6079390000000  0.4688190000000  0.4548660000000 1.0
C      1  0.5801820000000  0.5926000000000  0.5824100000000 1.0
C      1  0.5145550000000  0.5132450000000  0.5221250000000 1.0
C      1  0.5588340000000  0.5227240000000  0.5791270000000 1.0
C      1  0.4607560000000  0.5818390000000  0.5515820000000 1.0
C      1  0.5589080000000  0.5877500000000  0.4551120000000 1.0
C      1  0.4120660000000  0.5220030000000  0.4406830000000 1.0
C      1  0.4904400000000  0.3827240000000  0.4979600000000 1.0
C      1  0.5840440000000  0.5775070000000  0.5579250000000 1.0
C      1  0.5043720000000  0.4116830000000  0.5944690000000 1.0
C      1  0.4387870000000  0.4792470000000  0.5643360000000 1.0
C      1  0.4889430000000  0.4601070000000  0.4388140000000 1.0
C      1  0.6042300000000  0.4949750000000  0.5622990000000 1.0
C      1  0.3253970000000  0.5303580000000  0.5444480000000 1.0
C      1  0.4830710000000  0.4866900000000  0.4766380000000 1.0
C      1  0.5776630000000  0.4988580000000  0.4704270000000 1.0
C      1  0.4982550000000  0.5258640000000  0.5015520000000 1.0
C      1  0.4877820000000  0.6086460000000  0.4570670000000 1.0
C      1  0.4470960000000  0.3686880000000  0.5181870000000 1.0
C      1  0.4519800000000  0.5473640000000  0.4840390000000 1.0
C      1  0.4496470000000  0.3795160000000  0.4686000000000 1.0
C      1  0.4221680000000  0.3877580000000  0.5602630000000 1.0
C      1  0.3955120000000  0.5320980000000  0.5828860000000 1.0
C      1  0.5456790000000  0.5663310000000  0.5247560000000 1.0
C      1  0.5274720000000  0.4083750000000  0.5215960000000 1.0
C      1  0.5000230000000  0.5115210000000  0.4734330000000 1.0
C      1  0.5531750000000  0.5946970000000  0.5897800000000 1.0
C      1  0.4410190000000  0.5047100000000  0.6314920000000 1.0
C      1  0.5753280000000  0.4483740000000  0.4219130000000 1.0
C      1  0.5164510000000  0.5922560000000  0.4144180000000 1.0
C      1  0.5949060000000  0.4578100000000  0.4790150000000 1.0
C      1  0.5635100000000  0.5873170000000  0.5371960000000 1.0
C      1  0.5221480000000  0.4725030000000  0.5007240000000 1.0
C      1  0.5470820000000  0.4275910000000  0.5138820000000 1.0
C      1  0.4790230000000  0.5894590000000  0.5318270000000 1.0
C      1  0.4789370000000  0.4624470000000  0.5167720000000 1.0
C      1  0.5704870000000  0.4616320000000  0.5805850000000 1.0
C      1  0.5607850000000  0.5349400000000  0.5534680000000 1.0
C      1  0.4147350000000  0.4439780000000  0.3903630000000 1.0
C      1  0.4371720000000  0.5427100000000  0.5986210000000 1.0
C      1  0.5148560000000  0.4239460000000  0.5705190000000 1.0
C      1  0.5864220000000  0.4478910000000  0.5388830000000 1.0
C      1  0.4808550000000  0.5330540000000  0.4066940000000 1.0
C      1  0.4945070000000  0.4889980000000  0.3934230000000 1.0
C      1  0.5382340000000  0.4713670000000  0.4759770000000 1.0
C      1  0.4144740000000  0.4299090000000  0.5386770000000 1.0
C      1  0.4875430000000  0.4687510000000  0.5685410000000 1.0
C      1  0.5684440000000  0.4723450000000  0.4775510000000 1.0
C      1  0.4888360000000  0.4966340000000  0.5706700000000 1.0
C      1  0.5503660000000  0.4789710000000  0.5688010000000 1.0
C      1  0.4556950000000  0.4779190000000  0.5197250000000 1.0
C      1  0.5223700000000  0.5579050000000  0.5715170000000 1.0
C      1  0.5057900000000  0.5401010000000  0.5894020000000 1.0
C      1  0.4307660000000  0.5169740000000  0.6096980000000 1.0
C      1  0.4835880000000  0.5780370000000  0.5059900000000 1.0
C      1  0.3831600000000  0.5326890000000  0.4819660000000 1.0
C      1  0.4867250000000  0.5614360000000  0.4538530000000 1.0
C      1  0.3897650000000  0.5228200000000  0.4579130000000 1.0
C      1  0.4129110000000  0.5551410000000  0.5873260000000 1.0
C      1  0.5564720000000  0.6116630000000  0.4971190000000 1.0
C      1  0.5292500000000  0.5299340000000  0.4295850000000 1.0
C      1  0.4336440000000  0.3726180000000  0.5410840000000 1.0
C      1  0.5122410000000  0.5728380000000  0.4588450000000 1.0
C      1  0.4139740000000  0.4535460000000  0.4153800000000 1.0
C      1  0.5443200000000  0.4734080000000  0.5416700000000 1.0
C      1  0.5577900000000  0.4496860000000  0.5308540000000 1.0
C      1  0.4361330000000  0.4793590000000  0.4996780000000 1.0
C      1  0.5635060000000  0.4205170000000  0.4897710000000 1.0
C      1  0.4990800000000  0.6060890000000  0.4313930000000 1.0
C      1  0.5073390000000  0.3902880000000  0.5194260000000 1.0
C      1  0.5897220000000  0.4151620000000  0.5010250000000 1.0
C      1  0.4172120000000  0.4313010000000  0.4899000000000 1.0
C      1  0.5787140000000  0.5329080000000  0.5299890000000 1.0
C      1  0.4697100000000  0.4187860000000  0.4103310000000 1.0
C      1  0.4319440000000  0.4278990000000  0.3774310000000 1.0
C      1  0.3925100000000  0.4668360000000  0.5746680000000 1.0
C      1  0.5434060000000  0.4235310000000  0.5737100000000 1.0
C      1  0.4571950000000  0.5390560000000  0.5314290000000 1.0
C      1  0.6015460000000  0.4890810000000  0.4134490000000 1.0
C      1  0.3471730000000  0.5317460000000  0.5587110000000 1.0
C      1  0.5639200000000  0.5820170000000  0.4271630000000 1.0
C      1  0.5556800000000  0.4656940000000  0.4089960000000 1.0
C      1  0.6160760000000  0.5499980000000  0.4602430000000 1.0
C      1  0.5397430000000  0.5739870000000  0.4104700000000 1.0
C      1  0.6068810000000  0.5233510000000  0.5640730000000 1.0
C      1  0.4988870000000  0.5281590000000  0.4279870000000 1.0
C      1  0.4548720000000  0.4166710000000  0.3858870000000 1.0
C      1  0.4412990000000  0.5743930000000  0.4783460000000 1.0
C      1  0.4096970000000  0.5080090000000  0.5917730000000 1.0
C      1  0.5522450000000  0.6119560000000  0.5254630000000 1.0
C      1  0.5282210000000  0.4879720000000  0.5235730000000 1.0
C      1  0.4999370000000  0.4203540000000  0.4056970000000 1.0
C      1  0.4910900000000  0.4214790000000  0.4712470000000 1.0
C      1  0.4590560000000  0.5446370000000  0.5814280000000 1.0
C      1  0.6130610000000  0.4647050000000  0.5007040000000 1.0
C      1  0.5270450000000  0.6243200000000  0.5324860000000 1.0
C      1  0.5504440000000  0.5627980000000  0.4956500000000 1.0
C      1  0.5283990000000  0.5820730000000  0.5882240000000 1.0
C      1  0.4466100000000  0.4938530000000  0.5415080000000 1.0
C      1  0.5015890000000  0.6316020000000  0.5256110000000 1.0
C      1  0.4855430000000  0.5969370000000  0.4826660000000 1.0
C      1  0.5121450000000  0.3782180000000  0.4268550000000 1.0
C      1  0.5315350000000  0.4456780000000  0.6136090000000 1.0
C      1  0.6059400000000  0.4977310000000  0.4627300000000 1.0
C      1  0.5696250000000  0.5859480000000  0.4851360000000 1.0
C      1  0.3880210000000  0.4619090000000  0.4742650000000 1.0
C      1  0.4639410000000  0.5691150000000  0.4360850000000 1.0
C      1  0.5999490000000  0.4636350000000  0.4279770000000 1.0
C      1  0.5636540000000  0.4249390000000  0.4347770000000 1.0
C      1  0.5654080000000  0.5178820000000  0.4861380000000 1.0
C      1  0.4102020000000  0.4452130000000  0.4648960000000 1.0
C      1  0.4632030000000  0.4226630000000  0.4789230000000 1.0
C      1  0.5528010000000  0.5403150000000  0.4470410000000 1.0
C      1  0.5106060000000  0.5811070000000  0.6108090000000 1.0
C      1  0.4761340000000  0.6312750000000  0.5155290000000 1.0
C      1  0.4366840000000  0.5190200000000  0.5323500000000 1.0
C      1  0.5025770000000  0.4461010000000  0.5571750000000 1.0
C      1  0.6011300000000  0.5516220000000  0.5620850000000 1.0
C      1  0.4586970000000  0.4575300000000  0.5694340000000 1.0
C      1  0.5445840000000  0.4996170000000  0.5865560000000 1.0
C      1  0.4862770000000  0.4414800000000  0.5342400000000 1.0
C      1  0.4513820000000  0.4229200000000  0.4339630000000 1.0
C      1  0.4710320000000  0.4756380000000  0.4538440000000 1.0
C      1  0.4300440000000  0.6430910000000  0.5078370000000 1.0
C      1  0.4514510000000  0.4064430000000  0.4572120000000 1.0
C      1  0.5788730000000  0.5319840000000  0.4341490000000 1.0
C      1  0.4136550000000  0.4840110000000  0.5772590000000 1.0
C      1  0.4946670000000  0.4699550000000  0.4960840000000 1.0
C      1  0.5539570000000  0.4272020000000  0.4624700000000 1.0
C      1  0.4362210000000  0.5084220000000  0.4495340000000 1.0
C      1  0.4927400000000  0.4662960000000  0.4112450000000 1.0
C      1  0.4004690000000  0.4407740000000  0.5142910000000 1.0
C      1  0.5992560000000  0.4267960000000  0.5242400000000 1.0
C      1  0.4441560000000  0.4264810000000  0.4994760000000 1.0
C      1  0.4413320000000  0.5980720000000  0.4949070000000 1.0
C      1  0.5471330000000  0.4089860000000  0.4177090000000 1.0
C      1  0.6007440000000  0.6037620000000  0.5963430000000 1.0
C      1  0.5329090000000  0.5202940000000  0.3835110000000 1.0
C      1  0.4165980000000  0.5804400000000  0.5753860000000 1.0
C      1  0.5337830000000  0.6158680000000  0.4794920000000 1.0
C      1  0.6216140000000  0.5091240000000  0.4842220000000 1.0
END
