TITL C-627108-131-1240 -25.3177885595469 125000 -932.858384590079 0 0 152 (C1) n - 1
REM
REM in /home/nfs/bkarasulu/CARBON/AIRSS/Generating-Clusters/LCBOP/Only-C1/SD-CG/FIRE-CG
REM
REM
REM
REM
REM
REM ./C.cell (11c1c37f851c82e70ff6c80c92926a4b)
REM AIRSS Version 0.9.1 bugfix July 2018 build 013d7b7c2542+ Fri, 06 Jul 2018 19:26:36 +0100
REM compiler GCC version 9.2.1 20190827 (Red Hat 9.2.1-1)
REM options -cpp -mtune=generic -march=x86-64 -g -O0 -fpre-include=/usr/include/finclude/math-vector-fortran.h
REM seed -1619710861 1507660027 -1270399895 2035067293 1863302091 -1565990469 1579035749 1846221532 -466470251 -145486550 1157050695 -783265730 -164254638 273506268 1444342715 -187799709 -24402646 73696987 914298263 -789830921 -2822835 711693228 -1848384664 496563445 810233604 1979727583 1484058431 -1664208310 2099242521 -705035159 136999949 937505989 -1729607879
REM
CELL 1.54180   50.00000   50.00000   50.00000   90.00000   90.00000   90.00000
LATT -1
SFAC C  
C      1  0.4651310000000  0.5115990000000  0.3905880000000 1.0
C      1  0.4335150000000  0.5600390000000  0.4496700000000 1.0
C      1  0.4665510000000  0.3942970000000  0.5498200000000 1.0
C      1  0.5507910000000  0.4622480000000  0.5021150000000 1.0
C      1  0.4536860000000  0.3983650000000  0.4775570000000 1.0
C      1  0.5223890000000  0.4040590000000  0.4327920000000 1.0
C      1  0.5106180000000  0.5115360000000  0.3693690000000 1.0
C      1  0.6118580000000  0.5047230000000  0.4305480000000 1.0
C      1  0.4437830000000  0.4069540000000  0.4539390000000 1.0
C      1  0.4883650000000  0.5257920000000  0.4768410000000 1.0
C      1  0.5132120000000  0.5113550000000  0.5127790000000 1.0
C      1  0.5170610000000  0.5852970000000  0.4407050000000 1.0
C      1  0.5399950000000  0.5747790000000  0.5407820000000 1.0
C      1  0.5177490000000  0.4347270000000  0.5280770000000 1.0
C      1  0.6337600000000  0.5067530000000  0.4878190000000 1.0
C      1  0.4471400000000  0.4350590000000  0.4066390000000 1.0
C      1  0.4607890000000  0.5226240000000  0.4716310000000 1.0
C      1  0.5809740000000  0.5467840000000  0.4176760000000 1.0
C      1  0.4763660000000  0.5694760000000  0.5033540000000 1.0
C      1  0.5588850000000  0.5611960000000  0.4216520000000 1.0
C      1  0.5271650000000  0.4770470000000  0.4183300000000 1.0
C      1  0.3901050000000  0.5384610000000  0.5982100000000 1.0
C      1  0.5103770000000  0.5392460000000  0.4647770000000 1.0
C      1  0.5098920000000  0.4436410000000  0.5934410000000 1.0
C      1  0.4393820000000  0.5965830000000  0.5125480000000 1.0
C      1  0.5203210000000  0.4936000000000  0.6093480000000 1.0
C      1  0.6117460000000  0.4492850000000  0.5052390000000 1.0
C      1  0.5616970000000  0.4888850000000  0.5043230000000 1.0
C      1  0.4013100000000  0.5403240000000  0.5166690000000 1.0
C      1  0.5355420000000  0.5035130000000  0.3784750000000 1.0
C      1  0.4997820000000  0.4845180000000  0.4684920000000 1.0
C      1  0.4359490000000  0.5024320000000  0.5503880000000 1.0
C      1  0.4165450000000  0.4593930000000  0.5479840000000 1.0
C      1  0.4408410000000  0.4568330000000  0.4688110000000 1.0
C      1  0.4528830000000  0.4864150000000  0.3985370000000 1.0
C      1  0.5241930000000  0.5872600000000  0.5171230000000 1.0
C      1  0.4932500000000  0.5170510000000  0.3922510000000 1.0
C      1  0.4151530000000  0.5243620000000  0.4972090000000 1.0
C      1  0.5337000000000  0.5018660000000  0.4073510000000 1.0
C      1  0.4192820000000  0.5824530000000  0.4964650000000 1.0
C      1  0.5183160000000  0.5390080000000  0.4371500000000 1.0
C      1  0.6046550000000  0.4278600000000  0.4909580000000 1.0
C      1  0.4875000000000  0.4506800000000  0.4950150000000 1.0
C      1  0.3849880000000  0.5413130000000  0.6247290000000 1.0
C      1  0.4722290000000  0.5718730000000  0.5695180000000 1.0
C      1  0.5654290000000  0.5094290000000  0.5965430000000 1.0
C      1  0.4542080000000  0.4818130000000  0.5053810000000 1.0
C      1  0.6075430000000  0.5141120000000  0.4957870000000 1.0
C      1  0.5982530000000  0.4820680000000  0.4400940000000 1.0
C      1  0.5131980000000  0.4159800000000  0.5498960000000 1.0
C      1  0.4001650000000  0.5010310000000  0.4884070000000 1.0
C      1  0.4254240000000  0.5818900000000  0.5840250000000 1.0
C      1  0.4098590000000  0.5138670000000  0.5585210000000 1.0
C      1  0.3920120000000  0.5281740000000  0.5407190000000 1.0
C      1  0.5102200000000  0.5664070000000  0.6011220000000 1.0
C      1  0.5129020000000  0.5217360000000  0.4149710000000 1.0
C      1  0.3717260000000  0.5426180000000  0.5549370000000 1.0
C      1  0.4995680000000  0.4719720000000  0.4246010000000 1.0
C      1  0.4584780000000  0.5213680000000  0.5542430000000 1.0
C      1  0.6020860000000  0.5414870000000  0.4925930000000 1.0
C      1  0.4995100000000  0.5034280000000  0.4894780000000 1.0
C      1  0.4897860000000  0.5829040000000  0.4301820000000 1.0
C      1  0.5639380000000  0.5717210000000  0.4924100000000 1.0
C      1  0.4931470000000  0.5554520000000  0.5793140000000 1.0
C      1  0.5900900000000  0.4932230000000  0.5051480000000 1.0
C      1  0.4027120000000  0.5688660000000  0.5165430000000 1.0
C      1  0.3817840000000  0.5568390000000  0.5777410000000 1.0
C      1  0.5996830000000  0.4729090000000  0.5476060000000 1.0
C      1  0.5070210000000  0.5187400000000  0.6069070000000 1.0
C      1  0.5164160000000  0.4808770000000  0.5610410000000 1.0
C      1  0.4646340000000  0.3924580000000  0.5027980000000 1.0
C      1  0.5742610000000  0.4059330000000  0.5477570000000 1.0
C      1  0.5906580000000  0.5653860000000  0.4880120000000 1.0
C      1  0.4029030000000  0.4737970000000  0.4984360000000 1.0
C      1  0.5556590000000  0.4570220000000  0.4542710000000 1.0
C      1  0.5410080000000  0.5853720000000  0.5667410000000 1.0
C      1  0.5123150000000  0.4723990000000  0.5911910000000 1.0
C      1  0.5636590000000  0.3971260000000  0.4967630000000 1.0
C      1  0.5382650000000  0.4557540000000  0.4771800000000 1.0
C      1  0.5899250000000  0.4974830000000  0.5577620000000 1.0
C      1  0.5661010000000  0.3943830000000  0.5249070000000 1.0
C      1  0.5483030000000  0.4967420000000  0.6130830000000 1.0
C      1  0.5496620000000  0.5485610000000  0.5033090000000 1.0
C      1  0.5242260000000  0.4266180000000  0.5748840000000 1.0
C      1  0.5979850000000  0.5263500000000  0.4193910000000 1.0
C      1  0.4227010000000  0.5746070000000  0.4696090000000 1.0
C      1  0.5357040000000  0.3968150000000  0.4548800000000 1.0
C      1  0.5408840000000  0.5059190000000  0.5120290000000 1.0
C      1  0.5416890000000  0.4639170000000  0.5525380000000 1.0
C      1  0.5206380000000  0.5122150000000  0.5607760000000 1.0
C      1  0.4638680000000  0.3911140000000  0.4132820000000 1.0
C      1  0.4456200000000  0.4628450000000  0.4143020000000 1.0
C      1  0.4497590000000  0.3927320000000  0.5278320000000 1.0
C      1  0.4674670000000  0.4268000000000  0.3868650000000 1.0
C      1  0.4020300000000  0.4643940000000  0.5254080000000 1.0
C      1  0.5055110000000  0.5619040000000  0.5088180000000 1.0
C      1  0.5693210000000  0.5133750000000  0.5686610000000 1.0
C      1  0.5494770000000  0.4408520000000  0.5695700000000 1.0
C      1  0.4723900000000  0.5337380000000  0.5331800000000 1.0
C      1  0.4617320000000  0.5186920000000  0.4433360000000 1.0
C      1  0.5116120000000  0.5443150000000  0.6198810000000 1.0
C      1  0.5391180000000  0.3924990000000  0.4826250000000 1.0
C      1  0.4386140000000  0.4737350000000  0.5597240000000 1.0
C      1  0.5958410000000  0.4484330000000  0.5612360000000 1.0
C      1  0.4901280000000  0.4681400000000  0.5458480000000 1.0
C      1  0.4523120000000  0.5361530000000  0.3832140000000 1.0
C      1  0.5447140000000  0.4583190000000  0.4286470000000 1.0
C      1  0.5026120000000  0.5270750000000  0.5784810000000 1.0
C      1  0.4947880000000  0.4505920000000  0.5227420000000 1.0
C      1  0.4042780000000  0.5167420000000  0.5864550000000 1.0
C      1  0.5859740000000  0.4096620000000  0.4849130000000 1.0
C      1  0.6036240000000  0.4720440000000  0.5194180000000 1.0
C      1  0.5003130000000  0.5348770000000  0.5254040000000 1.0
C      1  0.4001480000000  0.5771470000000  0.5705200000000 1.0
C      1  0.3814700000000  0.5051500000000  0.4685180000000 1.0
C      1  0.5487120000000  0.5473590000000  0.5338000000000 1.0
C      1  0.4423510000000  0.4655050000000  0.4422120000000 1.0
C      1  0.5470040000000  0.5249210000000  0.5535510000000 1.0
C      1  0.5157600000000  0.3861250000000  0.4970150000000 1.0
C      1  0.4656370000000  0.4655530000000  0.5599050000000 1.0
C      1  0.4612560000000  0.4606020000000  0.4885560000000 1.0
C      1  0.5821860000000  0.4663030000000  0.4544340000000 1.0
C      1  0.4616050000000  0.5606180000000  0.3916730000000 1.0
C      1  0.5091650000000  0.4588240000000  0.4768410000000 1.0
C      1  0.5244820000000  0.5493250000000  0.4877270000000 1.0
C      1  0.5031650000000  0.4178170000000  0.4176070000000 1.0
C      1  0.4455790000000  0.4106920000000  0.4258810000000 1.0
C      1  0.4432160000000  0.5316380000000  0.4920840000000 1.0
C      1  0.5327100000000  0.5631280000000  0.4309040000000 1.0
C      1  0.5277980000000  0.5965910000000  0.4652630000000 1.0
C      1  0.4699750000000  0.5650200000000  0.4186540000000 1.0
C      1  0.4953970000000  0.4441220000000  0.4251120000000 1.0
C      1  0.4396990000000  0.4969320000000  0.5212440000000 1.0
C      1  0.6384770000000  0.5074610000000  0.4394540000000 1.0
C      1  0.4339690000000  0.5933070000000  0.5406620000000 1.0
C      1  0.4662850000000  0.5959600000000  0.5051960000000 1.0
C      1  0.4059910000000  0.5821920000000  0.5424640000000 1.0
C      1  0.5407840000000  0.4515580000000  0.5260030000000 1.0
C      1  0.4860690000000  0.4909500000000  0.4427460000000 1.0
C      1  0.4927770000000  0.3903570000000  0.5122510000000 1.0
C      1  0.4477690000000  0.5854380000000  0.5654700000000 1.0
C      1  0.4147140000000  0.4558000000000  0.4798660000000 1.0
C      1  0.4545160000000  0.5466980000000  0.4350400000000 1.0
C      1  0.5416880000000  0.5912820000000  0.4905490000000 1.0
C      1  0.5087520000000  0.6118280000000  0.5224300000000 1.0
C      1  0.4584810000000  0.5472820000000  0.5113010000000 1.0
C      1  0.5747660000000  0.4296360000000  0.5631570000000 1.0
C      1  0.4943130000000  0.3963220000000  0.5417990000000 1.0
C      1  0.4840980000000  0.6163170000000  0.5124690000000 1.0
C      1  0.4844040000000  0.4061680000000  0.3993780000000 1.0
C      1  0.5304500000000  0.5833020000000  0.5914320000000 1.0
C      1  0.6475190000000  0.5064090000000  0.4647750000000 1.0
END
