TITL C-627112-676-1314 2.20300026141934e-06 125000 -1149.59393516107 0 0 191 (C1) n - 1
REM
REM in /home/nfs/bkarasulu/CARBON/AIRSS/Generating-Clusters/LCBOP/Only-C1/SD-CG/FIRE-CG
REM
REM
REM
REM
REM
REM ./C.cell (11c1c37f851c82e70ff6c80c92926a4b)
REM AIRSS Version 0.9.1 bugfix July 2018 build 013d7b7c2542+ Fri, 06 Jul 2018 19:26:36 +0100
REM compiler GCC version 9.2.1 20190827 (Red Hat 9.2.1-1)
REM options -cpp -mtune=generic -march=x86-64 -g -O0 -fpre-include=/usr/include/finclude/math-vector-fortran.h
REM seed -1794999765 1172245782 361689693 -1729938696 2056661313 2036011292 349350209 -50615258 -2117596231 2033408167 -122434758 -769211514 -1647345740 1962128865 -1503943991 -142282362 -1403861143 -1997762059 -767531777 -75336242 -1257879568 -1870544602 356227269 308586438 1737745314 -844376708 -788696611 1884020411 -193809041 -982212187 1045385404 317984941 -359175419
REM
CELL 1.54180   50.00000   50.00000   50.00000   90.00000   90.00000   90.00000
LATT -1
SFAC C  
C      1  0.4880290000000  0.4322810000000  0.6093020000000 1.0
C      1  0.5329070000000  0.5088560000000  0.3850810000000 1.0
C      1  0.4653700000000  0.5248190000000  0.4762520000000 1.0
C      1  0.5365850000000  0.6247130000000  0.4718680000000 1.0
C      1  0.5988750000000  0.4477850000000  0.5920280000000 1.0
C      1  0.4334380000000  0.4242230000000  0.4438010000000 1.0
C      1  0.4424260000000  0.4567420000000  0.3962090000000 1.0
C      1  0.4046840000000  0.5706170000000  0.5124800000000 1.0
C      1  0.5853690000000  0.5241190000000  0.5955880000000 1.0
C      1  0.6192880000000  0.4538310000000  0.4902670000000 1.0
C      1  0.5742550000000  0.4100740000000  0.4490070000000 1.0
C      1  0.3842880000000  0.4727210000000  0.5820640000000 1.0
C      1  0.5592730000000  0.4456780000000  0.5032080000000 1.0
C      1  0.6192760000000  0.5236760000000  0.5058510000000 1.0
C      1  0.4804980000000  0.5899790000000  0.5144580000000 1.0
C      1  0.5436030000000  0.4761710000000  0.5931960000000 1.0
C      1  0.5385610000000  0.4262140000000  0.5410170000000 1.0
C      1  0.4159650000000  0.5343740000000  0.5970770000000 1.0
C      1  0.5143130000000  0.4800560000000  0.5255320000000 1.0
C      1  0.5652650000000  0.4877890000000  0.5460500000000 1.0
C      1  0.5894510000000  0.4382180000000  0.4108270000000 1.0
C      1  0.3802350000000  0.4672620000000  0.4494890000000 1.0
C      1  0.5155190000000  0.4295790000000  0.6022560000000 1.0
C      1  0.4801350000000  0.5336120000000  0.5944160000000 1.0
C      1  0.5314620000000  0.5264800000000  0.5070540000000 1.0
C      1  0.5753240000000  0.4600350000000  0.4496050000000 1.0
C      1  0.5331470000000  0.4997600000000  0.5142140000000 1.0
C      1  0.5254560000000  0.5857550000000  0.4949760000000 1.0
C      1  0.6212090000000  0.5528620000000  0.4559150000000 1.0
C      1  0.4731940000000  0.6080780000000  0.6188560000000 1.0
C      1  0.4005940000000  0.5146750000000  0.5840540000000 1.0
C      1  0.4903260000000  0.4218540000000  0.5470290000000 1.0
C      1  0.5596430000000  0.4897370000000  0.5179990000000 1.0
C      1  0.6087210000000  0.6046250000000  0.4623190000000 1.0
C      1  0.3967770000000  0.4278870000000  0.5495690000000 1.0
C      1  0.4176730000000  0.4886020000000  0.5078530000000 1.0
C      1  0.5586620000000  0.5151160000000  0.3832580000000 1.0
C      1  0.5523750000000  0.5777640000000  0.4986980000000 1.0
C      1  0.4167600000000  0.4114100000000  0.5583560000000 1.0
C      1  0.4744270000000  0.3802380000000  0.5240340000000 1.0
C      1  0.3958420000000  0.4907930000000  0.4488260000000 1.0
C      1  0.4745260000000  0.6069260000000  0.5928470000000 1.0
C      1  0.4478110000000  0.4959170000000  0.4407580000000 1.0
C      1  0.4593670000000  0.5415520000000  0.5746090000000 1.0
C      1  0.5155910000000  0.6123820000000  0.4886360000000 1.0
C      1  0.5595520000000  0.5616400000000  0.5210290000000 1.0
C      1  0.5572500000000  0.4671510000000  0.4268980000000 1.0
C      1  0.4142560000000  0.4407140000000  0.4319050000000 1.0
C      1  0.3812710000000  0.5157890000000  0.5625100000000 1.0
C      1  0.5014930000000  0.4177040000000  0.4205270000000 1.0
C      1  0.5957270000000  0.5006370000000  0.5836130000000 1.0
C      1  0.5027730000000  0.4948770000000  0.4707720000000 1.0
C      1  0.4663390000000  0.4743040000000  0.5348660000000 1.0
C      1  0.4447780000000  0.4046220000000  0.5576520000000 1.0
C      1  0.4826300000000  0.5614730000000  0.4372690000000 1.0
C      1  0.6069870000000  0.5774180000000  0.4532640000000 1.0
C      1  0.5386520000000  0.5444470000000  0.5280610000000 1.0
C      1  0.5105770000000  0.3834540000000  0.4819340000000 1.0
C      1  0.4839220000000  0.4545970000000  0.4464550000000 1.0
C      1  0.4497930000000  0.4596820000000  0.5837120000000 1.0
C      1  0.4655600000000  0.4900340000000  0.5106880000000 1.0
C      1  0.6110540000000  0.5259210000000  0.4589830000000 1.0
C      1  0.5613040000000  0.5365390000000  0.5975740000000 1.0
C      1  0.5720230000000  0.4584150000000  0.4033350000000 1.0
C      1  0.5306050000000  0.4591030000000  0.4289350000000 1.0
C      1  0.5121540000000  0.5105260000000  0.4484550000000 1.0
C      1  0.5863250000000  0.4336660000000  0.4393580000000 1.0
C      1  0.5347990000000  0.5750860000000  0.4162820000000 1.0
C      1  0.5372810000000  0.4984460000000  0.6107590000000 1.0
C      1  0.4970500000000  0.4804850000000  0.6254690000000 1.0
C      1  0.5351230000000  0.4503890000000  0.6030020000000 1.0
C      1  0.3913530000000  0.5563690000000  0.4923010000000 1.0
C      1  0.4187000000000  0.5639160000000  0.4397620000000 1.0
C      1  0.5342200000000  0.5303610000000  0.4546990000000 1.0
C      1  0.4760520000000  0.5959240000000  0.5411800000000 1.0
C      1  0.4074710000000  0.4865600000000  0.5910630000000 1.0
C      1  0.3832150000000  0.5384510000000  0.5455060000000 1.0
C      1  0.5856070000000  0.5530180000000  0.5260830000000 1.0
C      1  0.4913990000000  0.3837520000000  0.4588010000000 1.0
C      1  0.4144790000000  0.5165190000000  0.4129350000000 1.0
C      1  0.4638850000000  0.4412390000000  0.6009480000000 1.0
C      1  0.5090870000000  0.5363420000000  0.5956710000000 1.0
C      1  0.5352980000000  0.4390280000000  0.5158620000000 1.0
C      1  0.6060000000000  0.6207470000000  0.5073980000000 1.0
C      1  0.4904940000000  0.4788460000000  0.5991510000000 1.0
C      1  0.5248250000000  0.5391060000000  0.4825380000000 1.0
C      1  0.4845260000000  0.4259630000000  0.3993270000000 1.0
C      1  0.4754150000000  0.6033270000000  0.5666040000000 1.0
C      1  0.4500650000000  0.5252540000000  0.3818280000000 1.0
C      1  0.6119800000000  0.4307710000000  0.6090490000000 1.0
C      1  0.4232170000000  0.4632910000000  0.4160300000000 1.0
C      1  0.5163600000000  0.4161490000000  0.5551360000000 1.0
C      1  0.6270900000000  0.5724080000000  0.5161670000000 1.0
C      1  0.4764150000000  0.5649280000000  0.3852970000000 1.0
C      1  0.6165810000000  0.5086300000000  0.4817270000000 1.0
C      1  0.5649030000000  0.6267350000000  0.4791890000000 1.0
C      1  0.5623130000000  0.5194660000000  0.4520190000000 1.0
C      1  0.4970290000000  0.4355360000000  0.4869120000000 1.0
C      1  0.5106230000000  0.5084440000000  0.3995920000000 1.0
C      1  0.4672050000000  0.4752690000000  0.4384370000000 1.0
C      1  0.5189180000000  0.4265540000000  0.4672200000000 1.0
C      1  0.4639500000000  0.4413170000000  0.3913420000000 1.0
C      1  0.5888950000000  0.5188360000000  0.4419750000000 1.0
C      1  0.5648770000000  0.5726030000000  0.4745110000000 1.0
C      1  0.5194060000000  0.4745190000000  0.4803680000000 1.0
C      1  0.3849370000000  0.5356430000000  0.4771120000000 1.0
C      1  0.5354520000000  0.5255830000000  0.6012230000000 1.0
C      1  0.4179180000000  0.6163860000000  0.5209130000000 1.0
C      1  0.4967060000000  0.4801450000000  0.5731710000000 1.0
C      1  0.5344450000000  0.5533520000000  0.4343340000000 1.0
C      1  0.4201140000000  0.4605390000000  0.4995880000000 1.0
C      1  0.4014350000000  0.5599420000000  0.5392070000000 1.0
C      1  0.3706200000000  0.4201710000000  0.4408690000000 1.0
C      1  0.5633260000000  0.4042190000000  0.4749810000000 1.0
C      1  0.4325560000000  0.5504410000000  0.5800530000000 1.0
C      1  0.5930050000000  0.6193220000000  0.4817960000000 1.0
C      1  0.5828280000000  0.4369330000000  0.5712410000000 1.0
C      1  0.4638190000000  0.3910380000000  0.4634450000000 1.0
C      1  0.4987610000000  0.5157380000000  0.4238480000000 1.0
C      1  0.4280180000000  0.5820420000000  0.4573160000000 1.0
C      1  0.6223810000000  0.5987940000000  0.5145400000000 1.0
C      1  0.3873970000000  0.4415560000000  0.4408390000000 1.0
C      1  0.4989780000000  0.3768070000000  0.5083600000000 1.0
C      1  0.5200970000000  0.4100700000000  0.5823610000000 1.0
C      1  0.4527080000000  0.4226900000000  0.5155150000000 1.0
C      1  0.4253750000000  0.5162420000000  0.3870000000000 1.0
C      1  0.4581670000000  0.5218570000000  0.4480760000000 1.0
C      1  0.4548780000000  0.3948720000000  0.5080660000000 1.0
C      1  0.4560840000000  0.4559310000000  0.5547040000000 1.0
C      1  0.5166680000000  0.4790040000000  0.5536770000000 1.0
C      1  0.3857760000000  0.4472200000000  0.5312980000000 1.0
C      1  0.4199520000000  0.5941030000000  0.5047670000000 1.0
C      1  0.3727080000000  0.4872280000000  0.5598770000000 1.0
C      1  0.6060410000000  0.5695130000000  0.3729430000000 1.0
C      1  0.4657570000000  0.5367770000000  0.5469900000000 1.0
C      1  0.5185760000000  0.5476910000000  0.5466850000000 1.0
C      1  0.5956520000000  0.5124770000000  0.4150100000000 1.0
C      1  0.4506970000000  0.5316590000000  0.5221610000000 1.0
C      1  0.4610900000000  0.4275070000000  0.5448080000000 1.0
C      1  0.5945250000000  0.5477780000000  0.3815530000000 1.0
C      1  0.5635760000000  0.4282770000000  0.5546450000000 1.0
C      1  0.4347830000000  0.4811440000000  0.5975370000000 1.0
C      1  0.4825410000000  0.5641800000000  0.5018890000000 1.0
C      1  0.6015910000000  0.4758290000000  0.5956790000000 1.0
C      1  0.3963120000000  0.4453480000000  0.5046970000000 1.0
C      1  0.3779900000000  0.4752190000000  0.5350890000000 1.0
C      1  0.3877400000000  0.5132240000000  0.4633030000000 1.0
C      1  0.6165450000000  0.4953830000000  0.4100140000000 1.0
C      1  0.4566140000000  0.4180490000000  0.4581230000000 1.0
C      1  0.6103750000000  0.4799590000000  0.4801770000000 1.0
C      1  0.5679560000000  0.4715660000000  0.4978200000000 1.0
C      1  0.5370400000000  0.5708810000000  0.3893490000000 1.0
C      1  0.5825070000000  0.4741460000000  0.4735710000000 1.0
C      1  0.3912760000000  0.4931250000000  0.5169760000000 1.0
C      1  0.5207240000000  0.4914560000000  0.6326620000000 1.0
C      1  0.4699530000000  0.5151670000000  0.6133570000000 1.0
C      1  0.5828030000000  0.5252050000000  0.3930940000000 1.0
C      1  0.4292760000000  0.3617180000000  0.4823620000000 1.0
C      1  0.4671010000000  0.5417630000000  0.3968130000000 1.0
C      1  0.5858280000000  0.4114730000000  0.4928550000000 1.0
C      1  0.4359980000000  0.5966470000000  0.4804010000000 1.0
C      1  0.4790770000000  0.5006330000000  0.4864200000000 1.0
C      1  0.4860400000000  0.6112610000000  0.4945120000000 1.0
C      1  0.6068670000000  0.4294220000000  0.4945940000000 1.0
C      1  0.5891200000000  0.4978560000000  0.5563900000000 1.0
C      1  0.5323070000000  0.6208720000000  0.4440980000000 1.0
C      1  0.5792290000000  0.5724710000000  0.4522440000000 1.0
C      1  0.4752410000000  0.5350770000000  0.4254020000000 1.0
C      1  0.4194200000000  0.5659420000000  0.5602690000000 1.0
C      1  0.5106730000000  0.4400600000000  0.4391740000000 1.0
C      1  0.5127170000000  0.4565270000000  0.5043400000000 1.0
C      1  0.4935610000000  0.5390650000000  0.5441040000000 1.0
C      1  0.5436270000000  0.4804850000000  0.5644210000000 1.0
C      1  0.4628470000000  0.5438670000000  0.4982250000000 1.0
C      1  0.5074360000000  0.5637370000000  0.4842370000000 1.0
C      1  0.4426600000000  0.4443630000000  0.5010740000000 1.0
C      1  0.4614130000000  0.3809110000000  0.5506390000000 1.0
C      1  0.4195290000000  0.4913980000000  0.4296350000000 1.0
C      1  0.5325220000000  0.6014750000000  0.4257620000000 1.0
C      1  0.4401430000000  0.5050510000000  0.5147190000000 1.0
C      1  0.4605850000000  0.6125640000000  0.4803450000000 1.0
C      1  0.5009050000000  0.3918860000000  0.4329030000000 1.0
C      1  0.4481140000000  0.3811200000000  0.4844680000000 1.0
C      1  0.6029000000000  0.6422920000000  0.5238850000000 1.0
C      1  0.4961490000000  0.5711480000000  0.4577890000000 1.0
C      1  0.6120450000000  0.5485680000000  0.5175610000000 1.0
C      1  0.5336540000000  0.4026190000000  0.4764040000000 1.0
C      1  0.4117300000000  0.5419380000000  0.4258460000000 1.0
C      1  0.4452110000000  0.5019860000000  0.6157520000000 1.0
C      1  0.4263260000000  0.5232990000000  0.6210490000000 1.0
C      1  0.4743520000000  0.4379440000000  0.4682730000000 1.0
END
