TITL C-627109-622-1443 0.0847286169694566 125000 -413.50749994203 0 0 70 (C1) n - 1
REM
REM in /home/nfs/bkarasulu/CARBON/AIRSS/Generating-Clusters/LCBOP/Only-C1/SD-CG/FIRE-CG
REM
REM
REM
REM
REM
REM ./C.cell (11c1c37f851c82e70ff6c80c92926a4b)
REM AIRSS Version 0.9.1 bugfix July 2018 build 013d7b7c2542+ Fri, 06 Jul 2018 19:26:36 +0100
REM compiler GCC version 9.2.1 20190827 (Red Hat 9.2.1-1)
REM options -cpp -mtune=generic -march=x86-64 -g -O0 -fpre-include=/usr/include/finclude/math-vector-fortran.h
REM seed -1981138335 1256188117 4315574 -482309687 -211964391 -422511074 -296152777 -982079445 -1356200324 942079585 770669188 1249352898 -533622436 1433094600 469422555 -1796440771 -1111857309 963140467 -238797095 -286603638 -212316883 -247052092 -1387978945 -1858115205 -154087744 -1787906819 -1308977126 -647431498 -2055337876 -109851575 -135875982 820113956 853460768
REM
CELL 1.54180   50.00000   50.00000   50.00000   90.00000   90.00000   90.00000
LATT -1
SFAC C  
C      1  0.5214890000000  0.4701370000000  0.5178670000000 1.0
C      1  0.4685120000000  0.5250730000000  0.5225360000000 1.0
C      1  0.5260830000000  0.4775170000000  0.4705250000000 1.0
C      1  0.5422510000000  0.4600450000000  0.5743920000000 1.0
C      1  0.4561740000000  0.3727130000000  0.4984940000000 1.0
C      1  0.5610650000000  0.5394450000000  0.5370630000000 1.0
C      1  0.4967730000000  0.4958010000000  0.4329420000000 1.0
C      1  0.4765270000000  0.4743530000000  0.5600140000000 1.0
C      1  0.5171570000000  0.5009380000000  0.5644060000000 1.0
C      1  0.4352690000000  0.5358840000000  0.4309070000000 1.0
C      1  0.6005390000000  0.5655030000000  0.5473050000000 1.0
C      1  0.4238170000000  0.5315750000000  0.5094810000000 1.0
C      1  0.4961570000000  0.4874670000000  0.5174700000000 1.0
C      1  0.5633370000000  0.5224060000000  0.4777840000000 1.0
C      1  0.4422240000000  0.5771410000000  0.5160130000000 1.0
C      1  0.6651680000000  0.6131890000000  0.5408630000000 1.0
C      1  0.5900250000000  0.5526150000000  0.5709780000000 1.0
C      1  0.5826060000000  0.5575330000000  0.5258820000000 1.0
C      1  0.4792350000000  0.5161590000000  0.4233730000000 1.0
C      1  0.4883840000000  0.5137780000000  0.5056040000000 1.0
C      1  0.5769700000000  0.5114610000000  0.4569690000000 1.0
C      1  0.4261910000000  0.5556230000000  0.4484730000000 1.0
C      1  0.6227340000000  0.5817850000000  0.5454940000000 1.0
C      1  0.4952760000000  0.4930680000000  0.5485140000000 1.0
C      1  0.5080450000000  0.4976430000000  0.4593030000000 1.0
C      1  0.5119230000000  0.5677970000000  0.4959900000000 1.0
C      1  0.4963770000000  0.4364700000000  0.4650850000000 1.0
C      1  0.5123270000000  0.4485420000000  0.5369030000000 1.0
C      1  0.5362940000000  0.4863310000000  0.5767130000000 1.0
C      1  0.4189790000000  0.4612930000000  0.4732650000000 1.0
C      1  0.4512630000000  0.5131370000000  0.4279700000000 1.0
C      1  0.5809380000000  0.5631820000000  0.4980730000000 1.0
C      1  0.4971250000000  0.4720600000000  0.4177490000000 1.0
C      1  0.4682540000000  0.5854950000000  0.5136370000000 1.0
C      1  0.4798790000000  0.4424400000000  0.4871820000000 1.0
C      1  0.5212390000000  0.4503050000000  0.4647070000000 1.0
C      1  0.4376100000000  0.4613660000000  0.5223270000000 1.0
C      1  0.4753090000000  0.5424180000000  0.5427020000000 1.0
C      1  0.4215770000000  0.4578110000000  0.4995280000000 1.0
C      1  0.4411210000000  0.2960590000000  0.4862260000000 1.0
C      1  0.4665750000000  0.4253240000000  0.5054780000000 1.0
C      1  0.6439480000000  0.5974790000000  0.5432050000000 1.0
C      1  0.4960320000000  0.5154520000000  0.4783690000000 1.0
C      1  0.6860390000000  0.6286410000000  0.5385590000000 1.0
C      1  0.4866200000000  0.4298590000000  0.4395030000000 1.0
C      1  0.4040000000000  0.5705790000000  0.4431660000000 1.0
C      1  0.4594350000000  0.4416130000000  0.5282280000000 1.0
C      1  0.4396560000000  0.4883780000000  0.4340500000000 1.0
C      1  0.4309300000000  0.5571140000000  0.4987560000000 1.0
C      1  0.4414080000000  0.5593200000000  0.4719140000000 1.0
C      1  0.4891930000000  0.5377100000000  0.4097730000000 1.0
C      1  0.4850960000000  0.5755400000000  0.4927220000000 1.0
C      1  0.5346980000000  0.5519220000000  0.4987520000000 1.0
C      1  0.4417990000000  0.5134690000000  0.5220230000000 1.0
C      1  0.4892070000000  0.4463960000000  0.4183030000000 1.0
C      1  0.4511300000000  0.3470250000000  0.4943840000000 1.0
C      1  0.4824210000000  0.4495920000000  0.5449870000000 1.0
C      1  0.5373360000000  0.4826030000000  0.4968370000000 1.0
C      1  0.5598090000000  0.5513310000000  0.4828640000000 1.0
C      1  0.4381740000000  0.4875340000000  0.5351430000000 1.0
C      1  0.4268410000000  0.4713620000000  0.4499450000000 1.0
C      1  0.5499640000000  0.5079480000000  0.4999440000000 1.0
C      1  0.5417570000000  0.5303400000000  0.5182040000000 1.0
C      1  0.4460840000000  0.3213300000000  0.4902710000000 1.0
C      1  0.4612280000000  0.3984050000000  0.5024730000000 1.0
C      1  0.4502060000000  0.4844620000000  0.5609350000000 1.0
C      1  0.4691220000000  0.5665510000000  0.4707870000000 1.0
C      1  0.5674630000000  0.5377660000000  0.5650520000000 1.0
C      1  0.4803260000000  0.4692620000000  0.4974200000000 1.0
C      1  0.5312750000000  0.4421350000000  0.5572410000000 1.0
END
