TITL C-627111-6168-1013 -3.38725033747972e-06 125000 -1111.53518910866 0 0 183 (C1) n - 1
REM
REM in /home/nfs/bkarasulu/CARBON/AIRSS/Generating-Clusters/LCBOP/Only-C1/SD-CG/FIRE-CG
REM
REM
REM
REM
REM
REM ./C.cell (11c1c37f851c82e70ff6c80c92926a4b)
REM AIRSS Version 0.9.1 bugfix July 2018 build 013d7b7c2542+ Fri, 06 Jul 2018 19:26:36 +0100
REM compiler GCC version 9.2.1 20190827 (Red Hat 9.2.1-1)
REM options -cpp -mtune=generic -march=x86-64 -g -O0 -fpre-include=/usr/include/finclude/math-vector-fortran.h
REM seed 929156742 -1983418989 1341640500 -654819617 -1323958749 -1886563406 -1999793241 50925500 -1805400082 1057224688 -660586874 1218176292 -799793358 1793435639 364555567 441935013 1729338970 586664980 -1313511974 1392444712 -1960720436 -798429503 1821467727 -2126784497 1269766005 363483760 476925777 -1615599717 -941108247 -914679809 1979123975 1280714863 123748473
REM
CELL 1.54180   50.00000   50.00000   50.00000   90.00000   90.00000   90.00000
LATT -1
SFAC C  
C      1  0.4076160000000  0.4006160000000  0.5054960000000 1.0
C      1  0.4729220000000  0.4889090000000  0.5030100000000 1.0
C      1  0.5283960000000  0.5529410000000  0.5300440000000 1.0
C      1  0.5948050000000  0.5633940000000  0.4227830000000 1.0
C      1  0.5287950000000  0.4046510000000  0.5674560000000 1.0
C      1  0.6060480000000  0.4560050000000  0.4629400000000 1.0
C      1  0.4356530000000  0.4018040000000  0.4540380000000 1.0
C      1  0.5836540000000  0.4983770000000  0.4074340000000 1.0
C      1  0.3995990000000  0.4252060000000  0.4987240000000 1.0
C      1  0.5720200000000  0.6414210000000  0.5461240000000 1.0
C      1  0.5421300000000  0.5924840000000  0.4259730000000 1.0
C      1  0.5912540000000  0.4414930000000  0.4435550000000 1.0
C      1  0.3923660000000  0.4518660000000  0.5367640000000 1.0
C      1  0.5239060000000  0.3797370000000  0.4987220000000 1.0
C      1  0.6420060000000  0.4242120000000  0.4968930000000 1.0
C      1  0.3863530000000  0.5160620000000  0.5177020000000 1.0
C      1  0.4289300000000  0.5622650000000  0.4358190000000 1.0
C      1  0.5710380000000  0.5501810000000  0.4238750000000 1.0
C      1  0.5120820000000  0.5701260000000  0.4845330000000 1.0
C      1  0.3919870000000  0.5205310000000  0.5691180000000 1.0
C      1  0.5364660000000  0.5276280000000  0.4533850000000 1.0
C      1  0.4228990000000  0.3840450000000  0.5197680000000 1.0
C      1  0.3641840000000  0.5155280000000  0.4985190000000 1.0
C      1  0.5028890000000  0.4503530000000  0.5192920000000 1.0
C      1  0.4695440000000  0.4803870000000  0.6012580000000 1.0
C      1  0.5874040000000  0.4124420000000  0.5300950000000 1.0
C      1  0.5989320000000  0.4824110000000  0.5354160000000 1.0
C      1  0.4593110000000  0.4638460000000  0.5418740000000 1.0
C      1  0.5694480000000  0.5562380000000  0.5818270000000 1.0
C      1  0.5650910000000  0.6159020000000  0.5477110000000 1.0
C      1  0.4608020000000  0.4419990000000  0.4958000000000 1.0
C      1  0.5469370000000  0.4495530000000  0.4948510000000 1.0
C      1  0.4937010000000  0.3841460000000  0.5338240000000 1.0
C      1  0.5743930000000  0.5685710000000  0.5562580000000 1.0
C      1  0.4493660000000  0.6219180000000  0.5420150000000 1.0
C      1  0.3997990000000  0.4750660000000  0.4943570000000 1.0
C      1  0.4077400000000  0.5004130000000  0.5056710000000 1.0
C      1  0.6056790000000  0.5322890000000  0.4963010000000 1.0
C      1  0.4032830000000  0.4429450000000  0.5594360000000 1.0
C      1  0.4875430000000  0.5577990000000  0.5532040000000 1.0
C      1  0.5877790000000  0.5049510000000  0.5488700000000 1.0
C      1  0.5139750000000  0.5060830000000  0.5960670000000 1.0
C      1  0.5817620000000  0.5754250000000  0.4922800000000 1.0
C      1  0.4524440000000  0.5320840000000  0.5242840000000 1.0
C      1  0.4744790000000  0.3829360000000  0.4857910000000 1.0
C      1  0.5170460000000  0.4893760000000  0.3606660000000 1.0
C      1  0.4620650000000  0.5057580000000  0.5235030000000 1.0
C      1  0.5557130000000  0.5449170000000  0.4468540000000 1.0
C      1  0.3395230000000  0.5254810000000  0.5051850000000 1.0
C      1  0.4505260000000  0.6094290000000  0.5180940000000 1.0
C      1  0.4872880000000  0.5182510000000  0.4176080000000 1.0
C      1  0.5204890000000  0.4401020000000  0.4987640000000 1.0
C      1  0.4656210000000  0.5033850000000  0.4292340000000 1.0
C      1  0.5697120000000  0.4983800000000  0.4886620000000 1.0
C      1  0.5450400000000  0.5014460000000  0.5079120000000 1.0
C      1  0.6036240000000  0.4239160000000  0.4258960000000 1.0
C      1  0.5868130000000  0.4761900000000  0.5058070000000 1.0
C      1  0.4679310000000  0.4288550000000  0.4723090000000 1.0
C      1  0.4349890000000  0.5902750000000  0.4395920000000 1.0
C      1  0.5628900000000  0.4457340000000  0.4432950000000 1.0
C      1  0.4649230000000  0.5743800000000  0.4866610000000 1.0
C      1  0.4659900000000  0.4168040000000  0.5550870000000 1.0
C      1  0.5618950000000  0.4611590000000  0.5161240000000 1.0
C      1  0.4216130000000  0.4920400000000  0.5969300000000 1.0
C      1  0.4489390000000  0.5157910000000  0.5670340000000 1.0
C      1  0.5396160000000  0.3868620000000  0.5225670000000 1.0
C      1  0.5683350000000  0.5883000000000  0.4725380000000 1.0
C      1  0.5693140000000  0.5115560000000  0.6071260000000 1.0
C      1  0.5384060000000  0.5549130000000  0.3887870000000 1.0
C      1  0.5481500000000  0.4497880000000  0.4189570000000 1.0
C      1  0.6002830000000  0.5019730000000  0.4281170000000 1.0
C      1  0.4462780000000  0.5393280000000  0.5506480000000 1.0
C      1  0.6006990000000  0.5297090000000  0.5490270000000 1.0
C      1  0.5308240000000  0.5817260000000  0.5380710000000 1.0
C      1  0.3746750000000  0.5214530000000  0.4256780000000 1.0
C      1  0.4973930000000  0.4645240000000  0.4497780000000 1.0
C      1  0.5889210000000  0.5183310000000  0.4778640000000 1.0
C      1  0.5915700000000  0.5542870000000  0.5379820000000 1.0
C      1  0.6056270000000  0.4568070000000  0.5467330000000 1.0
C      1  0.5276090000000  0.3950520000000  0.4753120000000 1.0
C      1  0.4816260000000  0.4432090000000  0.4525690000000 1.0
C      1  0.4595650000000  0.4017100000000  0.4697290000000 1.0
C      1  0.4946310000000  0.4857290000000  0.5878250000000 1.0
C      1  0.4160230000000  0.4954320000000  0.4260570000000 1.0
C      1  0.5099810000000  0.4533150000000  0.5467770000000 1.0
C      1  0.3962910000000  0.4512060000000  0.5088820000000 1.0
C      1  0.5268410000000  0.4172060000000  0.3472700000000 1.0
C      1  0.6146730000000  0.4074840000000  0.4089550000000 1.0
C      1  0.4257350000000  0.5156140000000  0.4904360000000 1.0
C      1  0.5057860000000  0.4887500000000  0.4612840000000 1.0
C      1  0.4848370000000  0.5035850000000  0.4782520000000 1.0
C      1  0.4300290000000  0.5623470000000  0.5548740000000 1.0
C      1  0.5997580000000  0.5130480000000  0.4523530000000 1.0
C      1  0.4361370000000  0.5468030000000  0.4579870000000 1.0
C      1  0.5588400000000  0.5042930000000  0.5492470000000 1.0
C      1  0.5534570000000  0.4575780000000  0.4675390000000 1.0
C      1  0.5045580000000  0.4659020000000  0.5699160000000 1.0
C      1  0.3962310000000  0.4933770000000  0.5808060000000 1.0
C      1  0.4447310000000  0.3795740000000  0.5345200000000 1.0
C      1  0.5093940000000  0.6027340000000  0.5361200000000 1.0
C      1  0.4389470000000  0.6084090000000  0.4621460000000 1.0
C      1  0.6287020000000  0.5154450000000  0.5004600000000 1.0
C      1  0.3608640000000  0.5160970000000  0.4480820000000 1.0
C      1  0.5785730000000  0.6665860000000  0.5442840000000 1.0
C      1  0.6211350000000  0.4393380000000  0.5057770000000 1.0
C      1  0.4367160000000  0.5391340000000  0.5030250000000 1.0
C      1  0.4685040000000  0.3915100000000  0.5437590000000 1.0
C      1  0.5349480000000  0.5796620000000  0.4029660000000 1.0
C      1  0.5021110000000  0.6163880000000  0.5107050000000 1.0
C      1  0.5265950000000  0.4651650000000  0.6563590000000 1.0
C      1  0.4745220000000  0.4603730000000  0.5139270000000 1.0
C      1  0.4099510000000  0.5357750000000  0.5874930000000 1.0
C      1  0.4951720000000  0.3775210000000  0.5052880000000 1.0
C      1  0.5060740000000  0.5012700000000  0.5358190000000 1.0
C      1  0.3887650000000  0.4820580000000  0.4685480000000 1.0
C      1  0.5266710000000  0.4974760000000  0.6204590000000 1.0
C      1  0.5585340000000  0.5384840000000  0.4010210000000 1.0
C      1  0.4332870000000  0.4466350000000  0.5986850000000 1.0
C      1  0.4880690000000  0.5728140000000  0.4700920000000 1.0
C      1  0.5542470000000  0.4857810000000  0.4660170000000 1.0
C      1  0.5202880000000  0.3908020000000  0.5443390000000 1.0
C      1  0.5567290000000  0.5336900000000  0.5937840000000 1.0
C      1  0.4468050000000  0.4770270000000  0.3928420000000 1.0
C      1  0.5569110000000  0.5892690000000  0.5475150000000 1.0
C      1  0.3690840000000  0.5036180000000  0.4719250000000 1.0
C      1  0.5506440000000  0.3772430000000  0.4302080000000 1.0
C      1  0.5158790000000  0.4203000000000  0.4792090000000 1.0
C      1  0.5044140000000  0.5242450000000  0.4946980000000 1.0
C      1  0.4644810000000  0.6202070000000  0.4713840000000 1.0
C      1  0.5344870000000  0.4951900000000  0.4074910000000 1.0
C      1  0.4201000000000  0.4220780000000  0.4444500000000 1.0
C      1  0.4041850000000  0.4751410000000  0.4444540000000 1.0
C      1  0.4621910000000  0.5069810000000  0.4576020000000 1.0
C      1  0.3912110000000  0.5319740000000  0.5421170000000 1.0
C      1  0.6312330000000  0.4887630000000  0.4941610000000 1.0
C      1  0.5426220000000  0.4217560000000  0.5830480000000 1.0
C      1  0.5159000000000  0.5495150000000  0.5030890000000 1.0
C      1  0.4880740000000  0.5455950000000  0.4249160000000 1.0
C      1  0.5541170000000  0.4413400000000  0.5975760000000 1.0
C      1  0.4280830000000  0.4399670000000  0.5718670000000 1.0
C      1  0.5473270000000  0.4518870000000  0.6444710000000 1.0
C      1  0.4111370000000  0.4474020000000  0.4412390000000 1.0
C      1  0.4650230000000  0.5856710000000  0.5123670000000 1.0
C      1  0.5178930000000  0.5066500000000  0.5118590000000 1.0
C      1  0.4171430000000  0.6075830000000  0.4808920000000 1.0
C      1  0.5543870000000  0.5949450000000  0.4501560000000 1.0
C      1  0.4431160000000  0.5579610000000  0.4829440000000 1.0
C      1  0.4776040000000  0.5701890000000  0.5322750000000 1.0
C      1  0.5505350000000  0.4837330000000  0.5309000000000 1.0
C      1  0.5385050000000  0.5273920000000  0.5520860000000 1.0
C      1  0.4613700000000  0.6064470000000  0.5627240000000 1.0
C      1  0.4861550000000  0.6226770000000  0.4887580000000 1.0
C      1  0.4330410000000  0.5178520000000  0.5904620000000 1.0
C      1  0.5158740000000  0.4873580000000  0.6446110000000 1.0
C      1  0.4561130000000  0.4922840000000  0.5491400000000 1.0
C      1  0.4876860000000  0.5649790000000  0.4432220000000 1.0
C      1  0.5400910000000  0.3862960000000  0.4522490000000 1.0
C      1  0.5213140000000  0.5409400000000  0.3704600000000 1.0
C      1  0.5088580000000  0.5081700000000  0.4024070000000 1.0
C      1  0.5358450000000  0.4673720000000  0.4001920000000 1.0
C      1  0.6118360000000  0.4646730000000  0.4910950000000 1.0
C      1  0.4904550000000  0.6060890000000  0.5588000000000 1.0
C      1  0.5265030000000  0.4403600000000  0.3592260000000 1.0
C      1  0.6063300000000  0.4336680000000  0.5298120000000 1.0
C      1  0.5309200000000  0.5256850000000  0.5808550000000 1.0
C      1  0.4415970000000  0.4730190000000  0.6038130000000 1.0
C      1  0.3978640000000  0.5785030000000  0.5206280000000 1.0
C      1  0.4371930000000  0.5182920000000  0.4642180000000 1.0
C      1  0.4028740000000  0.5952170000000  0.5001410000000 1.0
C      1  0.5314530000000  0.5005170000000  0.4579470000000 1.0
C      1  0.5542510000000  0.4889760000000  0.6154410000000 1.0
C      1  0.4434390000000  0.5841700000000  0.5684470000000 1.0
C      1  0.5585270000000  0.5100360000000  0.4023250000000 1.0
C      1  0.5111580000000  0.5144130000000  0.3737810000000 1.0
C      1  0.5265180000000  0.4645970000000  0.3728180000000 1.0
C      1  0.5942800000000  0.5558310000000  0.5090600000000 1.0
C      1  0.4153830000000  0.5460720000000  0.4167620000000 1.0
C      1  0.5660370000000  0.3968420000000  0.5246920000000 1.0
C      1  0.4022990000000  0.5205810000000  0.4197730000000 1.0
C      1  0.5568070000000  0.4602310000000  0.6186120000000 1.0
C      1  0.4042550000000  0.5592580000000  0.5405410000000 1.0
C      1  0.4513070000000  0.4403980000000  0.5555840000000 1.0
C      1  0.4430070000000  0.4917550000000  0.4156720000000 1.0
END
