TITL C-627110-360-1738 -7.48826878194966e-08 125000 -676.72147764361 0 0 111 (C1) n - 1
REM
REM in /home/nfs/bkarasulu/CARBON/AIRSS/Generating-Clusters/LCBOP/Only-C1/SD-CG/FIRE-CG
REM
REM
REM
REM
REM
REM ./C.cell (11c1c37f851c82e70ff6c80c92926a4b)
REM AIRSS Version 0.9.1 bugfix July 2018 build 013d7b7c2542+ Fri, 06 Jul 2018 19:26:36 +0100
REM compiler GCC version 9.2.1 20190827 (Red Hat 9.2.1-1)
REM options -cpp -mtune=generic -march=x86-64 -g -O0 -fpre-include=/usr/include/finclude/math-vector-fortran.h
REM seed -1165371128 -947332935 -1767669996 -414835949 -1567341987 -1689627692 -1757715650 1462326553 -1728886994 2043050719 -742491700 996009852 -334845913 865077862 -1254289784 940948907 593563400 1031491991 -2019542513 -676138000 386545544 -937507446 -1401139369 -532551405 1282048784 265620349 -1475354437 -1484459565 533931464 570327696 -525459386 -1765992584 86574066
REM
CELL 1.54180   50.00000   50.00000   50.00000   90.00000   90.00000   90.00000
LATT -1
SFAC C  
C      1  0.4986200000000  0.4604510000000  0.4160910000000 1.0
C      1  0.4694800000000  0.5302490000000  0.5902570000000 1.0
C      1  0.4589600000000  0.4443980000000  0.4681250000000 1.0
C      1  0.5458770000000  0.4738220000000  0.6010680000000 1.0
C      1  0.4431690000000  0.5243850000000  0.4398440000000 1.0
C      1  0.4840930000000  0.4524150000000  0.5078910000000 1.0
C      1  0.5298330000000  0.5337420000000  0.5760570000000 1.0
C      1  0.5411810000000  0.5969280000000  0.5830480000000 1.0
C      1  0.5514910000000  0.5865220000000  0.4161450000000 1.0
C      1  0.4743720000000  0.3980940000000  0.4449690000000 1.0
C      1  0.4919250000000  0.4043320000000  0.5383390000000 1.0
C      1  0.5446660000000  0.4232000000000  0.4628700000000 1.0
C      1  0.4569300000000  0.5665890000000  0.5629130000000 1.0
C      1  0.4988400000000  0.4963010000000  0.5091840000000 1.0
C      1  0.5350820000000  0.5803620000000  0.5621920000000 1.0
C      1  0.4596780000000  0.4534980000000  0.4429410000000 1.0
C      1  0.5461400000000  0.5191390000000  0.4271360000000 1.0
C      1  0.5549710000000  0.5434700000000  0.4397320000000 1.0
C      1  0.4462820000000  0.4924710000000  0.5589340000000 1.0
C      1  0.4709710000000  0.4864240000000  0.5732470000000 1.0
C      1  0.4029320000000  0.5085940000000  0.5239570000000 1.0
C      1  0.4399420000000  0.5209630000000  0.5533840000000 1.0
C      1  0.4778250000000  0.5097240000000  0.3618580000000 1.0
C      1  0.4744460000000  0.4340570000000  0.4891110000000 1.0
C      1  0.4965250000000  0.5914710000000  0.4281520000000 1.0
C      1  0.5677110000000  0.5598290000000  0.5154680000000 1.0
C      1  0.5094200000000  0.5653570000000  0.4349670000000 1.0
C      1  0.4486630000000  0.4832470000000  0.4992180000000 1.0
C      1  0.6091640000000  0.5161180000000  0.4833130000000 1.0
C      1  0.4386500000000  0.5747410000000  0.4722380000000 1.0
C      1  0.5377120000000  0.4847450000000  0.5410170000000 1.0
C      1  0.5584900000000  0.4635450000000  0.5798120000000 1.0
C      1  0.5621410000000  0.5451730000000  0.4913210000000 1.0
C      1  0.4334090000000  0.5979590000000  0.5139270000000 1.0
C      1  0.5143780000000  0.5302860000000  0.4675080000000 1.0
C      1  0.4644830000000  0.5427610000000  0.4420970000000 1.0
C      1  0.5888610000000  0.4983800000000  0.5292060000000 1.0
C      1  0.4252700000000  0.5506490000000  0.5142750000000 1.0
C      1  0.5309270000000  0.3991690000000  0.5103550000000 1.0
C      1  0.4438610000000  0.4236100000000  0.5300950000000 1.0
C      1  0.4211960000000  0.5144030000000  0.4514980000000 1.0
C      1  0.5144680000000  0.5125250000000  0.5879550000000 1.0
C      1  0.4502270000000  0.3916980000000  0.4593640000000 1.0
C      1  0.4490920000000  0.6083670000000  0.4367740000000 1.0
C      1  0.5979490000000  0.5314360000000  0.4639900000000 1.0
C      1  0.5448750000000  0.5535740000000  0.5614090000000 1.0
C      1  0.5234990000000  0.4061150000000  0.4550980000000 1.0
C      1  0.5839530000000  0.4466560000000  0.5207140000000 1.0
C      1  0.5406660000000  0.4052370000000  0.5565300000000 1.0
C      1  0.4758950000000  0.4150240000000  0.4219010000000 1.0
C      1  0.4887060000000  0.5159560000000  0.3847020000000 1.0
C      1  0.5495660000000  0.4085280000000  0.5299210000000 1.0
C      1  0.4942680000000  0.5731570000000  0.5297470000000 1.0
C      1  0.6058680000000  0.5049710000000  0.5075750000000 1.0
C      1  0.5188920000000  0.5889560000000  0.5408110000000 1.0
C      1  0.4321990000000  0.4504810000000  0.5307290000000 1.0
C      1  0.4742760000000  0.6063210000000  0.4277930000000 1.0
C      1  0.5245010000000  0.6102210000000  0.5221750000000 1.0
C      1  0.4991160000000  0.5434890000000  0.5296850000000 1.0
C      1  0.4692390000000  0.5825180000000  0.5436970000000 1.0
C      1  0.5409750000000  0.5109490000000  0.5255410000000 1.0
C      1  0.4969250000000  0.4007240000000  0.4624560000000 1.0
C      1  0.4306560000000  0.4636670000000  0.5050170000000 1.0
C      1  0.4678470000000  0.4185230000000  0.5458060000000 1.0
C      1  0.4623510000000  0.5604530000000  0.4655520000000 1.0
C      1  0.5572680000000  0.4037280000000  0.5780340000000 1.0
C      1  0.5180730000000  0.4781260000000  0.4267410000000 1.0
C      1  0.5218260000000  0.5057800000000  0.4195290000000 1.0
C      1  0.4893370000000  0.4096460000000  0.4884160000000 1.0
C      1  0.5123820000000  0.4018380000000  0.5584290000000 1.0
C      1  0.5481000000000  0.5206040000000  0.4969170000000 1.0
C      1  0.5284640000000  0.4939190000000  0.6037760000000 1.0
C      1  0.4710680000000  0.4348490000000  0.5686560000000 1.0
C      1  0.5027620000000  0.4010890000000  0.5116980000000 1.0
C      1  0.4366260000000  0.4057250000000  0.5086990000000 1.0
C      1  0.4293050000000  0.5741800000000  0.4991210000000 1.0
C      1  0.4019640000000  0.4863300000000  0.5417070000000 1.0
C      1  0.5328470000000  0.4689990000000  0.4496930000000 1.0
C      1  0.4930530000000  0.5838960000000  0.5001990000000 1.0
C      1  0.5103130000000  0.5184590000000  0.5239920000000 1.0
C      1  0.5302020000000  0.4837580000000  0.4734590000000 1.0
C      1  0.5675980000000  0.4250420000000  0.5129420000000 1.0
C      1  0.5501930000000  0.4465600000000  0.4475970000000 1.0
C      1  0.4264480000000  0.4728370000000  0.5492860000000 1.0
C      1  0.5687950000000  0.5184260000000  0.5377860000000 1.0
C      1  0.4890920000000  0.5434690000000  0.4251600000000 1.0
C      1  0.4769460000000  0.4436020000000  0.4228220000000 1.0
C      1  0.4996820000000  0.5215940000000  0.4097640000000 1.0
C      1  0.4867620000000  0.5678900000000  0.4782570000000 1.0
C      1  0.4764940000000  0.4593850000000  0.5774380000000 1.0
C      1  0.5329330000000  0.5115890000000  0.4753200000000 1.0
C      1  0.5724290000000  0.5442770000000  0.4637420000000 1.0
C      1  0.4522510000000  0.5403930000000  0.5704920000000 1.0
C      1  0.5721460000000  0.4475070000000  0.4312750000000 1.0
C      1  0.5817020000000  0.4707040000000  0.5356100000000 1.0
C      1  0.5397370000000  0.5659540000000  0.4297600000000 1.0
C      1  0.4226730000000  0.5283000000000  0.5313420000000 1.0
C      1  0.5085800000000  0.5573720000000  0.4640200000000 1.0
C      1  0.3956060000000  0.5077370000000  0.4967460000000 1.0
C      1  0.5588940000000  0.4702200000000  0.5528070000000 1.0
C      1  0.4384550000000  0.3951280000000  0.4837350000000 1.0
C      1  0.4750700000000  0.4803660000000  0.5077000000000 1.0
C      1  0.5651580000000  0.5469740000000  0.5415210000000 1.0
C      1  0.4530640000000  0.6023680000000  0.5317940000000 1.0
C      1  0.4037750000000  0.5098340000000  0.4712950000000 1.0
C      1  0.5566850000000  0.4197140000000  0.4875470000000 1.0
C      1  0.5126320000000  0.4521040000000  0.5098390000000 1.0
C      1  0.4329020000000  0.5957590000000  0.4542310000000 1.0
C      1  0.5194160000000  0.4769880000000  0.4984260000000 1.0
C      1  0.4862000000000  0.5082460000000  0.5846960000000 1.0
C      1  0.5095210000000  0.6076100000000  0.4992820000000 1.0
END
