TITL C-627112-676-1838 0.286207571764802 125000 -479.255937559043 0 0 80 (C1) n - 1
REM
REM in /home/nfs/bkarasulu/CARBON/AIRSS/Generating-Clusters/LCBOP/Only-C1/SD-CG/FIRE-CG
REM
REM
REM
REM
REM
REM ./C.cell (11c1c37f851c82e70ff6c80c92926a4b)
REM AIRSS Version 0.9.1 bugfix July 2018 build 013d7b7c2542+ Fri, 06 Jul 2018 19:26:36 +0100
REM compiler GCC version 9.2.1 20190827 (Red Hat 9.2.1-1)
REM options -cpp -mtune=generic -march=x86-64 -g -O0 -fpre-include=/usr/include/finclude/math-vector-fortran.h
REM seed 100685403 1002072027 239691940 -1776089110 -579732325 -1966767733 -550321473 -295093341 -2094672224 -1533641996 -440260788 564494771 159647784 -873597986 -915873323 1657101601 -1509384962 -1457411547 -2133814206 -146788417 -734963504 -1464148636 -914360512 583633323 1872261614 2023999091 -510044522 1208122070 -2117429942 -275111163 -1176517207 829512075 -342431245
REM
CELL 1.54180   50.00000   50.00000   50.00000   90.00000   90.00000   90.00000
LATT -1
SFAC C  
C      1  0.4516290000000  0.4566260000000  0.3926730000000 1.0
C      1  0.5448920000000  0.5281280000000  0.5086740000000 1.0
C      1  0.5113480000000  0.5035590000000  0.5728760000000 1.0
C      1  0.4652300000000  0.5022160000000  0.3867490000000 1.0
C      1  0.5480740000000  0.4713050000000  0.3752660000000 1.0
C      1  0.5309900000000  0.4834390000000  0.4669900000000 1.0
C      1  0.5895570000000  0.5288280000000  0.4789420000000 1.0
C      1  0.4470690000000  0.4360480000000  0.5339790000000 1.0
C      1  0.5097830000000  0.6239220000000  0.6793410000000 1.0
C      1  0.5431410000000  0.5137190000000  0.5338100000000 1.0
C      1  0.4676010000000  0.4291920000000  0.4357320000000 1.0
C      1  0.4802930000000  0.3617790000000  0.5008160000000 1.0
C      1  0.5485580000000  0.4362710000000  0.5132780000000 1.0
C      1  0.5006450000000  0.4596390000000  0.4964550000000 1.0
C      1  0.4653150000000  0.4481750000000  0.5536660000000 1.0
C      1  0.5311660000000  0.6757350000000  0.7351200000000 1.0
C      1  0.5358780000000  0.3986800000000  0.4856430000000 1.0
C      1  0.5315160000000  0.4961550000000  0.5534870000000 1.0
C      1  0.4510470000000  0.4693310000000  0.5683730000000 1.0
C      1  0.4807900000000  0.3878240000000  0.5016260000000 1.0
C      1  0.4859910000000  0.5155910000000  0.5191080000000 1.0
C      1  0.4747580000000  0.5369930000000  0.5840630000000 1.0
C      1  0.4986400000000  0.5341600000000  0.5370660000000 1.0
C      1  0.6100370000000  0.5111220000000  0.4339280000000 1.0
C      1  0.4561520000000  0.5422420000000  0.5618780000000 1.0
C      1  0.4791280000000  0.4157200000000  0.5029410000000 1.0
C      1  0.5394300000000  0.4875360000000  0.4405510000000 1.0
C      1  0.5313450000000  0.4705630000000  0.4196030000000 1.0
C      1  0.4858210000000  0.4734990000000  0.4461480000000 1.0
C      1  0.5695630000000  0.5322990000000  0.4961520000000 1.0
C      1  0.4882880000000  0.5718340000000  0.6232630000000 1.0
C      1  0.4720130000000  0.4746610000000  0.3843330000000 1.0
C      1  0.5291000000000  0.4212010000000  0.4995140000000 1.0
C      1  0.5943640000000  0.4895230000000  0.3889270000000 1.0
C      1  0.4578420000000  0.5641700000000  0.5440970000000 1.0
C      1  0.4915870000000  0.4421190000000  0.5600710000000 1.0
C      1  0.4846480000000  0.5092250000000  0.5813380000000 1.0
C      1  0.4541160000000  0.5153240000000  0.4094770000000 1.0
C      1  0.4336980000000  0.4553530000000  0.4150850000000 1.0
C      1  0.5202200000000  0.5318500000000  0.4938650000000 1.0
C      1  0.4812290000000  0.5545330000000  0.6044950000000 1.0
C      1  0.5735470000000  0.4793720000000  0.3757280000000 1.0
C      1  0.4728290000000  0.5218920000000  0.4300400000000 1.0
C      1  0.4706350000000  0.5734660000000  0.5221830000000 1.0
C      1  0.5114890000000  0.4838360000000  0.4875170000000 1.0
C      1  0.5165420000000  0.4509370000000  0.5624360000000 1.0
C      1  0.5309280000000  0.5493570000000  0.4061580000000 1.0
C      1  0.5128180000000  0.5528230000000  0.5489260000000 1.0
C      1  0.4954520000000  0.5891960000000  0.6419570000000 1.0
C      1  0.4588820000000  0.5106840000000  0.5246330000000 1.0
C      1  0.4611510000000  0.4952600000000  0.5699740000000 1.0
C      1  0.4866540000000  0.4472050000000  0.4415540000000 1.0
C      1  0.5241160000000  0.6586530000000  0.7167310000000 1.0
C      1  0.4285970000000  0.5054370000000  0.4173330000000 1.0
C      1  0.4991700000000  0.4674730000000  0.3828710000000 1.0
C      1  0.5026170000000  0.6065590000000  0.6606490000000 1.0
C      1  0.5356540000000  0.4679340000000  0.5506930000000 1.0
C      1  0.5257240000000  0.4683250000000  0.3920440000000 1.0
C      1  0.5169490000000  0.6412860000000  0.6980340000000 1.0
C      1  0.4351840000000  0.4303500000000  0.4865820000000 1.0
C      1  0.5049010000000  0.5536740000000  0.4111010000000 1.0
C      1  0.4534150000000  0.4273610000000  0.5079720000000 1.0
C      1  0.4802060000000  0.4994460000000  0.4452800000000 1.0
C      1  0.5512700000000  0.5117100000000  0.4326350000000 1.0
C      1  0.5030370000000  0.5086490000000  0.4977480000000 1.0
C      1  0.4893000000000  0.5703980000000  0.5029400000000 1.0
C      1  0.6069260000000  0.5003140000000  0.4097890000000 1.0
C      1  0.5519750000000  0.4557160000000  0.5313890000000 1.0
C      1  0.5493440000000  0.5332910000000  0.4170540000000 1.0
C      1  0.4208410000000  0.4437370000000  0.5438150000000 1.0
C      1  0.4401360000000  0.4364850000000  0.4356800000000 1.0
C      1  0.4502880000000  0.5152940000000  0.5513140000000 1.0
C      1  0.5024370000000  0.4317850000000  0.4995480000000 1.0
C      1  0.4202920000000  0.4797980000000  0.4203610000000 1.0
C      1  0.4959740000000  0.5549850000000  0.4579610000000 1.0
C      1  0.5047600000000  0.5547510000000  0.4847370000000 1.0
C      1  0.6037790000000  0.5210850000000  0.4578140000000 1.0
C      1  0.4885820000000  0.5454140000000  0.4325370000000 1.0
C      1  0.4231550000000  0.4625800000000  0.5639920000000 1.0
C      1  0.4279530000000  0.4333920000000  0.4608920000000 1.0
END
