TITL C-627113-6568-999 0.00374987720654568 125000 -865.201349924193 0 0 144 (C1) n - 1
REM
REM in /home/nfs/bkarasulu/CARBON/AIRSS/Generating-Clusters/LCBOP/Only-C1/SD-CG/FIRE-CG
REM
REM
REM
REM
REM
REM ./C.cell (11c1c37f851c82e70ff6c80c92926a4b)
REM AIRSS Version 0.9.1 bugfix July 2018 build 013d7b7c2542+ Fri, 06 Jul 2018 19:26:36 +0100
REM compiler GCC version 9.2.1 20190827 (Red Hat 9.2.1-1)
REM options -cpp -mtune=generic -march=x86-64 -g -O0 -fpre-include=/usr/include/finclude/math-vector-fortran.h
REM seed -1237555062 57979895 -185120986 916751200 -373328144 1164792843 -750970471 -240835332 -2042386989 -1951279261 -1977771383 -1300406962 548334082 706121784 2087266791 1447114314 -918501670 -407008973 2056373276 737034403 551502447 642125143 -1017470900 -914545389 -1101504236 -99392554 -1930713179 -806906498 -545891076 617714449 -1728754558 246836398 -1066430464
REM
CELL 1.54180   50.00000   50.00000   50.00000   90.00000   90.00000   90.00000
LATT -1
SFAC C  
C      1  0.3892180000000  0.4975580000000  0.5434270000000 1.0
C      1  0.5299070000000  0.6205340000000  0.5396710000000 1.0
C      1  0.4279140000000  0.5309180000000  0.4260900000000 1.0
C      1  0.4745150000000  0.5927820000000  0.5641490000000 1.0
C      1  0.5259390000000  0.5281550000000  0.4784440000000 1.0
C      1  0.4742960000000  0.4348000000000  0.5945570000000 1.0
C      1  0.4022600000000  0.4495060000000  0.4530240000000 1.0
C      1  0.5150480000000  0.6093170000000  0.4714300000000 1.0
C      1  0.4718570000000  0.6105100000000  0.4955900000000 1.0
C      1  0.4771870000000  0.5322650000000  0.4776260000000 1.0
C      1  0.4630300000000  0.4301670000000  0.5687700000000 1.0
C      1  0.3828880000000  0.5353560000000  0.4487680000000 1.0
C      1  0.4623270000000  0.4453170000000  0.4776100000000 1.0
C      1  0.4510120000000  0.4596890000000  0.4992730000000 1.0
C      1  0.5420880000000  0.4721300000000  0.4712010000000 1.0
C      1  0.4375600000000  0.4826660000000  0.5102550000000 1.0
C      1  0.3781810000000  0.4767670000000  0.4835120000000 1.0
C      1  0.6056670000000  0.5689020000000  0.5657530000000 1.0
C      1  0.4904120000000  0.4466750000000  0.6127360000000 1.0
C      1  0.5070800000000  0.3762040000000  0.5089970000000 1.0
C      1  0.4934290000000  0.5722870000000  0.5646640000000 1.0
C      1  0.5170460000000  0.4499960000000  0.5196470000000 1.0
C      1  0.5949580000000  0.5220400000000  0.4809290000000 1.0
C      1  0.4621410000000  0.4699880000000  0.4006450000000 1.0
C      1  0.3842220000000  0.3809490000000  0.5592430000000 1.0
C      1  0.5336360000000  0.4722810000000  0.5678350000000 1.0
C      1  0.4468830000000  0.4037850000000  0.4651530000000 1.0
C      1  0.5081620000000  0.4643140000000  0.6229330000000 1.0
C      1  0.4504520000000  0.4957460000000  0.5321550000000 1.0
C      1  0.4319600000000  0.5609490000000  0.4656710000000 1.0
C      1  0.5556950000000  0.5200250000000  0.5237830000000 1.0
C      1  0.3916000000000  0.4710320000000  0.5399870000000 1.0
C      1  0.5854970000000  0.5091400000000  0.4565940000000 1.0
C      1  0.3823200000000  0.5225470000000  0.4722940000000 1.0
C      1  0.5160760000000  0.4749530000000  0.4631120000000 1.0
C      1  0.4216450000000  0.4964610000000  0.4903300000000 1.0
C      1  0.5459670000000  0.4976550000000  0.5669410000000 1.0
C      1  0.5093610000000  0.3496430000000  0.5025550000000 1.0
C      1  0.4283010000000  0.4498330000000  0.4412150000000 1.0
C      1  0.4871960000000  0.4796190000000  0.5749190000000 1.0
C      1  0.3933070000000  0.5003720000000  0.4856900000000 1.0
C      1  0.5812860000000  0.5765400000000  0.5250860000000 1.0
C      1  0.4948720000000  0.5294860000000  0.4333470000000 1.0
C      1  0.5070560000000  0.4647180000000  0.5636110000000 1.0
C      1  0.4717210000000  0.3936000000000  0.4776120000000 1.0
C      1  0.5053560000000  0.4732110000000  0.4379060000000 1.0
C      1  0.5072300000000  0.4401850000000  0.4960340000000 1.0
C      1  0.5467400000000  0.4571690000000  0.4182820000000 1.0
C      1  0.4586930000000  0.6027990000000  0.4707360000000 1.0
C      1  0.5457040000000  0.6087790000000  0.5576090000000 1.0
C      1  0.5563550000000  0.4096410000000  0.4347810000000 1.0
C      1  0.4414890000000  0.5053490000000  0.5571570000000 1.0
C      1  0.4863070000000  0.5162110000000  0.4093620000000 1.0
C      1  0.3965950000000  0.4385600000000  0.5032150000000 1.0
C      1  0.5344170000000  0.5148190000000  0.5862550000000 1.0
C      1  0.5414110000000  0.4640890000000  0.5173700000000 1.0
C      1  0.5402160000000  0.5557010000000  0.6058560000000 1.0
C      1  0.4325080000000  0.5856590000000  0.5071420000000 1.0
C      1  0.5086300000000  0.5423270000000  0.5300830000000 1.0
C      1  0.4590070000000  0.5773900000000  0.4298100000000 1.0
C      1  0.4360550000000  0.5870610000000  0.4772850000000 1.0
C      1  0.4804640000000  0.4269760000000  0.5459870000000 1.0
C      1  0.4059800000000  0.5465990000000  0.5333130000000 1.0
C      1  0.5280310000000  0.5573820000000  0.4860630000000 1.0
C      1  0.5698510000000  0.5248900000000  0.4393080000000 1.0
C      1  0.5647240000000  0.5923250000000  0.4821990000000 1.0
C      1  0.5454210000000  0.5350690000000  0.4302970000000 1.0
C      1  0.5069420000000  0.5667600000000  0.5405830000000 1.0
C      1  0.4217960000000  0.5459350000000  0.4877440000000 1.0
C      1  0.5222130000000  0.5300300000000  0.4459470000000 1.0
C      1  0.3941320000000  0.5239230000000  0.5416310000000 1.0
C      1  0.4779610000000  0.4782570000000  0.4403940000000 1.0
C      1  0.6080700000000  0.5090610000000  0.5031090000000 1.0
C      1  0.5421710000000  0.4290410000000  0.4185760000000 1.0
C      1  0.4981050000000  0.5179970000000  0.5310730000000 1.0
C      1  0.5807080000000  0.4793610000000  0.5344410000000 1.0
C      1  0.5642330000000  0.5020970000000  0.5447480000000 1.0
C      1  0.5113170000000  0.4032890000000  0.4444960000000 1.0
C      1  0.4474800000000  0.5506940000000  0.4409760000000 1.0
C      1  0.5829690000000  0.5777880000000  0.5532150000000 1.0
C      1  0.4354280000000  0.4314070000000  0.5630760000000 1.0
C      1  0.5890840000000  0.5496790000000  0.4849320000000 1.0
C      1  0.5222910000000  0.4717480000000  0.4149680000000 1.0
C      1  0.5296540000000  0.3901620000000  0.5195670000000 1.0
C      1  0.4005570000000  0.5388460000000  0.4288170000000 1.0
C      1  0.5649590000000  0.4270090000000  0.5347210000000 1.0
C      1  0.5137500000000  0.6230910000000  0.5186540000000 1.0
C      1  0.6500630000000  0.5350420000000  0.5260380000000 1.0
C      1  0.5384830000000  0.3948110000000  0.4498420000000 1.0
C      1  0.4307820000000  0.5026620000000  0.4189430000000 1.0
C      1  0.5614170000000  0.5883780000000  0.5688760000000 1.0
C      1  0.6212890000000  0.4400450000000  0.5049520000000 1.0
C      1  0.4723670000000  0.5968990000000  0.4464540000000 1.0
C      1  0.4376360000000  0.4996200000000  0.4673970000000 1.0
C      1  0.5440230000000  0.5498710000000  0.4073630000000 1.0
C      1  0.3900640000000  0.4516600000000  0.4788010000000 1.0
C      1  0.5646920000000  0.4550440000000  0.5314680000000 1.0
C      1  0.5018080000000  0.4460080000000  0.5431520000000 1.0
C      1  0.4921130000000  0.4092800000000  0.4636180000000 1.0
C      1  0.4542220000000  0.6019900000000  0.5175920000000 1.0
C      1  0.4988690000000  0.5161410000000  0.4849980000000 1.0
C      1  0.4731030000000  0.5377720000000  0.4502990000000 1.0
C      1  0.4994150000000  0.4883050000000  0.4820650000000 1.0
C      1  0.4586860000000  0.4903380000000  0.4541930000000 1.0
C      1  0.4720300000000  0.5349970000000  0.5868550000000 1.0
C      1  0.5501130000000  0.4051450000000  0.5287430000000 1.0
C      1  0.4715680000000  0.4432280000000  0.3975470000000 1.0
C      1  0.5096270000000  0.4796990000000  0.3907500000000 1.0
C      1  0.4998550000000  0.6033340000000  0.4480440000000 1.0
C      1  0.4198170000000  0.5600680000000  0.5130720000000 1.0
C      1  0.4999240000000  0.6155760000000  0.4954250000000 1.0
C      1  0.5998560000000  0.4643900000000  0.4687780000000 1.0
C      1  0.4450910000000  0.4325360000000  0.4579480000000 1.0
C      1  0.5381780000000  0.5082960000000  0.6152440000000 1.0
C      1  0.5428010000000  0.6047750000000  0.4731860000000 1.0
C      1  0.4600220000000  0.6041450000000  0.5447440000000 1.0
C      1  0.5464370000000  0.4827800000000  0.4964210000000 1.0
C      1  0.5136500000000  0.4194440000000  0.4198830000000 1.0
C      1  0.5218470000000  0.5411960000000  0.5876000000000 1.0
C      1  0.5459540000000  0.5346600000000  0.6254730000000 1.0
C      1  0.3971360000000  0.4031510000000  0.5548330000000 1.0
C      1  0.4516440000000  0.5205980000000  0.5769450000000 1.0
C      1  0.5543340000000  0.5766670000000  0.5937220000000 1.0
C      1  0.4889770000000  0.4349280000000  0.4763470000000 1.0
C      1  0.4914820000000  0.4265240000000  0.4042710000000 1.0
C      1  0.3997570000000  0.4453490000000  0.5308810000000 1.0
C      1  0.4953790000000  0.5503270000000  0.5827840000000 1.0
C      1  0.5252250000000  0.4851540000000  0.6248680000000 1.0
C      1  0.6072070000000  0.4615810000000  0.4958670000000 1.0
C      1  0.4382750000000  0.4743660000000  0.4175410000000 1.0
C      1  0.4746660000000  0.4071530000000  0.5264870000000 1.0
C      1  0.4816000000000  0.3896230000000  0.5051400000000 1.0
C      1  0.6300130000000  0.5216720000000  0.5150550000000 1.0
C      1  0.6692640000000  0.5493130000000  0.5374470000000 1.0
C      1  0.6000090000000  0.4834730000000  0.5130720000000 1.0
C      1  0.4776970000000  0.5013830000000  0.5282580000000 1.0
C      1  0.4110640000000  0.4268760000000  0.5495980000000 1.0
C      1  0.5449310000000  0.5115030000000  0.4986160000000 1.0
C      1  0.5700570000000  0.4693490000000  0.4295970000000 1.0
C      1  0.5792320000000  0.5732170000000  0.4971390000000 1.0
C      1  0.6877650000000  0.5636360000000  0.5489450000000 1.0
C      1  0.5864560000000  0.4808650000000  0.4502450000000 1.0
C      1  0.4833530000000  0.4908280000000  0.3961400000000 1.0
C      1  0.5204960000000  0.4777870000000  0.3658880000000 1.0
END
