TITL C-627112-676-1015 -1259.50956433213 125000 -867.909195626318 0 0 142 (C1) n - 1
REM
REM in /home/nfs/bkarasulu/CARBON/AIRSS/Generating-Clusters/LCBOP/Only-C1/SD-CG/FIRE-CG
REM
REM
REM
REM
REM
REM ./C.cell (11c1c37f851c82e70ff6c80c92926a4b)
REM AIRSS Version 0.9.1 bugfix July 2018 build 013d7b7c2542+ Fri, 06 Jul 2018 19:26:36 +0100
REM compiler GCC version 9.2.1 20190827 (Red Hat 9.2.1-1)
REM options -cpp -mtune=generic -march=x86-64 -g -O0 -fpre-include=/usr/include/finclude/math-vector-fortran.h
REM seed 315530254 1463691161 1548912098 -908007997 -1667344443 461938087 -771615528 -542487403 370283670 824597865 399950699 576149137 83308116 1652803601 -1312390503 -324548398 1802494932 -1551734637 400344158 -965247497 1287906709 -1531734561 1647004285 -1538120710 1347799084 -1407525277 -213688189 -780421058 1074252836 2055831399 1884343506 -2084925925 1428022999
REM
CELL 1.54180   50.00000   50.00000   50.00000   90.00000   90.00000   90.00000
LATT -1
SFAC C  
C      1  0.4261080000000  0.5629650000000  0.5742510000000 1.0
C      1  0.4417110000000  0.4332850000000  0.4334710000000 1.0
C      1  0.5357830000000  0.5792040000000  0.5495610000000 1.0
C      1  0.4076310000000  0.5339090000000  0.5124340000000 1.0
C      1  0.5180930000000  0.5587000000000  0.4557910000000 1.0
C      1  0.5357250000000  0.5463650000000  0.5891520000000 1.0
C      1  0.5615420000000  0.5653570000000  0.4792560000000 1.0
C      1  0.6091130000000  0.4690260000000  0.5293840000000 1.0
C      1  0.4383090000000  0.5214890000000  0.5501400000000 1.0
C      1  0.5177460000000  0.3901340000000  0.5414620000000 1.0
C      1  0.4955680000000  0.5817140000000  0.5810560000000 1.0
C      1  0.5877340000000  0.5232060000000  0.4781490000000 1.0
C      1  0.4400840000000  0.4670600000000  0.5557580000000 1.0
C      1  0.4710950000000  0.3969890000000  0.5202720000000 1.0
C      1  0.4595190000000  0.4255030000000  0.5612180000000 1.0
C      1  0.4648730000000  0.4816240000000  0.4661460000000 1.0
C      1  0.3874820000000  0.4609660000000  0.5470520000000 1.0
C      1  0.4567630000000  0.4782770000000  0.4948600000000 1.0
C      1  0.6154170000000  0.4931550000000  0.5147380000000 1.0
C      1  0.4942950000000  0.4847050000000  0.6047350000000 1.0
C      1  0.4567410000000  0.5898460000000  0.5246330000000 1.0
C      1  0.5894730000000  0.4435040000000  0.4875950000000 1.0
C      1  0.4853950000000  0.5133880000000  0.3863760000000 1.0
C      1  0.5261430000000  0.4342540000000  0.5598620000000 1.0
C      1  0.4125010000000  0.5612060000000  0.5220980000000 1.0
C      1  0.6009540000000  0.5203680000000  0.5511970000000 1.0
C      1  0.4129130000000  0.4639430000000  0.5518920000000 1.0
C      1  0.4810320000000  0.5372300000000  0.6057330000000 1.0
C      1  0.4865810000000  0.4700240000000  0.4515860000000 1.0
C      1  0.4061330000000  0.5586830000000  0.4696700000000 1.0
C      1  0.4695450000000  0.5553940000000  0.5520620000000 1.0
C      1  0.5458060000000  0.5076790000000  0.5145100000000 1.0
C      1  0.5764830000000  0.5596340000000  0.5689380000000 1.0
C      1  0.5418930000000  0.4723520000000  0.4088210000000 1.0
C      1  0.5248170000000  0.5149060000000  0.4720380000000 1.0
C      1  0.4611880000000  0.5062310000000  0.5598850000000 1.0
C      1  0.4582610000000  0.5279740000000  0.4946800000000 1.0
C      1  0.4293550000000  0.4579870000000  0.4319480000000 1.0
C      1  0.4262770000000  0.5147220000000  0.5245060000000 1.0
C      1  0.5661450000000  0.4476950000000  0.4432250000000 1.0
C      1  0.5197500000000  0.5103360000000  0.4439840000000 1.0
C      1  0.4863010000000  0.5126710000000  0.5470690000000 1.0
C      1  0.5419910000000  0.4354750000000  0.4512840000000 1.0
C      1  0.5485820000000  0.5643630000000  0.5717800000000 1.0
C      1  0.4587890000000  0.4023740000000  0.5452550000000 1.0
C      1  0.4620030000000  0.4514980000000  0.5425390000000 1.0
C      1  0.4659180000000  0.5927710000000  0.4457860000000 1.0
C      1  0.5458620000000  0.5103840000000  0.5425490000000 1.0
C      1  0.4972430000000  0.3844960000000  0.5202710000000 1.0
C      1  0.4336870000000  0.5771970000000  0.5097700000000 1.0
C      1  0.5709830000000  0.4142910000000  0.5214500000000 1.0
C      1  0.4916550000000  0.3816470000000  0.4680450000000 1.0
C      1  0.4558910000000  0.5044150000000  0.4528920000000 1.0
C      1  0.4696810000000  0.6214240000000  0.4842780000000 1.0
C      1  0.5592670000000  0.5018080000000  0.5640730000000 1.0
C      1  0.4148400000000  0.4823310000000  0.4239590000000 1.0
C      1  0.3499140000000  0.4670640000000  0.3407640000000 1.0
C      1  0.5186900000000  0.4701290000000  0.6092990000000 1.0
C      1  0.5552370000000  0.3977330000000  0.5043490000000 1.0
C      1  0.4859830000000  0.5268150000000  0.4909690000000 1.0
C      1  0.5099780000000  0.5484330000000  0.5199400000000 1.0
C      1  0.4915160000000  0.5399490000000  0.5420800000000 1.0
C      1  0.5789070000000  0.5469250000000  0.4935370000000 1.0
C      1  0.4951170000000  0.4419910000000  0.5093340000000 1.0
C      1  0.4709430000000  0.4695050000000  0.5941930000000 1.0
C      1  0.4831690000000  0.5784380000000  0.4280620000000 1.0
C      1  0.5870740000000  0.5455880000000  0.5467670000000 1.0
C      1  0.5638820000000  0.4502320000000  0.5897150000000 1.0
C      1  0.4849290000000  0.5631970000000  0.5979770000000 1.0
C      1  0.5064800000000  0.5880770000000  0.5548410000000 1.0
C      1  0.5753690000000  0.5553340000000  0.5219870000000 1.0
C      1  0.5139910000000  0.4784910000000  0.4093220000000 1.0
C      1  0.4722230000000  0.5548930000000  0.4135350000000 1.0
C      1  0.3679860000000  0.4718570000000  0.3589330000000 1.0
C      1  0.5346690000000  0.4562350000000  0.5413420000000 1.0
C      1  0.5771890000000  0.5185910000000  0.4507300000000 1.0
C      1  0.4562920000000  0.4100480000000  0.4376560000000 1.0
C      1  0.5240840000000  0.5240240000000  0.5983720000000 1.0
C      1  0.4042530000000  0.5571920000000  0.4408990000000 1.0
C      1  0.4646880000000  0.4113940000000  0.4955400000000 1.0
C      1  0.5526740000000  0.5773940000000  0.5240390000000 1.0
C      1  0.5640480000000  0.4711060000000  0.4269890000000 1.0
C      1  0.5180150000000  0.4287060000000  0.4964100000000 1.0
C      1  0.5370270000000  0.4086450000000  0.5541140000000 1.0
C      1  0.4995790000000  0.4961560000000  0.5289470000000 1.0
C      1  0.5126500000000  0.4908880000000  0.4828570000000 1.0
C      1  0.4938900000000  0.4445190000000  0.4612270000000 1.0
C      1  0.5311100000000  0.5285670000000  0.4994650000000 1.0
C      1  0.4453650000000  0.5040150000000  0.5054790000000 1.0
C      1  0.3998490000000  0.5328140000000  0.4836510000000 1.0
C      1  0.5078240000000  0.3830950000000  0.4925640000000 1.0
C      1  0.4758600000000  0.4352180000000  0.5851680000000 1.0
C      1  0.4734360000000  0.5967640000000  0.4730030000000 1.0
C      1  0.5933350000000  0.4682570000000  0.5538020000000 1.0
C      1  0.5655070000000  0.4153510000000  0.5493230000000 1.0
C      1  0.5226090000000  0.6041370000000  0.4539690000000 1.0
C      1  0.4978640000000  0.5139460000000  0.6042260000000 1.0
C      1  0.4865530000000  0.5899470000000  0.5319890000000 1.0
C      1  0.6218080000000  0.5139480000000  0.5331790000000 1.0
C      1  0.5575820000000  0.5367370000000  0.4398880000000 1.0
C      1  0.6036280000000  0.5030430000000  0.4908240000000 1.0
C      1  0.4004510000000  0.5109650000000  0.4645030000000 1.0
C      1  0.4738620000000  0.3916510000000  0.4490770000000 1.0
C      1  0.5877150000000  0.4442620000000  0.4609100000000 1.0
C      1  0.4882010000000  0.5756830000000  0.4856620000000 1.0
C      1  0.5352640000000  0.6050640000000  0.4786530000000 1.0
C      1  0.5496640000000  0.4803360000000  0.5037630000000 1.0
C      1  0.5227340000000  0.4444760000000  0.4714760000000 1.0
C      1  0.5868820000000  0.4964700000000  0.5619600000000 1.0
C      1  0.5345870000000  0.5265490000000  0.4255700000000 1.0
C      1  0.5745400000000  0.4403040000000  0.5110800000000 1.0
C      1  0.5108790000000  0.4731580000000  0.5392320000000 1.0
C      1  0.4317730000000  0.5675060000000  0.4816320000000 1.0
C      1  0.4544170000000  0.4831480000000  0.5749570000000 1.0
C      1  0.4741010000000  0.4271680000000  0.4746210000000 1.0
C      1  0.5467720000000  0.5561050000000  0.4574660000000 1.0
C      1  0.5778650000000  0.4445150000000  0.5652700000000 1.0
C      1  0.3856260000000  0.4763420000000  0.3782030000000 1.0
C      1  0.4913300000000  0.5380810000000  0.3992620000000 1.0
C      1  0.5290740000000  0.4024180000000  0.4945230000000 1.0
C      1  0.5781810000000  0.4938900000000  0.4366200000000 1.0
C      1  0.4961380000000  0.5022150000000  0.5020130000000 1.0
C      1  0.5191650000000  0.5397730000000  0.4059650000000 1.0
C      1  0.5099840000000  0.5816110000000  0.4399250000000 1.0
C      1  0.4905930000000  0.4589350000000  0.5519910000000 1.0
C      1  0.5050690000000  0.4864010000000  0.4355680000000 1.0
C      1  0.4186210000000  0.5365260000000  0.4258040000000 1.0
C      1  0.5313840000000  0.4707670000000  0.4835720000000 1.0
C      1  0.4488050000000  0.5456200000000  0.4748730000000 1.0
C      1  0.4674880000000  0.4561160000000  0.5123520000000 1.0
C      1  0.5430220000000  0.4598510000000  0.6038850000000 1.0
C      1  0.4013990000000  0.4798930000000  0.3991850000000 1.0
C      1  0.4545940000000  0.5320570000000  0.4506720000000 1.0
C      1  0.4109830000000  0.5086680000000  0.4369690000000 1.0
C      1  0.4979070000000  0.4893070000000  0.3886150000000 1.0
C      1  0.5495500000000  0.5865630000000  0.4954220000000 1.0
C      1  0.4970250000000  0.5500010000000  0.4743910000000 1.0
C      1  0.4479220000000  0.5423380000000  0.4250310000000 1.0
C      1  0.4995840000000  0.5745100000000  0.5113360000000 1.0
C      1  0.5008380000000  0.4394140000000  0.5713700000000 1.0
C      1  0.5556790000000  0.4594290000000  0.5216320000000 1.0
C      1  0.4428890000000  0.5483950000000  0.5586060000000 1.0
END
