TITL C-627107-135-1088 2409.47432742557 125000 -916.816531866172 0 0 152 (C1) n - 1
REM
REM in /home/nfs/bkarasulu/CARBON/AIRSS/Generating-Clusters/LCBOP/Only-C1/SD-CG/FIRE-CG
REM
REM
REM
REM
REM
REM ./C.cell (11c1c37f851c82e70ff6c80c92926a4b)
REM AIRSS Version 0.9.1 bugfix July 2018 build 013d7b7c2542+ Fri, 06 Jul 2018 19:26:36 +0100
REM compiler GCC version 9.2.1 20190827 (Red Hat 9.2.1-1)
REM options -cpp -mtune=generic -march=x86-64 -g -O0 -fpre-include=/usr/include/finclude/math-vector-fortran.h
REM seed -1329330552 -1952113346 -555224734 1932747245 -1127556707 -387911130 -2137306998 1380706229 -1356736707 58040199 -1770875321 1447670875 -268910724 1481480283 248824728 2133667631 -1359189765 92757127 -1758187745 -1205211271 -543075521 1277948760 1979813333 1422650585 -540662114 -1638300668 855681503 -1040235508 -19293436 -681197599 1829761991 602632462 229441622
REM
CELL 1.54180   50.00000   50.00000   50.00000   90.00000   90.00000   90.00000
LATT -1
SFAC C  
C      1  0.5947730000000  0.5567340000000  0.4756650000000 1.0
C      1  0.4829680000000  0.4528330000000  0.5826650000000 1.0
C      1  0.5041310000000  0.5527160000000  0.6003800000000 1.0
C      1  0.5054390000000  0.4338270000000  0.5821550000000 1.0
C      1  0.4849790000000  0.3819320000000  0.5058200000000 1.0
C      1  0.5023210000000  0.5953750000000  0.5415990000000 1.0
C      1  0.5159340000000  0.5149490000000  0.4287350000000 1.0
C      1  0.5654400000000  0.4981720000000  0.4021460000000 1.0
C      1  0.4676290000000  0.4930680000000  0.4845960000000 1.0
C      1  0.4675860000000  0.3626330000000  0.4965500000000 1.0
C      1  0.5989320000000  0.5039450000000  0.4665370000000 1.0
C      1  0.4671840000000  0.5061560000000  0.4241130000000 1.0
C      1  0.4994520000000  0.5909200000000  0.4753260000000 1.0
C      1  0.4492000000000  0.5955090000000  0.4508770000000 1.0
C      1  0.4867970000000  0.5671740000000  0.6156680000000 1.0
C      1  0.5729310000000  0.5579800000000  0.4944880000000 1.0
C      1  0.4480030000000  0.5891530000000  0.4797490000000 1.0
C      1  0.4966570000000  0.4356090000000  0.4781720000000 1.0
C      1  0.4706240000000  0.5453320000000  0.4821180000000 1.0
C      1  0.5339890000000  0.5142440000000  0.4709990000000 1.0
C      1  0.4491890000000  0.5395460000000  0.4682590000000 1.0
C      1  0.4021520000000  0.4940960000000  0.5806120000000 1.0
C      1  0.4925500000000  0.5815010000000  0.4257790000000 1.0
C      1  0.5816630000000  0.5463210000000  0.4511600000000 1.0
C      1  0.5291370000000  0.5463300000000  0.5264000000000 1.0
C      1  0.4078440000000  0.5475270000000  0.4481870000000 1.0
C      1  0.5243810000000  0.4718320000000  0.4886680000000 1.0
C      1  0.5106160000000  0.3839630000000  0.4921640000000 1.0
C      1  0.4417620000000  0.4960360000000  0.4965000000000 1.0
C      1  0.5307540000000  0.5686650000000  0.5093560000000 1.0
C      1  0.4676280000000  0.5650900000000  0.5329170000000 1.0
C      1  0.5539620000000  0.4381540000000  0.4275050000000 1.0
C      1  0.6434780000000  0.5527130000000  0.4908740000000 1.0
C      1  0.4355690000000  0.5467290000000  0.4450800000000 1.0
C      1  0.5899840000000  0.5204980000000  0.5658840000000 1.0
C      1  0.6047770000000  0.5352940000000  0.5194740000000 1.0
C      1  0.4980850000000  0.5457050000000  0.4841550000000 1.0
C      1  0.4672460000000  0.4742210000000  0.4632280000000 1.0
C      1  0.5192670000000  0.5108610000000  0.5567470000000 1.0
C      1  0.4847750000000  0.4771970000000  0.5969210000000 1.0
C      1  0.4334080000000  0.5156110000000  0.6193360000000 1.0
C      1  0.4166740000000  0.5021410000000  0.6013240000000 1.0
C      1  0.5371040000000  0.4381960000000  0.4507050000000 1.0
C      1  0.4953430000000  0.4164480000000  0.4558470000000 1.0
C      1  0.5213880000000  0.4377860000000  0.5337100000000 1.0
C      1  0.5831970000000  0.5089630000000  0.4191810000000 1.0
C      1  0.5905740000000  0.4725500000000  0.5596990000000 1.0
C      1  0.5910200000000  0.5198670000000  0.4440540000000 1.0
C      1  0.5862570000000  0.4766040000000  0.5073170000000 1.0
C      1  0.3852160000000  0.4915320000000  0.5068630000000 1.0
C      1  0.3825170000000  0.5051740000000  0.5325460000000 1.0
C      1  0.4406750000000  0.5704590000000  0.5356890000000 1.0
C      1  0.4175840000000  0.5668800000000  0.5207170000000 1.0
C      1  0.4193560000000  0.5722590000000  0.4918610000000 1.0
C      1  0.5832320000000  0.5054760000000  0.4925480000000 1.0
C      1  0.6051110000000  0.5154300000000  0.5408330000000 1.0
C      1  0.5641900000000  0.6041940000000  0.5072900000000 1.0
C      1  0.4935620000000  0.4377920000000  0.5065830000000 1.0
C      1  0.5235150000000  0.5648480000000  0.5819680000000 1.0
C      1  0.5498360000000  0.4535730000000  0.4049850000000 1.0
C      1  0.4471230000000  0.4929130000000  0.5258110000000 1.0
C      1  0.5485370000000  0.4783570000000  0.5377470000000 1.0
C      1  0.4001150000000  0.5039040000000  0.4629420000000 1.0
C      1  0.3780090000000  0.5388570000000  0.4860300000000 1.0
C      1  0.5757290000000  0.5308820000000  0.5083180000000 1.0
C      1  0.5597190000000  0.3886260000000  0.5003220000000 1.0
C      1  0.4367990000000  0.4311650000000  0.4747390000000 1.0
C      1  0.4653560000000  0.4459970000000  0.5121470000000 1.0
C      1  0.5708330000000  0.4274930000000  0.5469390000000 1.0
C      1  0.5457330000000  0.5453290000000  0.5795900000000 1.0
C      1  0.4778900000000  0.5387090000000  0.5383700000000 1.0
C      1  0.5544910000000  0.4974560000000  0.5901400000000 1.0
C      1  0.5067790000000  0.4224050000000  0.5552700000000 1.0
C      1  0.4757810000000  0.3980230000000  0.5279950000000 1.0
C      1  0.4673800000000  0.5323240000000  0.4115540000000 1.0
C      1  0.5316660000000  0.5169560000000  0.5840830000000 1.0
C      1  0.4645570000000  0.5797360000000  0.4314700000000 1.0
C      1  0.5114480000000  0.5148350000000  0.3998140000000 1.0
C      1  0.5515230000000  0.5281190000000  0.5249260000000 1.0
C      1  0.4931470000000  0.4739210000000  0.4505230000000 1.0
C      1  0.5270140000000  0.4640480000000  0.5503190000000 1.0
C      1  0.5151570000000  0.3972100000000  0.4663040000000 1.0
C      1  0.3978710000000  0.5527960000000  0.5353880000000 1.0
C      1  0.4611450000000  0.5139290000000  0.6159210000000 1.0
C      1  0.4751190000000  0.5944770000000  0.4932790000000 1.0
C      1  0.3992210000000  0.5568750000000  0.4747400000000 1.0
C      1  0.3962280000000  0.4644210000000  0.4996430000000 1.0
C      1  0.4145570000000  0.4476390000000  0.5152300000000 1.0
C      1  0.5119580000000  0.5690560000000  0.4891620000000 1.0
C      1  0.5066850000000  0.5234880000000  0.6007760000000 1.0
C      1  0.5352190000000  0.3776770000000  0.5053510000000 1.0
C      1  0.5064200000000  0.5342600000000  0.5411680000000 1.0
C      1  0.4909300000000  0.4793210000000  0.5319720000000 1.0
C      1  0.3970660000000  0.4562810000000  0.4713640000000 1.0
C      1  0.5754040000000  0.4208460000000  0.4264920000000 1.0
C      1  0.6105180000000  0.4768660000000  0.4660740000000 1.0
C      1  0.5734080000000  0.5429710000000  0.5727810000000 1.0
C      1  0.4228100000000  0.5302360000000  0.6398610000000 1.0
C      1  0.4793570000000  0.4513010000000  0.3831150000000 1.0
C      1  0.5371000000000  0.5753340000000  0.4450690000000 1.0
C      1  0.4782940000000  0.4186150000000  0.5476740000000 1.0
C      1  0.4529780000000  0.5540830000000  0.4243880000000 1.0
C      1  0.5010700000000  0.5649500000000  0.4034350000000 1.0
C      1  0.5359190000000  0.5263830000000  0.4454290000000 1.0
C      1  0.6028340000000  0.4318740000000  0.5830310000000 1.0
C      1  0.4394780000000  0.4382850000000  0.5022440000000 1.0
C      1  0.5646210000000  0.4725810000000  0.4656550000000 1.0
C      1  0.5103840000000  0.5873980000000  0.4476170000000 1.0
C      1  0.5519600000000  0.4346170000000  0.5258550000000 1.0
C      1  0.5451960000000  0.5055720000000  0.5394970000000 1.0
C      1  0.4820640000000  0.5876750000000  0.5224270000000 1.0
C      1  0.4352120000000  0.6174460000000  0.4418250000000 1.0
C      1  0.5097100000000  0.5211110000000  0.4838820000000 1.0
C      1  0.4932070000000  0.4986960000000  0.4366200000000 1.0
C      1  0.5447340000000  0.4795830000000  0.3968670000000 1.0
C      1  0.4636390000000  0.4669290000000  0.5342430000000 1.0
C      1  0.5620680000000  0.4622230000000  0.5189120000000 1.0
C      1  0.4252600000000  0.4942840000000  0.4716880000000 1.0
C      1  0.5157950000000  0.5850850000000  0.5631690000000 1.0
C      1  0.4666610000000  0.4462310000000  0.5582480000000 1.0
C      1  0.4584150000000  0.5171990000000  0.5380110000000 1.0
C      1  0.5439730000000  0.4883850000000  0.4763840000000 1.0
C      1  0.6007970000000  0.4857900000000  0.5343690000000 1.0
C      1  0.4225900000000  0.4498300000000  0.4583890000000 1.0
C      1  0.3969280000000  0.5220970000000  0.4415640000000 1.0
C      1  0.3832640000000  0.5100480000000  0.4843680000000 1.0
C      1  0.5141860000000  0.4567180000000  0.4647680000000 1.0
C      1  0.4950410000000  0.4311370000000  0.4281070000000 1.0
C      1  0.3625680000000  0.5434280000000  0.5091730000000 1.0
C      1  0.3898630000000  0.4939530000000  0.5570550000000 1.0
C      1  0.5637190000000  0.4096990000000  0.4816320000000 1.0
C      1  0.5881110000000  0.4439760000000  0.5632510000000 1.0
C      1  0.4970100000000  0.4560180000000  0.4028140000000 1.0
C      1  0.4923250000000  0.5015830000000  0.4927920000000 1.0
C      1  0.5404270000000  0.4129930000000  0.4649780000000 1.0
C      1  0.5564760000000  0.5783860000000  0.5037620000000 1.0
C      1  0.6169530000000  0.5486550000000  0.4949340000000 1.0
C      1  0.5169270000000  0.4857090000000  0.3945380000000 1.0
C      1  0.5840700000000  0.4301510000000  0.4819340000000 1.0
C      1  0.5891720000000  0.4597900000000  0.4799810000000 1.0
C      1  0.4443670000000  0.4882050000000  0.4248430000000 1.0
C      1  0.5217530000000  0.4275830000000  0.6029790000000 1.0
C      1  0.5068520000000  0.4839150000000  0.5543240000000 1.0
C      1  0.5798990000000  0.4945750000000  0.5766020000000 1.0
C      1  0.4926970000000  0.5378910000000  0.3977050000000 1.0
C      1  0.5051360000000  0.4817670000000  0.5074590000000 1.0
C      1  0.4285670000000  0.4833980000000  0.4030550000000 1.0
C      1  0.4391020000000  0.4745320000000  0.4514020000000 1.0
C      1  0.4853590000000  0.5045040000000  0.6051690000000 1.0
C      1  0.4074920000000  0.4384340000000  0.5400920000000 1.0
C      1  0.5524180000000  0.5507650000000  0.4449330000000 1.0
C      1  0.3771100000000  0.5339070000000  0.5319050000000 1.0
END
