TITL C-627107-135-597 3.15344295038042e-08 125000 -356.896506559985 0 0 59 (C1) n - 1
REM
REM in /home/nfs/bkarasulu/CARBON/AIRSS/Generating-Clusters/LCBOP/Only-C1/SD-CG/FIRE-CG
REM
REM
REM
REM
REM
REM ./C.cell (11c1c37f851c82e70ff6c80c92926a4b)
REM AIRSS Version 0.9.1 bugfix July 2018 build 013d7b7c2542+ Fri, 06 Jul 2018 19:26:36 +0100
REM compiler GCC version 9.2.1 20190827 (Red Hat 9.2.1-1)
REM options -cpp -mtune=generic -march=x86-64 -g -O0 -fpre-include=/usr/include/finclude/math-vector-fortran.h
REM seed -267657201 -533127305 -1464149093 -225370523 -245618113 -1320276553 -494047103 -223903274 1274094140 -1684935646 -1004635294 -1203922603 1715219008 -1545692919 865404764 983668502 -1367864549 1581442062 2088315996 -1803546290 -1906476931 -584495587 2016137040 -1952956176 194609173 1063368820 -2084132898 -2073570156 -65003542 -874521300 574104969 -557421131 -242730149
REM
CELL 1.54180   50.00000   50.00000   50.00000   90.00000   90.00000   90.00000
LATT -1
SFAC C  
C      1  0.5401850000000  0.5375880000000  0.4536640000000 1.0
C      1  0.4662250000000  0.5681490000000  0.4842800000000 1.0
C      1  0.5615090000000  0.5159340000000  0.4984760000000 1.0
C      1  0.4431700000000  0.5513810000000  0.4893540000000 1.0
C      1  0.4775430000000  0.5372830000000  0.4487790000000 1.0
C      1  0.5321750000000  0.5133210000000  0.4449370000000 1.0
C      1  0.5095700000000  0.4974720000000  0.4500530000000 1.0
C      1  0.4812710000000  0.5628610000000  0.4605510000000 1.0
C      1  0.4821660000000  0.4615080000000  0.5532830000000 1.0
C      1  0.5052990000000  0.4537350000000  0.4335360000000 1.0
C      1  0.5078100000000  0.5726330000000  0.4593460000000 1.0
C      1  0.4043260000000  0.5205910000000  0.4827470000000 1.0
C      1  0.4815490000000  0.4477720000000  0.4206660000000 1.0
C      1  0.5300540000000  0.5584880000000  0.4699180000000 1.0
C      1  0.4791030000000  0.5271410000000  0.5535640000000 1.0
C      1  0.5139420000000  0.5021350000000  0.5285420000000 1.0
C      1  0.4191660000000  0.5428190000000  0.4766110000000 1.0
C      1  0.4931520000000  0.4761640000000  0.4891790000000 1.0
C      1  0.4813590000000  0.5749120000000  0.5082170000000 1.0
C      1  0.5858260000000  0.5026910000000  0.5082030000000 1.0
C      1  0.4388550000000  0.4785290000000  0.5318220000000 1.0
C      1  0.5191360000000  0.4876170000000  0.5044290000000 1.0
C      1  0.4856900000000  0.5121040000000  0.4578570000000 1.0
C      1  0.5636760000000  0.4703970000000  0.4857710000000 1.0
C      1  0.4035490000000  0.5009610000000  0.5019070000000 1.0
C      1  0.5337580000000  0.5126360000000  0.5459240000000 1.0
C      1  0.5820230000000  0.4736460000000  0.5087330000000 1.0
C      1  0.4854310000000  0.4454300000000  0.5295750000000 1.0
C      1  0.4199300000000  0.4994150000000  0.5255820000000 1.0
C      1  0.4783350000000  0.5023090000000  0.4836040000000 1.0
C      1  0.5174020000000  0.4112430000000  0.5116560000000 1.0
C      1  0.5270900000000  0.4218700000000  0.4890850000000 1.0
C      1  0.4892550000000  0.5152740000000  0.5292090000000 1.0
C      1  0.5232870000000  0.4437900000000  0.4744350000000 1.0
C      1  0.4308780000000  0.5253300000000  0.5298460000000 1.0
C      1  0.4592170000000  0.4803190000000  0.5538380000000 1.0
C      1  0.5508700000000  0.5392620000000  0.5108970000000 1.0
C      1  0.4992140000000  0.4211590000000  0.5286620000000 1.0
C      1  0.4757040000000  0.4578150000000  0.5057590000000 1.0
C      1  0.5443200000000  0.4922030000000  0.4914060000000 1.0
C      1  0.5669490000000  0.4593700000000  0.4601490000000 1.0
C      1  0.5320660000000  0.5574700000000  0.4985610000000 1.0
C      1  0.4480990000000  0.4638720000000  0.5089370000000 1.0
C      1  0.5561820000000  0.4577500000000  0.5522340000000 1.0
C      1  0.5558760000000  0.4522700000000  0.4365980000000 1.0
C      1  0.4725080000000  0.5174560000000  0.5066800000000 1.0
C      1  0.5069040000000  0.4668080000000  0.4614960000000 1.0
C      1  0.4834540000000  0.5555350000000  0.5529190000000 1.0
C      1  0.5102070000000  0.5636010000000  0.5437760000000 1.0
C      1  0.4585900000000  0.4429310000000  0.4093280000000 1.0
C      1  0.5320000000000  0.4489710000000  0.4241370000000 1.0
C      1  0.5061850000000  0.4629670000000  0.5683880000000 1.0
C      1  0.5746960000000  0.4610980000000  0.5329860000000 1.0
C      1  0.4675350000000  0.5718590000000  0.5344360000000 1.0
C      1  0.5487200000000  0.5342440000000  0.5389220000000 1.0
C      1  0.4640240000000  0.5062440000000  0.5662070000000 1.0
C      1  0.4495160000000  0.5333270000000  0.5103560000000 1.0
C      1  0.5328160000000  0.4596420000000  0.5654120000000 1.0
C      1  0.5106550000000  0.5686960000000  0.5145770000000 1.0
END
