TITL C-627109-622-100 8608.99139134356 125000 -896.452707180832 0 0 150 (C1) n - 1
REM
REM in /home/nfs/bkarasulu/CARBON/AIRSS/Generating-Clusters/LCBOP/Only-C1/SD-CG/FIRE-CG
REM
REM
REM
REM
REM
REM ./C.cell (11c1c37f851c82e70ff6c80c92926a4b)
REM AIRSS Version 0.9.1 bugfix July 2018 build 013d7b7c2542+ Fri, 06 Jul 2018 19:26:36 +0100
REM compiler GCC version 9.2.1 20190827 (Red Hat 9.2.1-1)
REM options -cpp -mtune=generic -march=x86-64 -g -O0 -fpre-include=/usr/include/finclude/math-vector-fortran.h
REM seed 679982506 -1732711883 -444851873 924838942 -1064756808 -733729965 551533459 -653107085 -2139727783 -1303214386 -1284012952 -532116873 450686625 566773372 -1766928214 652911105 -1760633555 -847626854 -119845193 643144597 63188531 -1815214306 466919379 756192387 1410016772 -1854405063 424315718 -1463895418 367519630 401355639 -460331058 1930565318 269249249
REM
CELL 1.54180   50.00000   50.00000   50.00000   90.00000   90.00000   90.00000
LATT -1
SFAC C  
C      1  0.6063390000000  0.5100740000000  0.4825040000000 1.0
C      1  0.5290400000000  0.3925440000000  0.5004280000000 1.0
C      1  0.4617270000000  0.4414770000000  0.5013180000000 1.0
C      1  0.5646210000000  0.3964320000000  0.4489980000000 1.0
C      1  0.4494210000000  0.5460500000000  0.5614050000000 1.0
C      1  0.4738800000000  0.4512760000000  0.5750860000000 1.0
C      1  0.4503040000000  0.6221810000000  0.4885800000000 1.0
C      1  0.5532830000000  0.4643080000000  0.4923960000000 1.0
C      1  0.3816980000000  0.5114990000000  0.4863880000000 1.0
C      1  0.5487090000000  0.4684850000000  0.5200850000000 1.0
C      1  0.4246080000000  0.5443800000000  0.5752180000000 1.0
C      1  0.4408770000000  0.4975170000000  0.4915010000000 1.0
C      1  0.5077140000000  0.3791900000000  0.4869100000000 1.0
C      1  0.4660890000000  0.4688030000000  0.5955690000000 1.0
C      1  0.5303550000000  0.6056630000000  0.4968250000000 1.0
C      1  0.4260840000000  0.4940560000000  0.5702180000000 1.0
C      1  0.3881680000000  0.4882610000000  0.4739240000000 1.0
C      1  0.6082550000000  0.4464180000000  0.4482920000000 1.0
C      1  0.4734380000000  0.4065520000000  0.5310970000000 1.0
C      1  0.4802390000000  0.4405470000000  0.4098290000000 1.0
C      1  0.3865310000000  0.5388560000000  0.4799300000000 1.0
C      1  0.5941700000000  0.4222900000000  0.5118340000000 1.0
C      1  0.5970300000000  0.5171490000000  0.4580520000000 1.0
C      1  0.5706970000000  0.5533130000000  0.4727680000000 1.0
C      1  0.4983030000000  0.5405640000000  0.5578950000000 1.0
C      1  0.6269340000000  0.4043190000000  0.4359670000000 1.0
C      1  0.4350890000000  0.4817230000000  0.4678580000000 1.0
C      1  0.4833590000000  0.3957740000000  0.5548890000000 1.0
C      1  0.4736350000000  0.5639960000000  0.4753300000000 1.0
C      1  0.5507930000000  0.4385220000000  0.4826160000000 1.0
C      1  0.5326220000000  0.5127720000000  0.5995050000000 1.0
C      1  0.5842650000000  0.5366590000000  0.5197200000000 1.0
C      1  0.5957890000000  0.3756340000000  0.5006830000000 1.0
C      1  0.4538510000000  0.4336100000000  0.4185930000000 1.0
C      1  0.4723450000000  0.4453110000000  0.4731340000000 1.0
C      1  0.5135090000000  0.5011160000000  0.5534180000000 1.0
C      1  0.5261450000000  0.4871810000000  0.3829070000000 1.0
C      1  0.4098350000000  0.5561240000000  0.4907420000000 1.0
C      1  0.5413040000000  0.3953740000000  0.4352860000000 1.0
C      1  0.5405160000000  0.4145320000000  0.4875380000000 1.0
C      1  0.4518920000000  0.5583640000000  0.5358900000000 1.0
C      1  0.4099040000000  0.5601870000000  0.4464350000000 1.0
C      1  0.4736980000000  0.5372550000000  0.5733890000000 1.0
C      1  0.5158810000000  0.6139190000000  0.5193780000000 1.0
C      1  0.4800740000000  0.4631340000000  0.5517720000000 1.0
C      1  0.4116610000000  0.5659220000000  0.5857710000000 1.0
C      1  0.4775000000000  0.5342700000000  0.6016340000000 1.0
C      1  0.5180590000000  0.4042440000000  0.4241760000000 1.0
C      1  0.5921880000000  0.4015790000000  0.4921350000000 1.0
C      1  0.5253520000000  0.4646040000000  0.5818590000000 1.0
C      1  0.4975010000000  0.5529840000000  0.6108150000000 1.0
C      1  0.4814350000000  0.5724190000000  0.5003520000000 1.0
C      1  0.4648460000000  0.6031950000000  0.5692520000000 1.0
C      1  0.5787950000000  0.5382730000000  0.5479530000000 1.0
C      1  0.4427620000000  0.6007390000000  0.5503720000000 1.0
C      1  0.6079050000000  0.4190480000000  0.4490600000000 1.0
C      1  0.5874690000000  0.4055660000000  0.4637640000000 1.0
C      1  0.5060120000000  0.4475170000000  0.5111250000000 1.0
C      1  0.5397660000000  0.5081280000000  0.5468980000000 1.0
C      1  0.5191140000000  0.5321360000000  0.4605010000000 1.0
C      1  0.5390390000000  0.4204420000000  0.5635880000000 1.0
C      1  0.5922360000000  0.4253920000000  0.5812870000000 1.0
C      1  0.5942250000000  0.4367500000000  0.5346860000000 1.0
C      1  0.5596420000000  0.5089890000000  0.5873760000000 1.0
C      1  0.5436950000000  0.5076660000000  0.3876340000000 1.0
C      1  0.4897120000000  0.6104710000000  0.5582340000000 1.0
C      1  0.5203210000000  0.5543910000000  0.5705270000000 1.0
C      1  0.5770260000000  0.4862780000000  0.5881710000000 1.0
C      1  0.4402050000000  0.4795900000000  0.5901440000000 1.0
C      1  0.4087820000000  0.4749740000000  0.4595860000000 1.0
C      1  0.5066260000000  0.3863000000000  0.5641070000000 1.0
C      1  0.4825050000000  0.4303040000000  0.5178890000000 1.0
C      1  0.6038050000000  0.5758360000000  0.5776530000000 1.0
C      1  0.4905470000000  0.5402900000000  0.4150000000000 1.0
C      1  0.4356520000000  0.5815750000000  0.5292790000000 1.0
C      1  0.4868300000000  0.4860030000000  0.6064340000000 1.0
C      1  0.5365570000000  0.3876790000000  0.5271560000000 1.0
C      1  0.4921240000000  0.4864490000000  0.5469560000000 1.0
C      1  0.5956030000000  0.4723060000000  0.5712820000000 1.0
C      1  0.5256430000000  0.5568830000000  0.4532540000000 1.0
C      1  0.4633590000000  0.5506810000000  0.4174710000000 1.0
C      1  0.4562840000000  0.5219240000000  0.3610670000000 1.0
C      1  0.5071520000000  0.4300520000000  0.4180500000000 1.0
C      1  0.5118730000000  0.5220100000000  0.4189840000000 1.0
C      1  0.5122450000000  0.5813570000000  0.4545720000000 1.0
C      1  0.4781320000000  0.4176140000000  0.4638790000000 1.0
C      1  0.5264000000000  0.5795830000000  0.5582360000000 1.0
C      1  0.4974240000000  0.5386730000000  0.5297560000000 1.0
C      1  0.5601310000000  0.5212520000000  0.5612420000000 1.0
C      1  0.5924140000000  0.5575610000000  0.5629800000000 1.0
C      1  0.4158900000000  0.5847820000000  0.4355180000000 1.0
C      1  0.4536800000000  0.5435180000000  0.4743340000000 1.0
C      1  0.5610710000000  0.5335150000000  0.4271300000000 1.0
C      1  0.5723990000000  0.5533800000000  0.4998550000000 1.0
C      1  0.3876760000000  0.5421520000000  0.4497480000000 1.0
C      1  0.5021930000000  0.4857610000000  0.4544460000000 1.0
C      1  0.4628810000000  0.5768760000000  0.4335240000000 1.0
C      1  0.5931500000000  0.4450810000000  0.5620470000000 1.0
C      1  0.5078310000000  0.5210100000000  0.5090710000000 1.0
C      1  0.5767920000000  0.5358970000000  0.4508570000000 1.0
C      1  0.4767240000000  0.5567740000000  0.5223930000000 1.0
C      1  0.5299400000000  0.4468740000000  0.5592680000000 1.0
C      1  0.4594310000000  0.4843950000000  0.3910310000000 1.0
C      1  0.4293270000000  0.4413170000000  0.4274240000000 1.0
C      1  0.4279520000000  0.5516180000000  0.4678040000000 1.0
C      1  0.5050130000000  0.4800150000000  0.4005630000000 1.0
C      1  0.4145410000000  0.5183990000000  0.5781560000000 1.0
C      1  0.5133620000000  0.6017620000000  0.5453210000000 1.0
C      1  0.4992740000000  0.4606640000000  0.4786810000000 1.0
C      1  0.6015400000000  0.5171620000000  0.5081890000000 1.0
C      1  0.4683970000000  0.5931100000000  0.5957710000000 1.0
C      1  0.5287050000000  0.4488040000000  0.4223030000000 1.0
C      1  0.5397520000000  0.5247270000000  0.4103130000000 1.0
C      1  0.4364550000000  0.5995190000000  0.4798140000000 1.0
C      1  0.5052700000000  0.4937480000000  0.4258580000000 1.0
C      1  0.4231910000000  0.5812490000000  0.5020770000000 1.0
C      1  0.4900530000000  0.3947880000000  0.4713170000000 1.0
C      1  0.5473550000000  0.4964800000000  0.5234490000000 1.0
C      1  0.4762080000000  0.5103840000000  0.6157160000000 1.0
C      1  0.5502710000000  0.4858830000000  0.4509850000000 1.0
C      1  0.4866970000000  0.5793700000000  0.6107080000000 1.0
C      1  0.5015370000000  0.5111940000000  0.4666600000000 1.0
C      1  0.4710610000000  0.6338220000000  0.5005870000000 1.0
C      1  0.4948150000000  0.6319990000000  0.5126770000000 1.0
C      1  0.5271340000000  0.4533570000000  0.5308430000000 1.0
C      1  0.3816950000000  0.4489510000000  0.4288270000000 1.0
C      1  0.4871060000000  0.5141370000000  0.4903390000000 1.0
C      1  0.4166450000000  0.5243740000000  0.4149640000000 1.0
C      1  0.4555530000000  0.4647430000000  0.4589590000000 1.0
C      1  0.6183380000000  0.4859780000000  0.5638020000000 1.0
C      1  0.4808700000000  0.4664040000000  0.3964930000000 1.0
C      1  0.4594300000000  0.5187690000000  0.4875970000000 1.0
C      1  0.5223880000000  0.5422680000000  0.5978630000000 1.0
C      1  0.5153750000000  0.4869840000000  0.5983980000000 1.0
C      1  0.4525300000000  0.3927150000000  0.5195180000000 1.0
C      1  0.4403840000000  0.4553150000000  0.5125520000000 1.0
C      1  0.4842750000000  0.5775250000000  0.4528090000000 1.0
C      1  0.5312460000000  0.3952310000000  0.5538180000000 1.0
C      1  0.5246530000000  0.6004240000000  0.4710720000000 1.0
C      1  0.3927670000000  0.5239000000000  0.4282890000000 1.0
C      1  0.5458970000000  0.4663560000000  0.4329750000000 1.0
C      1  0.4532390000000  0.5119410000000  0.3865410000000 1.0
C      1  0.5046450000000  0.3520960000000  0.4887520000000 1.0
C      1  0.5343100000000  0.5078900000000  0.5002890000000 1.0
C      1  0.5460880000000  0.4892540000000  0.4785670000000 1.0
C      1  0.4066360000000  0.4550380000000  0.4386500000000 1.0
C      1  0.4356570000000  0.4830290000000  0.5160190000000 1.0
C      1  0.4435320000000  0.5302720000000  0.4071970000000 1.0
C      1  0.4408110000000  0.5930660000000  0.4448580000000 1.0
C      1  0.4287890000000  0.4906580000000  0.5421690000000 1.0
END
