TITL C-627111-6168-2012 -1.05210867825868e-06 125000 -754.030387243035 0 0 123 (C1) n - 1
REM
REM in /home/nfs/bkarasulu/CARBON/AIRSS/Generating-Clusters/LCBOP/Only-C1/SD-CG/FIRE-CG
REM
REM
REM
REM
REM
REM ./C.cell (11c1c37f851c82e70ff6c80c92926a4b)
REM AIRSS Version 0.9.1 bugfix July 2018 build 013d7b7c2542+ Fri, 06 Jul 2018 19:26:36 +0100
REM compiler GCC version 9.2.1 20190827 (Red Hat 9.2.1-1)
REM options -cpp -mtune=generic -march=x86-64 -g -O0 -fpre-include=/usr/include/finclude/math-vector-fortran.h
REM seed 176445828 -330597515 369208711 1167605346 1251753677 -1703076272 941061057 1631145348 1786027720 -664136859 -1686257158 -1145160767 626496603 -39682764 1032493742 1000648301 -1402179113 -1170549112 -1430389871 119279725 -1197689799 59493317 -1122228810 -1503681232 -1358997640 -789274212 -1971582642 54016523 -2021788506 -1097409514 -760777915 -1902997779 1450569382
REM
CELL 1.54180   50.00000   50.00000   50.00000   90.00000   90.00000   90.00000
LATT -1
SFAC C  
C      1  0.6005970000000  0.4605560000000  0.4669020000000 1.0
C      1  0.5010040000000  0.4340230000000  0.5779890000000 1.0
C      1  0.4241150000000  0.5811510000000  0.4659430000000 1.0
C      1  0.5391760000000  0.4877470000000  0.4704600000000 1.0
C      1  0.6104360000000  0.4846470000000  0.4779910000000 1.0
C      1  0.5696950000000  0.5208670000000  0.4868120000000 1.0
C      1  0.4766850000000  0.5344850000000  0.4351460000000 1.0
C      1  0.4460880000000  0.4705310000000  0.5061510000000 1.0
C      1  0.5307140000000  0.4438850000000  0.5184150000000 1.0
C      1  0.5042280000000  0.5074980000000  0.6219080000000 1.0
C      1  0.5777870000000  0.5352520000000  0.4374450000000 1.0
C      1  0.5206110000000  0.5289910000000  0.4613540000000 1.0
C      1  0.5743970000000  0.5418200000000  0.5443830000000 1.0
C      1  0.4690980000000  0.5233230000000  0.5532090000000 1.0
C      1  0.4983370000000  0.5719740000000  0.4815200000000 1.0
C      1  0.5577460000000  0.4756420000000  0.4509430000000 1.0
C      1  0.4497550000000  0.5153280000000  0.4892470000000 1.0
C      1  0.4825100000000  0.4383740000000  0.4576260000000 1.0
C      1  0.3924320000000  0.4705340000000  0.5332790000000 1.0
C      1  0.3795710000000  0.5022360000000  0.4883650000000 1.0
C      1  0.5652400000000  0.5881880000000  0.5029790000000 1.0
C      1  0.4555310000000  0.6006150000000  0.4911470000000 1.0
C      1  0.3959920000000  0.5242720000000  0.4780500000000 1.0
C      1  0.4886360000000  0.4582510000000  0.5684610000000 1.0
C      1  0.5066360000000  0.4738210000000  0.5527340000000 1.0
C      1  0.5152860000000  0.5803860000000  0.4271180000000 1.0
C      1  0.4892260000000  0.5031680000000  0.5109310000000 1.0
C      1  0.4972040000000  0.4751350000000  0.5033300000000 1.0
C      1  0.4346780000000  0.4474070000000  0.5616250000000 1.0
C      1  0.5588840000000  0.4998250000000  0.5568830000000 1.0
C      1  0.5507920000000  0.4933390000000  0.6038250000000 1.0
C      1  0.4728090000000  0.4356750000000  0.4838270000000 1.0
C      1  0.4670480000000  0.5280760000000  0.4084950000000 1.0
C      1  0.5862990000000  0.5261220000000  0.4633210000000 1.0
C      1  0.4173010000000  0.5194130000000  0.4263550000000 1.0
C      1  0.4241780000000  0.5114660000000  0.5312780000000 1.0
C      1  0.4880620000000  0.4091690000000  0.5714840000000 1.0
C      1  0.3573720000000  0.4955230000000  0.4733560000000 1.0
C      1  0.5377000000000  0.4160190000000  0.6047970000000 1.0
C      1  0.4032640000000  0.5021160000000  0.5755400000000 1.0
C      1  0.5350700000000  0.4454710000000  0.4905000000000 1.0
C      1  0.5394380000000  0.5168000000000  0.4819330000000 1.0
C      1  0.5147940000000  0.5143160000000  0.4020840000000 1.0
C      1  0.4711460000000  0.4604170000000  0.4979500000000 1.0
C      1  0.5416230000000  0.5235320000000  0.4064650000000 1.0
C      1  0.5634330000000  0.4081320000000  0.4838120000000 1.0
C      1  0.4676020000000  0.5977790000000  0.4428700000000 1.0
C      1  0.5565620000000  0.4812610000000  0.5786900000000 1.0
C      1  0.5459140000000  0.5460940000000  0.5501530000000 1.0
C      1  0.5166460000000  0.4548810000000  0.4085320000000 1.0
C      1  0.4832550000000  0.4209300000000  0.4100710000000 1.0
C      1  0.5014650000000  0.4356000000000  0.3944140000000 1.0
C      1  0.4284000000000  0.4508800000000  0.5150490000000 1.0
C      1  0.5040280000000  0.4317280000000  0.3675530000000 1.0
C      1  0.4395720000000  0.5268540000000  0.4663530000000 1.0
C      1  0.5011590000000  0.4597060000000  0.4544740000000 1.0
C      1  0.4600480000000  0.4610700000000  0.5658770000000 1.0
C      1  0.3836500000000  0.4978790000000  0.5921730000000 1.0
C      1  0.5412980000000  0.5706890000000  0.4329300000000 1.0
C      1  0.4157890000000  0.4543520000000  0.5403180000000 1.0
C      1  0.4998500000000  0.5205630000000  0.4440960000000 1.0
C      1  0.5052110000000  0.4714990000000  0.4289940000000 1.0
C      1  0.5455940000000  0.3978860000000  0.6217680000000 1.0
C      1  0.4580390000000  0.5137050000000  0.5984710000000 1.0
C      1  0.4600480000000  0.4068110000000  0.5752140000000 1.0
C      1  0.5821620000000  0.5079870000000  0.5109010000000 1.0
C      1  0.5630570000000  0.5027420000000  0.4083110000000 1.0
C      1  0.5028080000000  0.5922400000000  0.5733230000000 1.0
C      1  0.4631000000000  0.5701800000000  0.5284420000000 1.0
C      1  0.5471860000000  0.4545060000000  0.5768440000000 1.0
C      1  0.5064450000000  0.4992910000000  0.4259900000000 1.0
C      1  0.5084340000000  0.5770630000000  0.5516150000000 1.0
C      1  0.5392090000000  0.5836160000000  0.5141280000000 1.0
C      1  0.4254760000000  0.5082290000000  0.5598520000000 1.0
C      1  0.4863130000000  0.3921190000000  0.5094460000000 1.0
C      1  0.4053520000000  0.5447420000000  0.4974470000000 1.0
C      1  0.4386800000000  0.5219980000000  0.4088760000000 1.0
C      1  0.5017640000000  0.3913830000000  0.5544140000000 1.0
C      1  0.5072640000000  0.3863900000000  0.5272830000000 1.0
C      1  0.5570790000000  0.5858510000000  0.4508930000000 1.0
C      1  0.4896470000000  0.5238260000000  0.3908210000000 1.0
C      1  0.5172070000000  0.4683560000000  0.4787820000000 1.0
C      1  0.4497450000000  0.5161670000000  0.5718590000000 1.0
C      1  0.5518510000000  0.5451730000000  0.4253410000000 1.0
C      1  0.4217130000000  0.5679190000000  0.4921780000000 1.0
C      1  0.5734210000000  0.4541490000000  0.4626200000000 1.0
C      1  0.5770320000000  0.5136150000000  0.5383750000000 1.0
C      1  0.4449590000000  0.5792820000000  0.5084820000000 1.0
C      1  0.5875530000000  0.5822560000000  0.5188680000000 1.0
C      1  0.5345930000000  0.5713970000000  0.5409640000000 1.0
C      1  0.5276070000000  0.5292280000000  0.5080610000000 1.0
C      1  0.5329850000000  0.3823180000000  0.5166330000000 1.0
C      1  0.5582310000000  0.4350450000000  0.4775650000000 1.0
C      1  0.3838960000000  0.4867280000000  0.5126250000000 1.0
C      1  0.4386870000000  0.4981960000000  0.5093290000000 1.0
C      1  0.5913360000000  0.5625190000000  0.5366580000000 1.0
C      1  0.4909890000000  0.5911980000000  0.4312530000000 1.0
C      1  0.4767280000000  0.5211700000000  0.4928830000000 1.0
C      1  0.5577350000000  0.4782430000000  0.4219370000000 1.0
C      1  0.4758400000000  0.4223550000000  0.4357640000000 1.0
C      1  0.5049270000000  0.5456910000000  0.5162070000000 1.0
C      1  0.5301090000000  0.5020610000000  0.6184010000000 1.0
C      1  0.5526330000000  0.3894740000000  0.4998840000000 1.0
C      1  0.5175360000000  0.5862500000000  0.4950240000000 1.0
C      1  0.6095200000000  0.5088160000000  0.4628460000000 1.0
C      1  0.4370930000000  0.4205290000000  0.5708370000000 1.0
C      1  0.6029620000000  0.4895380000000  0.5048710000000 1.0
C      1  0.4902730000000  0.5632810000000  0.5348140000000 1.0
C      1  0.5667220000000  0.5916120000000  0.4751150000000 1.0
C      1  0.5118320000000  0.4626610000000  0.5272450000000 1.0
C      1  0.5867230000000  0.5168600000000  0.4163750000000 1.0
C      1  0.4086350000000  0.5337620000000  0.5232000000000 1.0
C      1  0.4786350000000  0.5109300000000  0.6152410000000 1.0
C      1  0.5349690000000  0.5179410000000  0.5560270000000 1.0
C      1  0.5445220000000  0.4581110000000  0.4070600000000 1.0
C      1  0.4892970000000  0.5118000000000  0.5383890000000 1.0
C      1  0.5286820000000  0.4349230000000  0.5862220000000 1.0
C      1  0.4482830000000  0.5972950000000  0.4632500000000 1.0
C      1  0.4889260000000  0.5469340000000  0.4915290000000 1.0
C      1  0.4727160000000  0.4108250000000  0.4963570000000 1.0
C      1  0.4139720000000  0.5217270000000  0.4549500000000 1.0
C      1  0.4571280000000  0.5434240000000  0.4524250000000 1.0
C      1  0.5110690000000  0.5023980000000  0.5536020000000 1.0
END
