TITL C-627112-676-931 -168.385161302307 125000 -77.1365809448823 0 0 15 (C1) n - 1
REM
REM in /home/nfs/bkarasulu/CARBON/AIRSS/Generating-Clusters/LCBOP/Only-C1/SD-CG/FIRE-CG
REM
REM
REM
REM
REM
REM ./C.cell (11c1c37f851c82e70ff6c80c92926a4b)
REM AIRSS Version 0.9.1 bugfix July 2018 build 013d7b7c2542+ Fri, 06 Jul 2018 19:26:36 +0100
REM compiler GCC version 9.2.1 20190827 (Red Hat 9.2.1-1)
REM options -cpp -mtune=generic -march=x86-64 -g -O0 -fpre-include=/usr/include/finclude/math-vector-fortran.h
REM seed -607015395 -1313205975 -29604553 1375317828 1854557153 -256314175 -1092957586 -1611420065 -1115037519 390696004 1854663192 -2056366794 138096962 -23275215 -1491021800 -1685321266 805521530 1157743835 -1887600030 -247034323 -7536557 1096063904 674078204 59452687 493661286 1942080053 -1639699805 -1274395805 -1467724509 -1678231984 -874658618 1273479088 -1069781776
REM
CELL 1.54180   50.00000   50.00000   50.00000   90.00000   90.00000   90.00000
LATT -1
SFAC C  
C      1  0.5022530000000  0.5026780000000  0.4625940000000 1.0
C      1  0.5022400000000  0.4664500000000  0.5676520000000 1.0
C      1  0.4919940000000  0.4785560000000  0.4516010000000 1.0
C      1  0.4643530000000  0.4757070000000  0.4485240000000 1.0
C      1  0.5301900000000  0.5243870000000  0.5560110000000 1.0
C      1  0.5090220000000  0.4584700000000  0.4441730000000 1.0
C      1  0.5085760000000  0.5065540000000  0.5164770000000 1.0
C      1  0.4942770000000  0.4917100000000  0.5606750000000 1.0
C      1  0.4385170000000  0.4735510000000  0.4458670000000 1.0
C      1  0.5111460000000  0.5076750000000  0.5442600000000 1.0
C      1  0.5478640000000  0.5398790000000  0.5672710000000 1.0
C      1  0.5088000000000  0.5239500000000  0.4457250000000 1.0
C      1  0.4703180000000  0.5018290000000  0.5692590000000 1.0
C      1  0.5056920000000  0.5049840000000  0.4902080000000 1.0
C      1  0.5147570000000  0.5436220000000  0.4297030000000 1.0
END
