TITL C-627111-6168-1199 1.70284533529438 125000 -139.084705311218 0 0 26 (C1) n - 1
REM
REM in /home/nfs/bkarasulu/CARBON/AIRSS/Generating-Clusters/LCBOP/Only-C1/SD-CG/FIRE-CG
REM
REM
REM
REM
REM
REM ./C.cell (11c1c37f851c82e70ff6c80c92926a4b)
REM AIRSS Version 0.9.1 bugfix July 2018 build 013d7b7c2542+ Fri, 06 Jul 2018 19:26:36 +0100
REM compiler GCC version 9.2.1 20190827 (Red Hat 9.2.1-1)
REM options -cpp -mtune=generic -march=x86-64 -g -O0 -fpre-include=/usr/include/finclude/math-vector-fortran.h
REM seed 559593313 -1222185236 269246075 700110494 -1279371129 1140636853 1157833556 1898977453 -1145668239 314332655 -830721542 867848844 -1014519570 1256973342 318564508 -1655563018 -991273030 355201017 -447633098 1800000211 -618153484 1313538183 2005585866 1504573579 -1890201771 588887884 409421580 -474581446 -726827362 -1861657986 -1779550936 -602479396 -1774328379
REM
CELL 1.54180   50.00000   50.00000   50.00000   90.00000   90.00000   90.00000
LATT -1
SFAC C  
C      1  0.5050310000000  0.5321060000000  0.5551420000000 1.0
C      1  0.5796820000000  0.5242620000000  0.5320090000000 1.0
C      1  0.4516210000000  0.4731050000000  0.4693640000000 1.0
C      1  0.5557250000000  0.4844170000000  0.5439630000000 1.0
C      1  0.4815610000000  0.5114990000000  0.4721580000000 1.0
C      1  0.5173610000000  0.4967020000000  0.4109380000000 1.0
C      1  0.5135530000000  0.5020560000000  0.4366040000000 1.0
C      1  0.5607710000000  0.5053900000000  0.5261640000000 1.0
C      1  0.4695000000000  0.5358150000000  0.4687030000000 1.0
C      1  0.5291140000000  0.5079790000000  0.4821260000000 1.0
C      1  0.4711430000000  0.4655050000000  0.5554870000000 1.0
C      1  0.4703160000000  0.4861580000000  0.5121480000000 1.0
C      1  0.5060980000000  0.5529500000000  0.5365730000000 1.0
C      1  0.4901340000000  0.5091870000000  0.5494820000000 1.0
C      1  0.4085260000000  0.4260220000000  0.4227070000000 1.0
C      1  0.5209430000000  0.4913710000000  0.3856720000000 1.0
C      1  0.4227000000000  0.4415290000000  0.4381440000000 1.0
C      1  0.4770870000000  0.4866870000000  0.5392560000000 1.0
C      1  0.5082990000000  0.5072320000000  0.4635280000000 1.0
C      1  0.5336520000000  0.5347150000000  0.6008040000000 1.0
C      1  0.5460800000000  0.5069580000000  0.5024260000000 1.0
C      1  0.4371120000000  0.4572970000000  0.4538360000000 1.0
C      1  0.5082040000000  0.5711290000000  0.5180200000000 1.0
C      1  0.4676480000000  0.4900930000000  0.4846460000000 1.0
C      1  0.5490100000000  0.4658040000000  0.5609250000000 1.0
C      1  0.5191300000000  0.5340310000000  0.5791740000000 1.0
END
