TITL C-627107-135-13 0.0767778110462673 125000 -343.110312428448 0 0 57 (C1) n - 1
REM
REM in /home/nfs/bkarasulu/CARBON/AIRSS/Generating-Clusters/LCBOP/Only-C1/SD-CG/FIRE-CG
REM
REM
REM
REM
REM
REM ./C.cell (11c1c37f851c82e70ff6c80c92926a4b)
REM AIRSS Version 0.9.1 bugfix July 2018 build 013d7b7c2542+ Fri, 06 Jul 2018 19:26:36 +0100
REM compiler GCC version 9.2.1 20190827 (Red Hat 9.2.1-1)
REM options -cpp -mtune=generic -march=x86-64 -g -O0 -fpre-include=/usr/include/finclude/math-vector-fortran.h
REM seed -157513799 1143748300 629222020 -700257567 1194396191 -2094040576 1649887934 1983233924 412829133 -846456121 1543005940 46104627 -462684535 -1434265305 -759595971 -2002408366 367200248 26767734 1521467817 48754488 1032619484 1968453559 -239526224 575844251 -141972569 -1281431851 -944376014 1853812077 495774219 -896262596 -390056349 -2096243347 -97548243
REM
CELL 1.54180   50.00000   50.00000   50.00000   90.00000   90.00000   90.00000
LATT -1
SFAC C  
C      1  0.4496210000000  0.5415210000000  0.5691250000000 1.0
C      1  0.4707350000000  0.5483610000000  0.5521690000000 1.0
C      1  0.4657930000000  0.4506290000000  0.5677660000000 1.0
C      1  0.4240830000000  0.4740540000000  0.5764050000000 1.0
C      1  0.6636090000000  0.4554390000000  0.4120060000000 1.0
C      1  0.4881400000000  0.5343320000000  0.4198810000000 1.0
C      1  0.4984980000000  0.4631280000000  0.5324940000000 1.0
C      1  0.4392340000000  0.4569430000000  0.5602200000000 1.0
C      1  0.4749510000000  0.4668260000000  0.4010200000000 1.0
C      1  0.5457070000000  0.5370910000000  0.5540260000000 1.0
C      1  0.4794620000000  0.4540340000000  0.5124240000000 1.0
C      1  0.4323450000000  0.5244230000000  0.5799570000000 1.0
C      1  0.4930500000000  0.4896620000000  0.5723350000000 1.0
C      1  0.4957040000000  0.5247710000000  0.4857540000000 1.0
C      1  0.5570060000000  0.5392630000000  0.5274440000000 1.0
C      1  0.6304580000000  0.4738210000000  0.4484390000000 1.0
C      1  0.4719150000000  0.5403210000000  0.4422620000000 1.0
C      1  0.5400670000000  0.4946330000000  0.5350820000000 1.0
C      1  0.4878250000000  0.5280760000000  0.5418110000000 1.0
C      1  0.4746940000000  0.5742360000000  0.5420520000000 1.0
C      1  0.4414930000000  0.4742300000000  0.4652090000000 1.0
C      1  0.5294650000000  0.4697390000000  0.4961620000000 1.0
C      1  0.4918630000000  0.5247570000000  0.5137920000000 1.0
C      1  0.5595720000000  0.5110170000000  0.5196020000000 1.0
C      1  0.4859790000000  0.4324780000000  0.4686700000000 1.0
C      1  0.4554450000000  0.5790810000000  0.4991730000000 1.0
C      1  0.5969330000000  0.4923180000000  0.4850810000000 1.0
C      1  0.4786530000000  0.5178850000000  0.3994010000000 1.0
C      1  0.5267190000000  0.4874480000000  0.4763630000000 1.0
C      1  0.5295250000000  0.5776680000000  0.5048860000000 1.0
C      1  0.4885070000000  0.4651240000000  0.5594100000000 1.0
C      1  0.5031790000000  0.5127300000000  0.5603550000000 1.0
C      1  0.6471710000000  0.4645540000000  0.4300710000000 1.0
C      1  0.4916880000000  0.4070050000000  0.5093760000000 1.0
C      1  0.4334870000000  0.5080210000000  0.4980310000000 1.0
C      1  0.4224840000000  0.4998670000000  0.5830520000000 1.0
C      1  0.4858420000000  0.4311780000000  0.4966010000000 1.0
C      1  0.5493610000000  0.5609700000000  0.5115930000000 1.0
C      1  0.5158450000000  0.5350920000000  0.4257430000000 1.0
C      1  0.4296410000000  0.5344060000000  0.4973170000000 1.0
C      1  0.4368650000000  0.5600740000000  0.4955780000000 1.0
C      1  0.4788650000000  0.4475180000000  0.4188620000000 1.0
C      1  0.5183980000000  0.5137010000000  0.4717060000000 1.0
C      1  0.4429850000000  0.4823780000000  0.4913120000000 1.0
C      1  0.4971410000000  0.3852580000000  0.5226590000000 1.0
C      1  0.6137470000000  0.4830860000000  0.4668010000000 1.0
C      1  0.5308780000000  0.5128140000000  0.5561710000000 1.0
C      1  0.5793160000000  0.5012910000000  0.5027050000000 1.0
C      1  0.5240990000000  0.4736230000000  0.5236510000000 1.0
C      1  0.4743010000000  0.4922940000000  0.3933380000000 1.0
C      1  0.4353620000000  0.4571140000000  0.5323340000000 1.0
C      1  0.4526810000000  0.4645990000000  0.5112940000000 1.0
C      1  0.5276970000000  0.5270220000000  0.4485790000000 1.0
C      1  0.4779900000000  0.5833710000000  0.5155100000000 1.0
C      1  0.4763100000000  0.5359050000000  0.4684280000000 1.0
C      1  0.5042570000000  0.5864350000000  0.5059570000000 1.0
C      1  0.4833570000000  0.4363870000000  0.4425550000000 1.0
END
