TITL C-627108-131-167 841.848639204603 125000 -635.787290896708 0 0 107 (C1) n - 1
REM
REM in /home/nfs/bkarasulu/CARBON/AIRSS/Generating-Clusters/LCBOP/Only-C1/SD-CG/FIRE-CG
REM
REM
REM
REM
REM
REM ./C.cell (11c1c37f851c82e70ff6c80c92926a4b)
REM AIRSS Version 0.9.1 bugfix July 2018 build 013d7b7c2542+ Fri, 06 Jul 2018 19:26:36 +0100
REM compiler GCC version 9.2.1 20190827 (Red Hat 9.2.1-1)
REM options -cpp -mtune=generic -march=x86-64 -g -O0 -fpre-include=/usr/include/finclude/math-vector-fortran.h
REM seed -913938800 -1508665465 -889514635 -2022980334 490308632 1555140097 2050293480 -1089948528 1264871906 1718687773 1310972842 1157039718 389252462 1091314347 269964181 2032719787 1785795659 1083806191 877857507 -656666708 1134429110 339415243 -380465190 -247310097 1684106458 1975999185 690514877 -1208497731 -1501863860 -871840205 -596491834 131259164 1947082869
REM
CELL 1.54180   50.00000   50.00000   50.00000   90.00000   90.00000   90.00000
LATT -1
SFAC C  
C      1  0.4220200000000  0.4903690000000  0.5571190000000 1.0
C      1  0.4159220000000  0.5288210000000  0.4748570000000 1.0
C      1  0.4713260000000  0.4477940000000  0.4858210000000 1.0
C      1  0.4671710000000  0.4652350000000  0.5480830000000 1.0
C      1  0.5769040000000  0.5448730000000  0.4375600000000 1.0
C      1  0.6025800000000  0.5747480000000  0.4003570000000 1.0
C      1  0.5116200000000  0.4161830000000  0.4859430000000 1.0
C      1  0.5714690000000  0.5689470000000  0.4818560000000 1.0
C      1  0.4977470000000  0.6170940000000  0.5690420000000 1.0
C      1  0.4928860000000  0.5902570000000  0.5623770000000 1.0
C      1  0.4496080000000  0.4087410000000  0.4664570000000 1.0
C      1  0.4687090000000  0.5362270000000  0.3757990000000 1.0
C      1  0.5054400000000  0.6676500000000  0.5829220000000 1.0
C      1  0.5259090000000  0.4567560000000  0.5598880000000 1.0
C      1  0.4650860000000  0.4181390000000  0.5436760000000 1.0
C      1  0.5013450000000  0.6423250000000  0.5762580000000 1.0
C      1  0.5374960000000  0.3656360000000  0.4930050000000 1.0
C      1  0.5472560000000  0.4305620000000  0.5232670000000 1.0
C      1  0.6040160000000  0.5321750000000  0.4784670000000 1.0
C      1  0.5116340000000  0.5510890000000  0.5864890000000 1.0
C      1  0.4183680000000  0.4829700000000  0.4743670000000 1.0
C      1  0.4679160000000  0.4841910000000  0.4385930000000 1.0
C      1  0.5593530000000  0.5800850000000  0.5034070000000 1.0
C      1  0.4763760000000  0.4961930000000  0.5116090000000 1.0
C      1  0.4494100000000  0.4004120000000  0.4930860000000 1.0
C      1  0.4034120000000  0.4713460000000  0.5650080000000 1.0
C      1  0.4383910000000  0.5663800000000  0.4909400000000 1.0
C      1  0.5287150000000  0.5233800000000  0.5216450000000 1.0
C      1  0.5288570000000  0.5076340000000  0.5450440000000 1.0
C      1  0.4826660000000  0.5506890000000  0.3932480000000 1.0
C      1  0.5789430000000  0.4677980000000  0.5562640000000 1.0
C      1  0.5441250000000  0.6163330000000  0.5313230000000 1.0
C      1  0.4437640000000  0.5760330000000  0.5410210000000 1.0
C      1  0.4528590000000  0.4172380000000  0.5169550000000 1.0
C      1  0.5361240000000  0.5124740000000  0.4176430000000 1.0
C      1  0.4663010000000  0.5837260000000  0.5542230000000 1.0
C      1  0.4025070000000  0.4922550000000  0.4969270000000 1.0
C      1  0.4983250000000  0.4706910000000  0.5964810000000 1.0
C      1  0.6173670000000  0.4017060000000  0.5009400000000 1.0
C      1  0.5117840000000  0.5414420000000  0.5093980000000 1.0
C      1  0.5545820000000  0.5462470000000  0.5496190000000 1.0
C      1  0.4760900000000  0.4402960000000  0.5598140000000 1.0
C      1  0.5015970000000  0.4446450000000  0.4881210000000 1.0
C      1  0.4522610000000  0.4430630000000  0.5044580000000 1.0
C      1  0.5122400000000  0.4994120000000  0.4162370000000 1.0
C      1  0.5560880000000  0.4574630000000  0.5666860000000 1.0
C      1  0.5685040000000  0.5194720000000  0.5021340000000 1.0
C      1  0.5049630000000  0.4553940000000  0.5159870000000 1.0
C      1  0.5434910000000  0.3816890000000  0.4718530000000 1.0
C      1  0.5147900000000  0.5716730000000  0.5660250000000 1.0
C      1  0.4317880000000  0.5071600000000  0.4648780000000 1.0
C      1  0.4242170000000  0.4607730000000  0.4589380000000 1.0
C      1  0.4925790000000  0.5443600000000  0.4440620000000 1.0
C      1  0.4145620000000  0.5162500000000  0.5469340000000 1.0
C      1  0.4449370000000  0.4546860000000  0.4387760000000 1.0
C      1  0.5106340000000  0.4957330000000  0.5870350000000 1.0
C      1  0.5217800000000  0.5241330000000  0.5873400000000 1.0
C      1  0.5704290000000  0.4199120000000  0.5160580000000 1.0
C      1  0.5902140000000  0.5602700000000  0.4181520000000 1.0
C      1  0.4799720000000  0.4213020000000  0.4291660000000 1.0
C      1  0.3867610000000  0.4523550000000  0.5714260000000 1.0
C      1  0.5397200000000  0.5712500000000  0.5493960000000 1.0
C      1  0.4049170000000  0.5216170000000  0.5005530000000 1.0
C      1  0.5054090000000  0.3972170000000  0.5065260000000 1.0
C      1  0.4635600000000  0.5111920000000  0.5562830000000 1.0
C      1  0.4807980000000  0.4989290000000  0.4836370000000 1.0
C      1  0.5157040000000  0.5354380000000  0.4573500000000 1.0
C      1  0.5116980000000  0.4643250000000  0.4679200000000 1.0
C      1  0.4886280000000  0.5543320000000  0.5092210000000 1.0
C      1  0.4350230000000  0.4709260000000  0.3882950000000 1.0
C      1  0.5571600000000  0.5264550000000  0.4277160000000 1.0
C      1  0.4834860000000  0.4722380000000  0.5250550000000 1.0
C      1  0.5261150000000  0.5124820000000  0.4702370000000 1.0
C      1  0.5072300000000  0.4588600000000  0.4402690000000 1.0
C      1  0.4385050000000  0.5553540000000  0.5195140000000 1.0
C      1  0.4164730000000  0.5334170000000  0.5240810000000 1.0
C      1  0.5964130000000  0.5151500000000  0.5003710000000 1.0
C      1  0.5421730000000  0.5250930000000  0.5656170000000 1.0
C      1  0.5848480000000  0.5496350000000  0.4651210000000 1.0
C      1  0.4419790000000  0.4918290000000  0.3733820000000 1.0
C      1  0.6052190000000  0.4962640000000  0.5194360000000 1.0
C      1  0.4540990000000  0.5150830000000  0.3689310000000 1.0
C      1  0.5058960000000  0.4321710000000  0.4311630000000 1.0
C      1  0.4676520000000  0.5374400000000  0.4560810000000 1.0
C      1  0.5266530000000  0.4152440000000  0.4393830000000 1.0
C      1  0.5941880000000  0.4107800000000  0.5086810000000 1.0
C      1  0.5517450000000  0.5108650000000  0.4811710000000 1.0
C      1  0.5958060000000  0.4804170000000  0.5393360000000 1.0
C      1  0.4921170000000  0.5542170000000  0.4179070000000 1.0
C      1  0.4615340000000  0.5070740000000  0.4601090000000 1.0
C      1  0.5197160000000  0.4865180000000  0.5602420000000 1.0
C      1  0.5179160000000  0.3733400000000  0.5102990000000 1.0
C      1  0.5473410000000  0.5892680000000  0.5279310000000 1.0
C      1  0.4518390000000  0.5576610000000  0.4688560000000 1.0
C      1  0.5562190000000  0.5336350000000  0.5229200000000 1.0
C      1  0.4502700000000  0.4859460000000  0.5580500000000 1.0
C      1  0.5294580000000  0.4055580000000  0.4654530000000 1.0
C      1  0.4353470000000  0.4569990000000  0.4109840000000 1.0
C      1  0.4649010000000  0.5281360000000  0.5774740000000 1.0
C      1  0.4655720000000  0.5423400000000  0.5191320000000 1.0
C      1  0.4936360000000  0.4808470000000  0.4277970000000 1.0
C      1  0.5002050000000  0.4475170000000  0.5765250000000 1.0
C      1  0.5095080000000  0.6925800000000  0.5893690000000 1.0
C      1  0.4689960000000  0.5169870000000  0.5292210000000 1.0
C      1  0.5076860000000  0.4917140000000  0.4751590000000 1.0
C      1  0.5257310000000  0.4459300000000  0.5322390000000 1.0
C      1  0.4567260000000  0.4268410000000  0.4445460000000 1.0
END
