TITL C-627111-6168-589 0.0170659103711176 125000 -343.570743800014 0 0 58 (C1) n - 1
REM
REM in /home/nfs/bkarasulu/CARBON/AIRSS/Generating-Clusters/LCBOP/Only-C1/SD-CG/FIRE-CG
REM
REM
REM
REM
REM
REM ./C.cell (11c1c37f851c82e70ff6c80c92926a4b)
REM AIRSS Version 0.9.1 bugfix July 2018 build 013d7b7c2542+ Fri, 06 Jul 2018 19:26:36 +0100
REM compiler GCC version 9.2.1 20190827 (Red Hat 9.2.1-1)
REM options -cpp -mtune=generic -march=x86-64 -g -O0 -fpre-include=/usr/include/finclude/math-vector-fortran.h
REM seed 605645657 812237350 1973529924 -1282830472 1556873699 -791552204 1799466007 -275441094 -104124022 -1124305508 -781022289 -1120657994 1207460975 -1460209314 1135639412 411771501 -1389847006 1690683240 185448339 -781052027 1218712853 -306351315 1886633693 -254027174 -1296515996 286039812 -1344379137 -2072694301 -143415797 1252527599 -1617670376 -689836459 -1774126044
REM
CELL 1.54180   50.00000   50.00000   50.00000   90.00000   90.00000   90.00000
LATT -1
SFAC C  
C      1  0.5157940000000  0.5795830000000  0.5872450000000 1.0
C      1  0.4215300000000  0.5179770000000  0.5519600000000 1.0
C      1  0.5521250000000  0.5167840000000  0.5285290000000 1.0
C      1  0.5439960000000  0.4869680000000  0.4351980000000 1.0
C      1  0.4156690000000  0.5069450000000  0.5753220000000 1.0
C      1  0.5123400000000  0.5658670000000  0.5653590000000 1.0
C      1  0.4273180000000  0.5108630000000  0.4825410000000 1.0
C      1  0.5073400000000  0.5222190000000  0.5433110000000 1.0
C      1  0.5002540000000  0.4117280000000  0.5272390000000 1.0
C      1  0.5097640000000  0.4818590000000  0.4937120000000 1.0
C      1  0.5699740000000  0.4574140000000  0.4716340000000 1.0
C      1  0.5254410000000  0.4721060000000  0.5791400000000 1.0
C      1  0.4869470000000  0.5389430000000  0.4297000000000 1.0
C      1  0.5797300000000  0.4701820000000  0.4963110000000 1.0
C      1  0.4292300000000  0.5287800000000  0.5275320000000 1.0
C      1  0.5653120000000  0.4050380000000  0.5240440000000 1.0
C      1  0.4833240000000  0.5788010000000  0.5097580000000 1.0
C      1  0.5062430000000  0.5641280000000  0.5167460000000 1.0
C      1  0.5696040000000  0.4552200000000  0.5195840000000 1.0
C      1  0.5160950000000  0.4569330000000  0.5047180000000 1.0
C      1  0.5097770000000  0.4336270000000  0.5157600000000 1.0
C      1  0.5600140000000  0.4700810000000  0.4487430000000 1.0
C      1  0.5288420000000  0.5017900000000  0.4865570000000 1.0
C      1  0.5147030000000  0.5448690000000  0.4700150000000 1.0
C      1  0.4464420000000  0.5476670000000  0.4510330000000 1.0
C      1  0.4449870000000  0.5323680000000  0.4033570000000 1.0
C      1  0.5087050000000  0.5510280000000  0.5420110000000 1.0
C      1  0.4917450000000  0.3895400000000  0.5389750000000 1.0
C      1  0.4920890000000  0.5531120000000  0.4551280000000 1.0
C      1  0.4683890000000  0.5026310000000  0.5099260000000 1.0
C      1  0.4845580000000  0.4538540000000  0.4530650000000 1.0
C      1  0.4272720000000  0.5323220000000  0.4644450000000 1.0
C      1  0.5064850000000  0.5202380000000  0.4211960000000 1.0
C      1  0.5646920000000  0.4303630000000  0.4806770000000 1.0
C      1  0.4843460000000  0.5101190000000  0.5322310000000 1.0
C      1  0.4583500000000  0.5389750000000  0.4260350000000 1.0
C      1  0.5257490000000  0.5082470000000  0.4381770000000 1.0
C      1  0.4814000000000  0.4858350000000  0.4903820000000 1.0
C      1  0.5241970000000  0.5186530000000  0.4646060000000 1.0
C      1  0.4619160000000  0.5741780000000  0.4919880000000 1.0
C      1  0.4365430000000  0.5732870000000  0.5041550000000 1.0
C      1  0.5322310000000  0.5080040000000  0.5466150000000 1.0
C      1  0.5657950000000  0.4279180000000  0.5094880000000 1.0
C      1  0.5502090000000  0.5100840000000  0.5026830000000 1.0
C      1  0.4250620000000  0.5558170000000  0.5209600000000 1.0
C      1  0.5376840000000  0.4817650000000  0.5567300000000 1.0
C      1  0.5566410000000  0.4660820000000  0.5421190000000 1.0
C      1  0.5216990000000  0.5571350000000  0.4943000000000 1.0
C      1  0.4410830000000  0.4663900000000  0.4696150000000 1.0
C      1  0.4690110000000  0.4684640000000  0.4711500000000 1.0
C      1  0.4835880000000  0.3676590000000  0.5505640000000 1.0
C      1  0.4417360000000  0.5130450000000  0.5072500000000 1.0
C      1  0.4220390000000  0.4848160000000  0.4736120000000 1.0
C      1  0.5999940000000  0.4891500000000  0.4971450000000 1.0
C      1  0.6194450000000  0.5064860000000  0.4976760000000 1.0
C      1  0.4100900000000  0.4960080000000  0.5983200000000 1.0
C      1  0.4667110000000  0.5617680000000  0.4668790000000 1.0
C      1  0.4977520000000  0.4382890000000  0.4368520000000 1.0
END
