TITL C-627112-676-2110 1.10405086814486e-06 125000 -423.028254835214 0 0 70 (C1) n - 1
REM
REM in /home/nfs/bkarasulu/CARBON/AIRSS/Generating-Clusters/LCBOP/Only-C1/SD-CG/FIRE-CG
REM
REM
REM
REM
REM
REM ./C.cell (11c1c37f851c82e70ff6c80c92926a4b)
REM AIRSS Version 0.9.1 bugfix July 2018 build 013d7b7c2542+ Fri, 06 Jul 2018 19:26:36 +0100
REM compiler GCC version 9.2.1 20190827 (Red Hat 9.2.1-1)
REM options -cpp -mtune=generic -march=x86-64 -g -O0 -fpre-include=/usr/include/finclude/math-vector-fortran.h
REM seed -1069057760 1453073043 1722954202 544112362 -166864040 29813945 1026093389 85503538 356761363 -466038909 -586188361 889867666 446834348 -391275479 -586443642 1388849020 -636667307 1666661747 -1589597528 1539241512 -1127336856 837333298 1997011499 88370648 -191214294 1618209599 -2136504006 766027466 -485442674 -1400335988 -1795223634 -436166535 1656136606
REM
CELL 1.54180   50.00000   50.00000   50.00000   90.00000   90.00000   90.00000
LATT -1
SFAC C  
C      1  0.5570760000000  0.4417930000000  0.5078130000000 1.0
C      1  0.5365140000000  0.4268350000000  0.5221770000000 1.0
C      1  0.5417800000000  0.5131270000000  0.5257220000000 1.0
C      1  0.5728170000000  0.4597480000000  0.5250530000000 1.0
C      1  0.5649660000000  0.5094190000000  0.5084630000000 1.0
C      1  0.5191760000000  0.4704970000000  0.5223180000000 1.0
C      1  0.5663610000000  0.4592360000000  0.5535800000000 1.0
C      1  0.4914220000000  0.4885070000000  0.5862460000000 1.0
C      1  0.5359160000000  0.3987530000000  0.5238000000000 1.0
C      1  0.4829120000000  0.5435860000000  0.4781080000000 1.0
C      1  0.3972080000000  0.5309800000000  0.5486040000000 1.0
C      1  0.5184070000000  0.5265200000000  0.5162410000000 1.0
C      1  0.4826650000000  0.5893340000000  0.4992420000000 1.0
C      1  0.5073490000000  0.4947370000000  0.4074350000000 1.0
C      1  0.4455650000000  0.4820370000000  0.5018000000000 1.0
C      1  0.5065830000000  0.5379210000000  0.5819180000000 1.0
C      1  0.5425120000000  0.5592330000000  0.4603800000000 1.0
C      1  0.5011600000000  0.5947540000000  0.5421730000000 1.0
C      1  0.4536510000000  0.4873700000000  0.5294860000000 1.0
C      1  0.4905570000000  0.4912370000000  0.4610570000000 1.0
C      1  0.4876510000000  0.6048430000000  0.5209270000000 1.0
C      1  0.5734720000000  0.4951050000000  0.4629610000000 1.0
C      1  0.4288960000000  0.4987970000000  0.4842770000000 1.0
C      1  0.5695750000000  0.5731240000000  0.5850450000000 1.0
C      1  0.5177920000000  0.4443910000000  0.5343320000000 1.0
C      1  0.5055940000000  0.5645760000000  0.4287790000000 1.0
C      1  0.5093510000000  0.4727640000000  0.4727670000000 1.0
C      1  0.5342880000000  0.4892880000000  0.5398340000000 1.0
C      1  0.5083250000000  0.4809910000000  0.5000330000000 1.0
C      1  0.4297580000000  0.5417610000000  0.4564010000000 1.0
C      1  0.3794910000000  0.5246060000000  0.5294700000000 1.0
C      1  0.5491590000000  0.4865100000000  0.4492950000000 1.0
C      1  0.5473820000000  0.5318220000000  0.4632890000000 1.0
C      1  0.5160910000000  0.4533900000000  0.5623320000000 1.0
C      1  0.5147880000000  0.5171240000000  0.4234920000000 1.0
C      1  0.4887160000000  0.5161520000000  0.4774370000000 1.0
C      1  0.4857210000000  0.4780340000000  0.4149510000000 1.0
C      1  0.4710600000000  0.4711900000000  0.5459740000000 1.0
C      1  0.5020500000000  0.5084990000000  0.5014730000000 1.0
C      1  0.3821870000000  0.5112410000000  0.5063980000000 1.0
C      1  0.4582040000000  0.4330080000000  0.4812720000000 1.0
C      1  0.5266500000000  0.3839910000000  0.5019350000000 1.0
C      1  0.4230410000000  0.5249580000000  0.5522150000000 1.0
C      1  0.4776570000000  0.4559580000000  0.4013540000000 1.0
C      1  0.4517040000000  0.4564140000000  0.4918400000000 1.0
C      1  0.4015760000000  0.5006580000000  0.4914370000000 1.0
C      1  0.5412410000000  0.4708690000000  0.5624250000000 1.0
C      1  0.5660460000000  0.5172190000000  0.4808230000000 1.0
C      1  0.4465920000000  0.5534020000000  0.4375880000000 1.0
C      1  0.5209790000000  0.5572640000000  0.5676400000000 1.0
C      1  0.5353610000000  0.4656250000000  0.4635080000000 1.0
C      1  0.5081650000000  0.5526790000000  0.5193430000000 1.0
C      1  0.4737900000000  0.4875680000000  0.4389490000000 1.0
C      1  0.5799830000000  0.4856210000000  0.5151140000000 1.0
C      1  0.4550960000000  0.5084790000000  0.4382800000000 1.0
C      1  0.4427050000000  0.5098940000000  0.5424210000000 1.0
C      1  0.5508320000000  0.4482840000000  0.4805580000000 1.0
C      1  0.4971390000000  0.5143230000000  0.5897280000000 1.0
C      1  0.4909480000000  0.4679470000000  0.5669460000000 1.0
C      1  0.4948370000000  0.5387480000000  0.4244710000000 1.0
C      1  0.4910070000000  0.5624020000000  0.4976180000000 1.0
C      1  0.4660100000000  0.4112260000000  0.4692710000000 1.0
C      1  0.5196390000000  0.3700020000000  0.4810950000000 1.0
C      1  0.4663370000000  0.5343780000000  0.4278410000000 1.0
C      1  0.5108110000000  0.5680660000000  0.5435030000000 1.0
C      1  0.5255440000000  0.5730680000000  0.4447430000000 1.0
C      1  0.5459260000000  0.5656760000000  0.5770210000000 1.0
C      1  0.5444200000000  0.3860610000000  0.5464950000000 1.0
C      1  0.5358140000000  0.5129200000000  0.4429630000000 1.0
C      1  0.4360010000000  0.5134620000000  0.4605210000000 1.0
END
