TITL C-627112-676-705 3.57661109195515e-07 125000 -1055.07664196316 0 0 171 (C1) n - 1
REM
REM in /home/nfs/bkarasulu/CARBON/AIRSS/Generating-Clusters/LCBOP/Only-C1/SD-CG/FIRE-CG
REM
REM
REM
REM
REM
REM ./C.cell (11c1c37f851c82e70ff6c80c92926a4b)
REM AIRSS Version 0.9.1 bugfix July 2018 build 013d7b7c2542+ Fri, 06 Jul 2018 19:26:36 +0100
REM compiler GCC version 9.2.1 20190827 (Red Hat 9.2.1-1)
REM options -cpp -mtune=generic -march=x86-64 -g -O0 -fpre-include=/usr/include/finclude/math-vector-fortran.h
REM seed 457944851 1564322995 -718142916 -885672045 174026037 1384057511 -510638738 -1563440206 1981075541 2110701652 -1581619519 -1591895134 778591331 1737868196 -1584255180 -1940894143 -1674356489 1785462638 1082591817 -920729520 -320337631 1316015852 949087170 1867215075 -380303496 1144765411 -1442169705 -301096932 -1374401782 -2135658035 962783075 -1467280511 514286413
REM
CELL 1.54180   50.00000   50.00000   50.00000   90.00000   90.00000   90.00000
LATT -1
SFAC C  
C      1  0.4610330000000  0.5566290000000  0.5444880000000 1.0
C      1  0.4910620000000  0.4273610000000  0.5887180000000 1.0
C      1  0.4814150000000  0.4913880000000  0.5005680000000 1.0
C      1  0.5416700000000  0.4118740000000  0.5331110000000 1.0
C      1  0.3919850000000  0.5122860000000  0.4951170000000 1.0
C      1  0.5326300000000  0.5893490000000  0.5778770000000 1.0
C      1  0.5544850000000  0.5623560000000  0.4180830000000 1.0
C      1  0.4914580000000  0.6048570000000  0.5554360000000 1.0
C      1  0.4749920000000  0.5802980000000  0.4706440000000 1.0
C      1  0.5640570000000  0.4837650000000  0.4895290000000 1.0
C      1  0.3955630000000  0.5076100000000  0.4671920000000 1.0
C      1  0.3959380000000  0.5130040000000  0.5557870000000 1.0
C      1  0.4877090000000  0.4005950000000  0.4639750000000 1.0
C      1  0.5228640000000  0.5339160000000  0.6044240000000 1.0
C      1  0.5150010000000  0.5085830000000  0.4719050000000 1.0
C      1  0.5559320000000  0.5136880000000  0.3866540000000 1.0
C      1  0.5750370000000  0.4841600000000  0.5627890000000 1.0
C      1  0.6053770000000  0.5315330000000  0.5325200000000 1.0
C      1  0.5987970000000  0.4893470000000  0.4463110000000 1.0
C      1  0.5336360000000  0.4508450000000  0.4954240000000 1.0
C      1  0.5756920000000  0.5636430000000  0.4382070000000 1.0
C      1  0.4460680000000  0.4379070000000  0.4229770000000 1.0
C      1  0.5275330000000  0.4118360000000  0.4377430000000 1.0
C      1  0.4331270000000  0.3810360000000  0.3792120000000 1.0
C      1  0.4005130000000  0.5394950000000  0.5058400000000 1.0
C      1  0.5121320000000  0.4283900000000  0.4194900000000 1.0
C      1  0.4643000000000  0.4067900000000  0.5292260000000 1.0
C      1  0.5296220000000  0.5087060000000  0.3816430000000 1.0
C      1  0.4615100000000  0.5606360000000  0.4207300000000 1.0
C      1  0.5612840000000  0.5000910000000  0.6105390000000 1.0
C      1  0.5922670000000  0.5097000000000  0.4247280000000 1.0
C      1  0.4992780000000  0.6128220000000  0.4948870000000 1.0
C      1  0.4462410000000  0.4520590000000  0.5863860000000 1.0
C      1  0.4876720000000  0.5554610000000  0.4602030000000 1.0
C      1  0.3718560000000  0.4291980000000  0.5296820000000 1.0
C      1  0.5144090000000  0.4050850000000  0.5449370000000 1.0
C      1  0.4686820000000  0.5440110000000  0.6413710000000 1.0
C      1  0.4598460000000  0.4178250000000  0.4081500000000 1.0
C      1  0.4112160000000  0.4845550000000  0.4629500000000 1.0
C      1  0.5965180000000  0.5279620000000  0.4694700000000 1.0
C      1  0.4519600000000  0.6048800000000  0.5119560000000 1.0
C      1  0.4446270000000  0.5293040000000  0.4852010000000 1.0
C      1  0.4244880000000  0.5790340000000  0.4765990000000 1.0
C      1  0.5006660000000  0.3828850000000  0.5037290000000 1.0
C      1  0.4569610000000  0.5144310000000  0.4032040000000 1.0
C      1  0.4729300000000  0.4491270000000  0.5379040000000 1.0
C      1  0.3891660000000  0.5409160000000  0.5339170000000 1.0
C      1  0.4510160000000  0.4302630000000  0.4836960000000 1.0
C      1  0.5351880000000  0.5329300000000  0.4703940000000 1.0
C      1  0.5172040000000  0.4015380000000  0.4622470000000 1.0
C      1  0.5237060000000  0.5848650000000  0.4667840000000 1.0
C      1  0.5757500000000  0.4718070000000  0.4464760000000 1.0
C      1  0.4391060000000  0.4838670000000  0.4675890000000 1.0
C      1  0.4379760000000  0.5255650000000  0.5899980000000 1.0
C      1  0.5222820000000  0.5210840000000  0.5259470000000 1.0
C      1  0.4389120000000  0.5735010000000  0.4271250000000 1.0
C      1  0.3930310000000  0.4610550000000  0.4999550000000 1.0
C      1  0.5426600000000  0.5185430000000  0.6175160000000 1.0
C      1  0.4432480000000  0.5004330000000  0.6024430000000 1.0
C      1  0.6033590000000  0.5778050000000  0.5241600000000 1.0
C      1  0.5473820000000  0.3991910000000  0.5077580000000 1.0
C      1  0.5604060000000  0.5042030000000  0.5051990000000 1.0
C      1  0.5031530000000  0.4778690000000  0.4105820000000 1.0
C      1  0.5265050000000  0.4836110000000  0.4611160000000 1.0
C      1  0.4487910000000  0.4603130000000  0.4822920000000 1.0
C      1  0.4306760000000  0.5169000000000  0.3970670000000 1.0
C      1  0.4663600000000  0.5637120000000  0.5713590000000 1.0
C      1  0.4442390000000  0.4154550000000  0.5078740000000 1.0
C      1  0.4281670000000  0.4796000000000  0.5462220000000 1.0
C      1  0.5971700000000  0.4368930000000  0.4738530000000 1.0
C      1  0.5933460000000  0.5810410000000  0.5493940000000 1.0
C      1  0.5864620000000  0.5434790000000  0.4902780000000 1.0
C      1  0.4849370000000  0.5851580000000  0.5763270000000 1.0
C      1  0.5206840000000  0.4546530000000  0.4106060000000 1.0
C      1  0.5378850000000  0.4350000000000  0.5742980000000 1.0
C      1  0.4302670000000  0.6223550000000  0.5135320000000 1.0
C      1  0.4208060000000  0.4333490000000  0.4346870000000 1.0
C      1  0.5263380000000  0.5505050000000  0.5298490000000 1.0
C      1  0.5472710000000  0.4579190000000  0.4010350000000 1.0
C      1  0.5961570000000  0.4623590000000  0.5190340000000 1.0
C      1  0.4946990000000  0.4492460000000  0.5230740000000 1.0
C      1  0.4643430000000  0.4304790000000  0.5789830000000 1.0
C      1  0.4282350000000  0.4588500000000  0.5652360000000 1.0
C      1  0.4590500000000  0.5460810000000  0.5929390000000 1.0
C      1  0.5845660000000  0.5330240000000  0.5529960000000 1.0
C      1  0.5564960000000  0.4334410000000  0.5505270000000 1.0
C      1  0.3984440000000  0.4602210000000  0.4715310000000 1.0
C      1  0.4511650000000  0.5869690000000  0.4877420000000 1.0
C      1  0.3939000000000  0.4367210000000  0.5152270000000 1.0
C      1  0.5514640000000  0.5894790000000  0.5081250000000 1.0
C      1  0.5506300000000  0.5678200000000  0.5697570000000 1.0
C      1  0.5761620000000  0.4232300000000  0.4329260000000 1.0
C      1  0.4788100000000  0.5100150000000  0.3845950000000 1.0
C      1  0.5715930000000  0.5832640000000  0.4592440000000 1.0
C      1  0.4757150000000  0.4668690000000  0.4892440000000 1.0
C      1  0.5544060000000  0.4079860000000  0.4310930000000 1.0
C      1  0.4762820000000  0.4255240000000  0.4695430000000 1.0
C      1  0.4814330000000  0.3793800000000  0.4824460000000 1.0
C      1  0.4796000000000  0.5573280000000  0.5245670000000 1.0
C      1  0.5702950000000  0.4719690000000  0.3988230000000 1.0
C      1  0.4462340000000  0.3988370000000  0.3930150000000 1.0
C      1  0.5673660000000  0.5097550000000  0.5509330000000 1.0
C      1  0.3932890000000  0.4880620000000  0.5123330000000 1.0
C      1  0.5085640000000  0.5407220000000  0.4197010000000 1.0
C      1  0.4170560000000  0.4202150000000  0.5154760000000 1.0
C      1  0.5507050000000  0.4884690000000  0.4469040000000 1.0
C      1  0.5857110000000  0.4446190000000  0.4982140000000 1.0
C      1  0.5723330000000  0.3894210000000  0.5022220000000 1.0
C      1  0.5774590000000  0.5608160000000  0.5621340000000 1.0
C      1  0.5603860000000  0.4564870000000  0.4934820000000 1.0
C      1  0.5229040000000  0.4795600000000  0.5676140000000 1.0
C      1  0.3841260000000  0.5227820000000  0.4470360000000 1.0
C      1  0.5487870000000  0.5100770000000  0.5291260000000 1.0
C      1  0.4606280000000  0.4615650000000  0.4280550000000 1.0
C      1  0.5576260000000  0.5438110000000  0.4913810000000 1.0
C      1  0.4153770000000  0.5518460000000  0.5536380000000 1.0
C      1  0.4312710000000  0.5366790000000  0.5096470000000 1.0
C      1  0.5047620000000  0.5555980000000  0.6098890000000 1.0
C      1  0.4237620000000  0.5800920000000  0.4481960000000 1.0
C      1  0.5045050000000  0.4980730000000  0.3896550000000 1.0
C      1  0.4921680000000  0.3955510000000  0.5278440000000 1.0
C      1  0.4711030000000  0.6081680000000  0.5342620000000 1.0
C      1  0.5261980000000  0.4591770000000  0.5868470000000 1.0
C      1  0.5229550000000  0.6063090000000  0.5551290000000 1.0
C      1  0.5839510000000  0.4442000000000  0.4494710000000 1.0
C      1  0.5041110000000  0.5680540000000  0.5206980000000 1.0
C      1  0.6169500000000  0.5072870000000  0.5242230000000 1.0
C      1  0.5164610000000  0.5567770000000  0.4653890000000 1.0
C      1  0.4494230000000  0.4741400000000  0.6038490000000 1.0
C      1  0.4583410000000  0.5100950000000  0.4640820000000 1.0
C      1  0.6056580000000  0.5003970000000  0.4729900000000 1.0
C      1  0.4018850000000  0.5654940000000  0.4895120000000 1.0
C      1  0.5084810000000  0.5957470000000  0.5149820000000 1.0
C      1  0.5036450000000  0.4499410000000  0.6019580000000 1.0
C      1  0.5318900000000  0.5490160000000  0.5594620000000 1.0
C      1  0.4362360000000  0.5500400000000  0.5350720000000 1.0
C      1  0.5364540000000  0.5401400000000  0.4226120000000 1.0
C      1  0.3722170000000  0.5370560000000  0.4287720000000 1.0
C      1  0.5765090000000  0.5000300000000  0.4014620000000 1.0
C      1  0.4878920000000  0.4182860000000  0.4094150000000 1.0
C      1  0.4033030000000  0.4915020000000  0.5391890000000 1.0
C      1  0.5187060000000  0.4583340000000  0.4723410000000 1.0
C      1  0.4877240000000  0.5084290000000  0.4790570000000 1.0
C      1  0.6022060000000  0.5519780000000  0.5124760000000 1.0
C      1  0.4771830000000  0.4989930000000  0.5272260000000 1.0
C      1  0.5486960000000  0.5604880000000  0.5124970000000 1.0
C      1  0.5502520000000  0.5913000000000  0.4774560000000 1.0
C      1  0.4998420000000  0.5095010000000  0.5398090000000 1.0
C      1  0.5217170000000  0.5283410000000  0.5766380000000 1.0
C      1  0.5101360000000  0.5047530000000  0.5662520000000 1.0
C      1  0.4681420000000  0.5125040000000  0.4327810000000 1.0
C      1  0.4803880000000  0.4818230000000  0.4283030000000 1.0
C      1  0.4815710000000  0.5415860000000  0.4334820000000 1.0
C      1  0.5132210000000  0.4168390000000  0.5714420000000 1.0
C      1  0.4023460000000  0.4389710000000  0.4534850000000 1.0
C      1  0.4923410000000  0.4495640000000  0.4733560000000 1.0
C      1  0.4523600000000  0.4926430000000  0.5390680000000 1.0
C      1  0.5083370000000  0.5793980000000  0.5931480000000 1.0
C      1  0.4771370000000  0.5481110000000  0.6156710000000 1.0
C      1  0.5305710000000  0.4704290000000  0.5416450000000 1.0
C      1  0.5509290000000  0.5228690000000  0.4445520000000 1.0
C      1  0.4150560000000  0.5287240000000  0.5721030000000 1.0
C      1  0.5816220000000  0.5332160000000  0.4429420000000 1.0
C      1  0.4980650000000  0.5991600000000  0.4705510000000 1.0
C      1  0.6088400000000  0.4871810000000  0.5059690000000 1.0
C      1  0.5735310000000  0.4853740000000  0.5913150000000 1.0
C      1  0.5253340000000  0.3934750000000  0.4902700000000 1.0
C      1  0.5210470000000  0.4558380000000  0.5200830000000 1.0
C      1  0.5332720000000  0.6035230000000  0.5272930000000 1.0
C      1  0.4629740000000  0.4261340000000  0.5508730000000 1.0
C      1  0.5788350000000  0.4596860000000  0.5452990000000 1.0
END
