TITL C-627106-156-1700 3.25378994285021e-07 125000 -337.81405592725 0 0 58 (C1) n - 1
REM
REM in /home/nfs/bkarasulu/CARBON/AIRSS/Generating-Clusters/LCBOP/Only-C1/SD-CG/FIRE-CG
REM
REM
REM
REM
REM
REM ./C.cell (11c1c37f851c82e70ff6c80c92926a4b)
REM AIRSS Version 0.9.1 bugfix July 2018 build 013d7b7c2542+ Fri, 06 Jul 2018 19:26:36 +0100
REM compiler GCC version 9.2.1 20190827 (Red Hat 9.2.1-1)
REM options -cpp -mtune=generic -march=x86-64 -g -O0 -fpre-include=/usr/include/finclude/math-vector-fortran.h
REM seed 1694019365 1475775841 -846441554 -1628152146 696055374 -173827171 -60075711 695026333 -983812858 267768034 -726856370 -524522175 -738056652 445330544 972986846 1344320028 354911315 1352086323 -1259574564 -1987462113 -213192758 43581176 721805553 717301746 1452027916 -881903549 -2016040775 2049723833 28179074 733527494 1670708062 -1315453476 582223980
REM
CELL 1.54180   50.00000   50.00000   50.00000   90.00000   90.00000   90.00000
LATT -1
SFAC C  
C      1  0.4724000000000  0.5502800000000  0.4607070000000 1.0
C      1  0.5499890000000  0.5270080000000  0.4870950000000 1.0
C      1  0.4648850000000  0.4935950000000  0.4581500000000 1.0
C      1  0.5286480000000  0.4943810000000  0.5535980000000 1.0
C      1  0.4992340000000  0.5486110000000  0.4477940000000 1.0
C      1  0.5051060000000  0.4310420000000  0.4621390000000 1.0
C      1  0.4441480000000  0.4821840000000  0.5163090000000 1.0
C      1  0.4933960000000  0.5470870000000  0.5561980000000 1.0
C      1  0.4628410000000  0.4505100000000  0.4847060000000 1.0
C      1  0.5413930000000  0.5538620000000  0.4813610000000 1.0
C      1  0.5355950000000  0.4816590000000  0.4981120000000 1.0
C      1  0.5272220000000  0.4286250000000  0.5737920000000 1.0
C      1  0.5757720000000  0.4585090000000  0.5273120000000 1.0
C      1  0.5299580000000  0.4368340000000  0.5478170000000 1.0
C      1  0.5755360000000  0.5130710000000  0.5677900000000 1.0
C      1  0.4958740000000  0.5221540000000  0.5705260000000 1.0
C      1  0.4830980000000  0.5038190000000  0.5317750000000 1.0
C      1  0.4316900000000  0.5397270000000  0.5142410000000 1.0
C      1  0.5062230000000  0.5267990000000  0.4298670000000 1.0
C      1  0.4532930000000  0.5110210000000  0.4389940000000 1.0
C      1  0.4220960000000  0.5219250000000  0.4935030000000 1.0
C      1  0.5211460000000  0.4180990000000  0.4812070000000 1.0
C      1  0.5080290000000  0.4343270000000  0.5291640000000 1.0
C      1  0.4397830000000  0.5257090000000  0.5372830000000 1.0
C      1  0.5532740000000  0.5023710000000  0.5594480000000 1.0
C      1  0.5030860000000  0.5501280000000  0.5289870000000 1.0
C      1  0.5761950000000  0.5183180000000  0.4921580000000 1.0
C      1  0.5172910000000  0.4758920000000  0.4363200000000 1.0
C      1  0.5023630000000  0.5150820000000  0.4896420000000 1.0
C      1  0.4843260000000  0.4512830000000  0.5329900000000 1.0
C      1  0.5078610000000  0.5015340000000  0.4431130000000 1.0
C      1  0.5107520000000  0.5304010000000  0.4032370000000 1.0
C      1  0.5548610000000  0.4460800000000  0.5382490000000 1.0
C      1  0.4491370000000  0.5599480000000  0.5043610000000 1.0
C      1  0.4552780000000  0.5027150000000  0.5324500000000 1.0
C      1  0.4248880000000  0.5338260000000  0.4677360000000 1.0
C      1  0.4221620000000  0.4930480000000  0.4998860000000 1.0
C      1  0.5223010000000  0.5592700000000  0.4609610000000 1.0
C      1  0.4813840000000  0.5684250000000  0.5686150000000 1.0
C      1  0.5963170000000  0.4744210000000  0.5163940000000 1.0
C      1  0.5411870000000  0.5709550000000  0.5038980000000 1.0
C      1  0.4726620000000  0.5539580000000  0.4896130000000 1.0
C      1  0.4908000000000  0.5016950000000  0.4667540000000 1.0
C      1  0.6223510000000  0.4662180000000  0.5186450000000 1.0
C      1  0.5904960000000  0.4986490000000  0.5032570000000 1.0
C      1  0.4925910000000  0.5388180000000  0.5038630000000 1.0
C      1  0.4482730000000  0.5361520000000  0.4513310000000 1.0
C      1  0.4990960000000  0.4958510000000  0.5553070000000 1.0
C      1  0.4472810000000  0.5046600000000  0.4132960000000 1.0
C      1  0.4876360000000  0.4676650000000  0.5574080000000 1.0
C      1  0.5145430000000  0.4181260000000  0.5072490000000 1.0
C      1  0.5147980000000  0.4501370000000  0.4438070000000 1.0
C      1  0.5296540000000  0.5078810000000  0.4932500000000 1.0
C      1  0.4782410000000  0.4316950000000  0.4709720000000 1.0
C      1  0.4530940000000  0.4703020000000  0.4671650000000 1.0
C      1  0.4624990000000  0.4586230000000  0.5126140000000 1.0
C      1  0.5249560000000  0.5678330000000  0.5251740000000 1.0
C      1  0.4010130000000  0.4772050000000  0.4924100000000 1.0
END
