TITL C-627109-622-1656 -2.98502053106846e-07 125000 -504.0780691279 0 0 82 (C1) n - 1
REM
REM in /home/nfs/bkarasulu/CARBON/AIRSS/Generating-Clusters/LCBOP/Only-C1/SD-CG/FIRE-CG
REM
REM
REM
REM
REM
REM ./C.cell (11c1c37f851c82e70ff6c80c92926a4b)
REM AIRSS Version 0.9.1 bugfix July 2018 build 013d7b7c2542+ Fri, 06 Jul 2018 19:26:36 +0100
REM compiler GCC version 9.2.1 20190827 (Red Hat 9.2.1-1)
REM options -cpp -mtune=generic -march=x86-64 -g -O0 -fpre-include=/usr/include/finclude/math-vector-fortran.h
REM seed 1663112907 -1237591566 1764429124 -308761275 -893381711 1601906015 -434477204 838574581 -1987379723 -509074698 274229789 1148364999 -100382541 980115453 -353282924 -1195007548 -1975273649 220227873 -338865505 579235610 171690621 -1819158130 -1802950815 1008486238 510169713 -1454033363 1582161216 1036034942 662092131 1711420327 -1994920685 -685994967 -1250183995
REM
CELL 1.54180   50.00000   50.00000   50.00000   90.00000   90.00000   90.00000
LATT -1
SFAC C  
C      1  0.5148320000000  0.5990770000000  0.5553050000000 1.0
C      1  0.4727810000000  0.4822940000000  0.3969380000000 1.0
C      1  0.4084430000000  0.4796930000000  0.5086990000000 1.0
C      1  0.5324790000000  0.5848840000000  0.5696030000000 1.0
C      1  0.5225430000000  0.4983490000000  0.4356960000000 1.0
C      1  0.5237550000000  0.4230980000000  0.5037300000000 1.0
C      1  0.4113080000000  0.4556360000000  0.4919360000000 1.0
C      1  0.5067780000000  0.5417500000000  0.4897740000000 1.0
C      1  0.5600930000000  0.5815620000000  0.4791800000000 1.0
C      1  0.5245420000000  0.6142340000000  0.4682640000000 1.0
C      1  0.4763940000000  0.4309930000000  0.4695380000000 1.0
C      1  0.5515300000000  0.4280360000000  0.5002340000000 1.0
C      1  0.4914310000000  0.4557690000000  0.6295450000000 1.0
C      1  0.5586620000000  0.4397140000000  0.4746470000000 1.0
C      1  0.4575470000000  0.5914220000000  0.4813200000000 1.0
C      1  0.4690050000000  0.5830610000000  0.5538690000000 1.0
C      1  0.4372950000000  0.5452870000000  0.5458860000000 1.0
C      1  0.5417700000000  0.4723800000000  0.5585730000000 1.0
C      1  0.5632410000000  0.4409640000000  0.5238930000000 1.0
C      1  0.5657180000000  0.5347230000000  0.4998410000000 1.0
C      1  0.4168790000000  0.5299990000000  0.5007360000000 1.0
C      1  0.4029340000000  0.4791590000000  0.5358920000000 1.0
C      1  0.4562730000000  0.3962090000000  0.5121510000000 1.0
C      1  0.4930840000000  0.5851520000000  0.5132920000000 1.0
C      1  0.4337020000000  0.4096740000000  0.5075550000000 1.0
C      1  0.4940280000000  0.4637230000000  0.6048640000000 1.0
C      1  0.4647850000000  0.4576260000000  0.4031560000000 1.0
C      1  0.5325220000000  0.4978220000000  0.5004330000000 1.0
C      1  0.4116520000000  0.4659970000000  0.4649260000000 1.0
C      1  0.5227020000000  0.5695840000000  0.4521000000000 1.0
C      1  0.5009990000000  0.5144850000000  0.4257080000000 1.0
C      1  0.5382490000000  0.5900740000000  0.4637570000000 1.0
C      1  0.3990240000000  0.4775590000000  0.5616070000000 1.0
C      1  0.4914370000000  0.5946590000000  0.5404430000000 1.0
C      1  0.4772230000000  0.4675780000000  0.5592320000000 1.0
C      1  0.4632060000000  0.4373550000000  0.4203930000000 1.0
C      1  0.5485190000000  0.5101350000000  0.4366460000000 1.0
C      1  0.4893870000000  0.5319470000000  0.4454410000000 1.0
C      1  0.5901420000000  0.4407070000000  0.5319240000000 1.0
C      1  0.4628900000000  0.5560620000000  0.5474990000000 1.0
C      1  0.5861090000000  0.4484450000000  0.4743670000000 1.0
C      1  0.4242300000000  0.5510730000000  0.4835120000000 1.0
C      1  0.5206030000000  0.4865350000000  0.5705640000000 1.0
C      1  0.4860420000000  0.5042820000000  0.4043190000000 1.0
C      1  0.5348250000000  0.5342810000000  0.5778730000000 1.0
C      1  0.4673560000000  0.4602050000000  0.5087080000000 1.0
C      1  0.4960900000000  0.5565470000000  0.5115230000000 1.0
C      1  0.5077810000000  0.4009760000000  0.5090080000000 1.0
C      1  0.4866410000000  0.4523340000000  0.4870990000000 1.0
C      1  0.4997840000000  0.6175770000000  0.4783280000000 1.0
C      1  0.5427100000000  0.4546070000000  0.4538480000000 1.0
C      1  0.5588320000000  0.5082820000000  0.4929020000000 1.0
C      1  0.5092070000000  0.5131890000000  0.4931470000000 1.0
C      1  0.6104440000000  0.4574490000000  0.5258830000000 1.0
C      1  0.6119120000000  0.4745910000000  0.5050100000000 1.0
C      1  0.4201280000000  0.5351730000000  0.5281860000000 1.0
C      1  0.5185840000000  0.5145120000000  0.5664030000000 1.0
C      1  0.4991430000000  0.5233090000000  0.5482050000000 1.0
C      1  0.4109860000000  0.5039720000000  0.4919920000000 1.0
C      1  0.5185760000000  0.4729670000000  0.4514790000000 1.0
C      1  0.4970900000000  0.4723940000000  0.5785560000000 1.0
C      1  0.5056620000000  0.5496290000000  0.4615180000000 1.0
C      1  0.5945360000000  0.4744160000000  0.4829000000000 1.0
C      1  0.4848850000000  0.5427690000000  0.5344330000000 1.0
C      1  0.5694690000000  0.4940170000000  0.4464490000000 1.0
C      1  0.4180710000000  0.4300130000000  0.5002770000000 1.0
C      1  0.5285040000000  0.4715210000000  0.5122310000000 1.0
C      1  0.4954920000000  0.4742540000000  0.4690050000000 1.0
C      1  0.4827000000000  0.3924290000000  0.5125840000000 1.0
C      1  0.5768580000000  0.4952260000000  0.4743550000000 1.0
C      1  0.4382600000000  0.5731970000000  0.4782730000000 1.0
C      1  0.5639380000000  0.4671410000000  0.4376130000000 1.0
C      1  0.4880720000000  0.4995380000000  0.4790110000000 1.0
C      1  0.5118510000000  0.4491530000000  0.5030880000000 1.0
C      1  0.5395830000000  0.5605920000000  0.5781880000000 1.0
C      1  0.4114720000000  0.4936440000000  0.4649520000000 1.0
C      1  0.4676370000000  0.4270600000000  0.4445900000000 1.0
C      1  0.4663980000000  0.4647120000000  0.5350550000000 1.0
C      1  0.4823830000000  0.5998330000000  0.4914480000000 1.0
C      1  0.5467100000000  0.4627710000000  0.5328330000000 1.0
C      1  0.4724260000000  0.5164490000000  0.4625650000000 1.0
C      1  0.5682360000000  0.5605050000000  0.4934950000000 1.0
END
