TITL C-627107-135-657 0.00315740010266431 125000 -429.542961170909 0 0 71 (C1) n - 1
REM
REM in /home/nfs/bkarasulu/CARBON/AIRSS/Generating-Clusters/LCBOP/Only-C1/SD-CG/FIRE-CG
REM
REM
REM
REM
REM
REM ./C.cell (11c1c37f851c82e70ff6c80c92926a4b)
REM AIRSS Version 0.9.1 bugfix July 2018 build 013d7b7c2542+ Fri, 06 Jul 2018 19:26:36 +0100
REM compiler GCC version 9.2.1 20190827 (Red Hat 9.2.1-1)
REM options -cpp -mtune=generic -march=x86-64 -g -O0 -fpre-include=/usr/include/finclude/math-vector-fortran.h
REM seed 1622430968 816338284 -818456448 1935371176 -299871080 946732016 -94237938 222929713 -1126542907 1609310482 1586623027 -2003986128 -1534470539 -709025655 1391738575 -208915845 494741019 390788672 -1721735706 1747327641 794274896 393921799 319928782 1536737340 -29516592 1084330506 1430117461 597756876 1626443461 735465826 -371064246 2065268956 -793440971
REM
CELL 1.54180   50.00000   50.00000   50.00000   90.00000   90.00000   90.00000
LATT -1
SFAC C  
C      1  0.4783160000000  0.5189650000000  0.5891230000000 1.0
C      1  0.5329590000000  0.5790490000000  0.5465990000000 1.0
C      1  0.4302860000000  0.5286560000000  0.5411490000000 1.0
C      1  0.4835770000000  0.4879430000000  0.5439710000000 1.0
C      1  0.5161570000000  0.4831840000000  0.4340530000000 1.0
C      1  0.5635180000000  0.4908510000000  0.5491720000000 1.0
C      1  0.4219600000000  0.4543860000000  0.4516980000000 1.0
C      1  0.4698550000000  0.5680280000000  0.5034140000000 1.0
C      1  0.5095240000000  0.5857200000000  0.5337500000000 1.0
C      1  0.5132910000000  0.5345030000000  0.4872620000000 1.0
C      1  0.4342110000000  0.4232500000000  0.4881820000000 1.0
C      1  0.5683150000000  0.4902440000000  0.4993020000000 1.0
C      1  0.5367140000000  0.4555890000000  0.5775710000000 1.0
C      1  0.4977820000000  0.5298590000000  0.4438920000000 1.0
C      1  0.4429230000000  0.5000140000000  0.4362890000000 1.0
C      1  0.5292560000000  0.4435640000000  0.5086160000000 1.0
C      1  0.4519730000000  0.4337200000000  0.5091410000000 1.0
C      1  0.5786960000000  0.5579070000000  0.4899860000000 1.0
C      1  0.4934640000000  0.5218560000000  0.6116300000000 1.0
C      1  0.5697980000000  0.5426990000000  0.5402760000000 1.0
C      1  0.4549180000000  0.5340370000000  0.5850250000000 1.0
C      1  0.5955460000000  0.4869160000000  0.4949620000000 1.0
C      1  0.5404750000000  0.5607300000000  0.4205460000000 1.0
C      1  0.4151250000000  0.4368360000000  0.4725760000000 1.0
C      1  0.4265030000000  0.5337470000000  0.4927940000000 1.0
C      1  0.4454830000000  0.5687820000000  0.5178490000000 1.0
C      1  0.5060690000000  0.5015070000000  0.4547730000000 1.0
C      1  0.4692810000000  0.5519960000000  0.4788680000000 1.0
C      1  0.5303690000000  0.4690540000000  0.5201890000000 1.0
C      1  0.4527450000000  0.4597560000000  0.5184300000000 1.0
C      1  0.5173270000000  0.4375620000000  0.5731930000000 1.0
C      1  0.4551080000000  0.5076890000000  0.4610680000000 1.0
C      1  0.4486550000000  0.5316550000000  0.4752450000000 1.0
C      1  0.3628310000000  0.4290050000000  0.4839020000000 1.0
C      1  0.4948470000000  0.5678020000000  0.5170990000000 1.0
C      1  0.4584490000000  0.3882350000000  0.5074170000000 1.0
C      1  0.5749520000000  0.5167450000000  0.5508150000000 1.0
C      1  0.4391720000000  0.3946810000000  0.4886420000000 1.0
C      1  0.5811740000000  0.5516100000000  0.5159390000000 1.0
C      1  0.6482250000000  0.4855840000000  0.4894120000000 1.0
C      1  0.4541550000000  0.5113220000000  0.4127440000000 1.0
C      1  0.4854500000000  0.5008650000000  0.5688230000000 1.0
C      1  0.5436090000000  0.5525330000000  0.5456730000000 1.0
C      1  0.4793900000000  0.4934000000000  0.4666080000000 1.0
C      1  0.3879760000000  0.4328850000000  0.4782600000000 1.0
C      1  0.4967310000000  0.5354880000000  0.4164810000000 1.0
C      1  0.6741600000000  0.4851780000000  0.4867880000000 1.0
C      1  0.5511560000000  0.5015950000000  0.4803830000000 1.0
C      1  0.5181170000000  0.5519370000000  0.4082680000000 1.0
C      1  0.5110180000000  0.4797470000000  0.4077410000000 1.0
C      1  0.5151120000000  0.4212560000000  0.5128080000000 1.0
C      1  0.5067030000000  0.4806700000000  0.5298990000000 1.0
C      1  0.4372820000000  0.5018010000000  0.5364420000000 1.0
C      1  0.4288330000000  0.5457050000000  0.5185510000000 1.0
C      1  0.5253650000000  0.5107420000000  0.4763560000000 1.0
C      1  0.4942710000000  0.4162220000000  0.5312220000000 1.0
C      1  0.5696090000000  0.5616270000000  0.4650670000000 1.0
C      1  0.5005860000000  0.4231230000000  0.5578970000000 1.0
C      1  0.4800990000000  0.5168550000000  0.4020960000000 1.0
C      1  0.4687890000000  0.4120370000000  0.5201730000000 1.0
C      1  0.5554150000000  0.4821790000000  0.5231900000000 1.0
C      1  0.6218590000000  0.4860170000000  0.4920880000000 1.0
C      1  0.4945820000000  0.5454780000000  0.4678360000000 1.0
C      1  0.4278420000000  0.4763640000000  0.4376960000000 1.0
C      1  0.5572300000000  0.5629840000000  0.4413570000000 1.0
C      1  0.5238090000000  0.5345850000000  0.5358030000000 1.0
C      1  0.4945850000000  0.4945240000000  0.3920300000000 1.0
C      1  0.4577150000000  0.4829720000000  0.5329290000000 1.0
C      1  0.5540000000000  0.4748950000000  0.5704490000000 1.0
C      1  0.5091550000000  0.5428460000000  0.5135100000000 1.0
C      1  0.4355680000000  0.5382520000000  0.5670110000000 1.0
END
