TITL C-627106-156-1938 8.36500236283961e-08 125000 -903.739731267688 0 0 151 (C1) n - 1
REM
REM in /home/nfs/bkarasulu/CARBON/AIRSS/Generating-Clusters/LCBOP/Only-C1/SD-CG/FIRE-CG
REM
REM
REM
REM
REM
REM ./C.cell (11c1c37f851c82e70ff6c80c92926a4b)
REM AIRSS Version 0.9.1 bugfix July 2018 build 013d7b7c2542+ Fri, 06 Jul 2018 19:26:36 +0100
REM compiler GCC version 9.2.1 20190827 (Red Hat 9.2.1-1)
REM options -cpp -mtune=generic -march=x86-64 -g -O0 -fpre-include=/usr/include/finclude/math-vector-fortran.h
REM seed 1673017505 48055069 -417243132 636703501 -1976637312 -1182966012 788838622 -1097800877 -277539494 -1884320429 -652155328 -890762313 -1382035561 -1338336588 1650992671 -1736995804 1017991220 879160090 454974626 -627456135 532706507 -1176293644 72651425 -119957783 -672844058 1574690781 175237280 -98752056 329067243 -281874033 -830213797 1994356741 1395904143
REM
CELL 1.54180   50.00000   50.00000   50.00000   90.00000   90.00000   90.00000
LATT -1
SFAC C  
C      1  0.5911090000000  0.4386860000000  0.5495930000000 1.0
C      1  0.5119070000000  0.3976840000000  0.5233170000000 1.0
C      1  0.4342320000000  0.4998640000000  0.4257690000000 1.0
C      1  0.5969390000000  0.5623850000000  0.5541150000000 1.0
C      1  0.4861350000000  0.5220970000000  0.4377820000000 1.0
C      1  0.4817090000000  0.3901600000000  0.5562120000000 1.0
C      1  0.4997630000000  0.4986390000000  0.4471430000000 1.0
C      1  0.5918730000000  0.4221260000000  0.4758070000000 1.0
C      1  0.5238480000000  0.5786870000000  0.3955040000000 1.0
C      1  0.5203950000000  0.5895170000000  0.4485920000000 1.0
C      1  0.5291100000000  0.4949030000000  0.5457140000000 1.0
C      1  0.5171810000000  0.5595680000000  0.4999030000000 1.0
C      1  0.4769900000000  0.3970380000000  0.4801900000000 1.0
C      1  0.4580960000000  0.4822740000000  0.6178100000000 1.0
C      1  0.5293250000000  0.5412510000000  0.5413100000000 1.0
C      1  0.5491600000000  0.5925920000000  0.5336810000000 1.0
C      1  0.4960900000000  0.4507120000000  0.5746920000000 1.0
C      1  0.4597790000000  0.5766810000000  0.5177730000000 1.0
C      1  0.5193140000000  0.4638460000000  0.4125350000000 1.0
C      1  0.5406520000000  0.4110330000000  0.4854460000000 1.0
C      1  0.4334340000000  0.5184370000000  0.5609970000000 1.0
C      1  0.3924050000000  0.5045900000000  0.4553730000000 1.0
C      1  0.4138430000000  0.4412150000000  0.5734320000000 1.0
C      1  0.4362340000000  0.4687690000000  0.6100880000000 1.0
C      1  0.5131780000000  0.4851600000000  0.4268370000000 1.0
C      1  0.5325650000000  0.4688030000000  0.5537190000000 1.0
C      1  0.4656310000000  0.4774100000000  0.3941200000000 1.0
C      1  0.4440470000000  0.5772900000000  0.5626850000000 1.0
C      1  0.4579000000000  0.5821370000000  0.4355280000000 1.0
C      1  0.5465330000000  0.4287690000000  0.5713580000000 1.0
C      1  0.3856460000000  0.5031340000000  0.4819780000000 1.0
C      1  0.5935320000000  0.5373530000000  0.4566340000000 1.0
C      1  0.6150320000000  0.4774670000000  0.5188110000000 1.0
C      1  0.4186620000000  0.4417090000000  0.4806820000000 1.0
C      1  0.5298680000000  0.5329240000000  0.3902390000000 1.0
C      1  0.5064350000000  0.5548240000000  0.5266910000000 1.0
C      1  0.5593760000000  0.4049960000000  0.5308980000000 1.0
C      1  0.4544440000000  0.5922380000000  0.5411610000000 1.0
C      1  0.5300530000000  0.5290620000000  0.4655610000000 1.0
C      1  0.4593080000000  0.4510700000000  0.5396640000000 1.0
C      1  0.4588700000000  0.5296470000000  0.5679780000000 1.0
C      1  0.5083010000000  0.4006260000000  0.5530180000000 1.0
C      1  0.4833580000000  0.5149480000000  0.5622970000000 1.0
C      1  0.4282240000000  0.4166460000000  0.4786610000000 1.0
C      1  0.4555390000000  0.5018530000000  0.4056380000000 1.0
C      1  0.4815550000000  0.5496280000000  0.3997030000000 1.0
C      1  0.4669900000000  0.5876700000000  0.4916290000000 1.0
C      1  0.5633020000000  0.4635660000000  0.5123330000000 1.0
C      1  0.4162320000000  0.4640140000000  0.5909180000000 1.0
C      1  0.5571630000000  0.5177660000000  0.5945440000000 1.0
C      1  0.5172050000000  0.4226390000000  0.5691260000000 1.0
C      1  0.4664340000000  0.5717020000000  0.4114150000000 1.0
C      1  0.4250570000000  0.4678840000000  0.4833530000000 1.0
C      1  0.6187330000000  0.4626720000000  0.4946880000000 1.0
C      1  0.5276520000000  0.4375310000000  0.4199780000000 1.0
C      1  0.5301330000000  0.5368410000000  0.4397180000000 1.0
C      1  0.5590650000000  0.5353450000000  0.5350220000000 1.0
C      1  0.5493480000000  0.5806590000000  0.4058970000000 1.0
C      1  0.5640220000000  0.5100190000000  0.5218510000000 1.0
C      1  0.6064970000000  0.4597160000000  0.5406320000000 1.0
C      1  0.4472990000000  0.4911450000000  0.4510270000000 1.0
C      1  0.4756880000000  0.5538740000000  0.5236200000000 1.0
C      1  0.4956000000000  0.5153290000000  0.6148740000000 1.0
C      1  0.5208330000000  0.4932340000000  0.5180010000000 1.0
C      1  0.5697280000000  0.5782850000000  0.4611990000000 1.0
C      1  0.5670150000000  0.5124570000000  0.4944150000000 1.0
C      1  0.3917630000000  0.5052190000000  0.5357590000000 1.0
C      1  0.4753300000000  0.6112860000000  0.5451790000000 1.0
C      1  0.4663750000000  0.5314610000000  0.5083900000000 1.0
C      1  0.4031430000000  0.5639790000000  0.4302740000000 1.0
C      1  0.4462490000000  0.4835820000000  0.5008210000000 1.0
C      1  0.5114100000000  0.5351890000000  0.4862450000000 1.0
C      1  0.5864770000000  0.5460220000000  0.5349820000000 1.0
C      1  0.4910980000000  0.6041970000000  0.5003760000000 1.0
C      1  0.5851470000000  0.4867970000000  0.4345490000000 1.0
C      1  0.5205780000000  0.5195620000000  0.5602860000000 1.0
C      1  0.3953070000000  0.5109100000000  0.5079470000000 1.0
C      1  0.4398810000000  0.5452150000000  0.4588600000000 1.0
C      1  0.4555540000000  0.4613790000000  0.4522980000000 1.0
C      1  0.4747560000000  0.4533750000000  0.4735920000000 1.0
C      1  0.4107700000000  0.5153480000000  0.4354760000000 1.0
C      1  0.5677660000000  0.4212680000000  0.5525960000000 1.0
C      1  0.4894970000000  0.5478020000000  0.4487930000000 1.0
C      1  0.5783160000000  0.5585700000000  0.4414610000000 1.0
C      1  0.5173180000000  0.4219580000000  0.4729850000000 1.0
C      1  0.4800010000000  0.4284970000000  0.4112320000000 1.0
C      1  0.4409190000000  0.4680870000000  0.5262380000000 1.0
C      1  0.4907320000000  0.5202310000000  0.5005190000000 1.0
C      1  0.5595000000000  0.4618760000000  0.4646390000000 1.0
C      1  0.4429920000000  0.4412200000000  0.4370080000000 1.0
C      1  0.5037350000000  0.4206400000000  0.4270690000000 1.0
C      1  0.6141090000000  0.5069540000000  0.5168070000000 1.0
C      1  0.5969260000000  0.5471650000000  0.4863060000000 1.0
C      1  0.4986080000000  0.4399280000000  0.4861240000000 1.0
C      1  0.4821470000000  0.4926010000000  0.5455610000000 1.0
C      1  0.5378960000000  0.4018980000000  0.5125370000000 1.0
C      1  0.6101240000000  0.4408940000000  0.4815480000000 1.0
C      1  0.5565420000000  0.4414850000000  0.4233380000000 1.0
C      1  0.5595470000000  0.5821960000000  0.5087190000000 1.0
C      1  0.5691530000000  0.4629860000000  0.4384390000000 1.0
C      1  0.5357850000000  0.5787000000000  0.4919580000000 1.0
C      1  0.4998100000000  0.6068490000000  0.5298500000000 1.0
C      1  0.5122540000000  0.5360550000000  0.6029140000000 1.0
C      1  0.5000290000000  0.5723820000000  0.4470810000000 1.0
C      1  0.6030210000000  0.5341940000000  0.5124590000000 1.0
C      1  0.4494730000000  0.4005360000000  0.4752370000000 1.0
C      1  0.4176740000000  0.5282850000000  0.5053790000000 1.0
C      1  0.4851780000000  0.4883750000000  0.6120680000000 1.0
C      1  0.4548090000000  0.4219320000000  0.4222990000000 1.0
C      1  0.4984280000000  0.4667050000000  0.5984540000000 1.0
C      1  0.4516910000000  0.4239750000000  0.5448400000000 1.0
C      1  0.4845390000000  0.3972450000000  0.5094940000000 1.0
C      1  0.4174440000000  0.5431510000000  0.4404440000000 1.0
C      1  0.5422960000000  0.5861910000000  0.4650980000000 1.0
C      1  0.4798150000000  0.4644800000000  0.5538810000000 1.0
C      1  0.4433910000000  0.5152060000000  0.4982830000000 1.0
C      1  0.5480760000000  0.4671160000000  0.4888260000000 1.0
C      1  0.4657300000000  0.4013470000000  0.5340300000000 1.0
C      1  0.5003910000000  0.4085910000000  0.4547280000000 1.0
C      1  0.5251370000000  0.4833370000000  0.4914280000000 1.0
C      1  0.4081070000000  0.5053880000000  0.5595830000000 1.0
C      1  0.5095440000000  0.5537360000000  0.3917590000000 1.0
C      1  0.5530740000000  0.5162040000000  0.4728100000000 1.0
C      1  0.4031510000000  0.4873610000000  0.5808540000000 1.0
C      1  0.4574580000000  0.5570040000000  0.5772370000000 1.0
C      1  0.4127640000000  0.5556810000000  0.5073270000000 1.0
C      1  0.4134110000000  0.4612360000000  0.5303300000000 1.0
C      1  0.5210230000000  0.4508260000000  0.5341350000000 1.0
C      1  0.4341120000000  0.4220410000000  0.5676190000000 1.0
C      1  0.3998010000000  0.4478590000000  0.5494560000000 1.0
C      1  0.4763140000000  0.4788990000000  0.4867640000000 1.0
C      1  0.5018410000000  0.4882730000000  0.4741100000000 1.0
C      1  0.5045500000000  0.5627750000000  0.5928630000000 1.0
C      1  0.5319110000000  0.5239830000000  0.5866900000000 1.0
C      1  0.5809860000000  0.5727950000000  0.4889880000000 1.0
C      1  0.4772420000000  0.4527260000000  0.3953750000000 1.0
C      1  0.5669600000000  0.4122010000000  0.4753190000000 1.0
C      1  0.5653590000000  0.5582220000000  0.4154120000000 1.0
C      1  0.4766180000000  0.5664310000000  0.5953810000000 1.0
C      1  0.4469330000000  0.5176580000000  0.4678960000000 1.0
C      1  0.5554630000000  0.5350360000000  0.4007280000000 1.0
C      1  0.5171930000000  0.5805230000000  0.5723140000000 1.0
C      1  0.5941770000000  0.5107330000000  0.4447620000000 1.0
C      1  0.5226740000000  0.5951100000000  0.5462360000000 1.0
C      1  0.5687740000000  0.4836440000000  0.5298280000000 1.0
C      1  0.4533070000000  0.5724410000000  0.4631080000000 1.0
C      1  0.4744140000000  0.5233590000000  0.4110600000000 1.0
C      1  0.5465840000000  0.4571550000000  0.5747960000000 1.0
C      1  0.4937090000000  0.4994940000000  0.5200980000000 1.0
C      1  0.4010250000000  0.5789750000000  0.5073660000000 1.0
C      1  0.5053120000000  0.4450020000000  0.5132150000000 1.0
END
