TITL C-627109-622-2076 -3.89531365950392e-06 125000 -1077.76381679779 0 0 174 (C1) n - 1
REM
REM in /home/nfs/bkarasulu/CARBON/AIRSS/Generating-Clusters/LCBOP/Only-C1/SD-CG/FIRE-CG
REM
REM
REM
REM
REM
REM ./C.cell (11c1c37f851c82e70ff6c80c92926a4b)
REM AIRSS Version 0.9.1 bugfix July 2018 build 013d7b7c2542+ Fri, 06 Jul 2018 19:26:36 +0100
REM compiler GCC version 9.2.1 20190827 (Red Hat 9.2.1-1)
REM options -cpp -mtune=generic -march=x86-64 -g -O0 -fpre-include=/usr/include/finclude/math-vector-fortran.h
REM seed -856746980 1507730494 -602515326 219736173 -313995843 -270517200 964765038 2120279394 318437952 844960891 1132541377 1660306725 353070236 -1019202157 1213938679 -851308820 1024536446 1770987169 -629593620 -413687727 -2101195347 -2032045629 -906245070 -789170483 -384005831 -1081445024 -988390132 -618387661 -815562440 -2033903779 -1960134365 -239270064 -1222840962
REM
CELL 1.54180   50.00000   50.00000   50.00000   90.00000   90.00000   90.00000
LATT -1
SFAC C  
C      1  0.5143500000000  0.5849700000000  0.5768260000000 1.0
C      1  0.4085810000000  0.4769010000000  0.5648370000000 1.0
C      1  0.5401340000000  0.5268680000000  0.5738910000000 1.0
C      1  0.4125930000000  0.4486590000000  0.5663490000000 1.0
C      1  0.5335680000000  0.5642130000000  0.4347330000000 1.0
C      1  0.5189170000000  0.4919670000000  0.4023720000000 1.0
C      1  0.4073680000000  0.4443450000000  0.4535050000000 1.0
C      1  0.4267110000000  0.5434540000000  0.5667270000000 1.0
C      1  0.5047670000000  0.6213350000000  0.5050290000000 1.0
C      1  0.4788250000000  0.6318880000000  0.4989280000000 1.0
C      1  0.4508750000000  0.4699180000000  0.3847300000000 1.0
C      1  0.5479960000000  0.5068360000000  0.4773290000000 1.0
C      1  0.5394600000000  0.5001380000000  0.4512180000000 1.0
C      1  0.5451640000000  0.4928900000000  0.6142460000000 1.0
C      1  0.5508570000000  0.4795930000000  0.5526560000000 1.0
C      1  0.5091270000000  0.5803460000000  0.4429370000000 1.0
C      1  0.4611660000000  0.5466700000000  0.5016330000000 1.0
C      1  0.4368900000000  0.4153990000000  0.5100460000000 1.0
C      1  0.4853130000000  0.4395490000000  0.4920390000000 1.0
C      1  0.5058300000000  0.6033420000000  0.5281510000000 1.0
C      1  0.3685500000000  0.4809940000000  0.4705490000000 1.0
C      1  0.4557590000000  0.4812950000000  0.6209270000000 1.0
C      1  0.5777400000000  0.5431350000000  0.4428940000000 1.0
C      1  0.4167000000000  0.5638630000000  0.5173250000000 1.0
C      1  0.5152820000000  0.6044640000000  0.4573160000000 1.0
C      1  0.4398990000000  0.5671520000000  0.5766500000000 1.0
C      1  0.4089700000000  0.5112880000000  0.3802600000000 1.0
C      1  0.5065130000000  0.5581210000000  0.4904890000000 1.0
C      1  0.5391190000000  0.4595530000000  0.5097030000000 1.0
C      1  0.5527880000000  0.4280090000000  0.4726820000000 1.0
C      1  0.5108850000000  0.5227690000000  0.5661780000000 1.0
C      1  0.5705010000000  0.4523540000000  0.4331480000000 1.0
C      1  0.4582390000000  0.5204230000000  0.5112520000000 1.0
C      1  0.4069200000000  0.4658540000000  0.4069010000000 1.0
C      1  0.4800510000000  0.5715370000000  0.4435360000000 1.0
C      1  0.4781750000000  0.5200270000000  0.4337350000000 1.0
C      1  0.4789600000000  0.4691910000000  0.6108900000000 1.0
C      1  0.4343130000000  0.4749730000000  0.6055340000000 1.0
C      1  0.4840690000000  0.5631650000000  0.5076730000000 1.0
C      1  0.5174010000000  0.4588090000000  0.4666710000000 1.0
C      1  0.5578160000000  0.5626590000000  0.4523700000000 1.0
C      1  0.5499360000000  0.3915190000000  0.5201610000000 1.0
C      1  0.4308740000000  0.4529520000000  0.3969110000000 1.0
C      1  0.5322020000000  0.3955310000000  0.5427810000000 1.0
C      1  0.5132290000000  0.5171630000000  0.5385930000000 1.0
C      1  0.4252390000000  0.4607170000000  0.4684400000000 1.0
C      1  0.4057610000000  0.4188140000000  0.4660480000000 1.0
C      1  0.6542390000000  0.5233650000000  0.4876050000000 1.0
C      1  0.4506100000000  0.5267160000000  0.6057930000000 1.0
C      1  0.5289460000000  0.4215020000000  0.5530880000000 1.0
C      1  0.5036180000000  0.5374200000000  0.4715100000000 1.0
C      1  0.5986890000000  0.5296210000000  0.4577050000000 1.0
C      1  0.4453220000000  0.5962390000000  0.4817360000000 1.0
C      1  0.3903060000000  0.5116270000000  0.4410340000000 1.0
C      1  0.5052790000000  0.4374800000000  0.5461090000000 1.0
C      1  0.5826320000000  0.4476450000000  0.5346770000000 1.0
C      1  0.5289460000000  0.5186530000000  0.6173980000000 1.0
C      1  0.4313510000000  0.5306680000000  0.4640940000000 1.0
C      1  0.6071400000000  0.5394140000000  0.4848210000000 1.0
C      1  0.4164590000000  0.5478080000000  0.5398770000000 1.0
C      1  0.5230870000000  0.4376870000000  0.4141750000000 1.0
C      1  0.4755680000000  0.4535570000000  0.4308810000000 1.0
C      1  0.5756940000000  0.4414280000000  0.4602170000000 1.0
C      1  0.5851850000000  0.5156810000000  0.5526670000000 1.0
C      1  0.5409900000000  0.5460810000000  0.4124430000000 1.0
C      1  0.5015720000000  0.4345200000000  0.5936710000000 1.0
C      1  0.4404680000000  0.4440060000000  0.5157130000000 1.0
C      1  0.4795030000000  0.3932450000000  0.4995530000000 1.0
C      1  0.5941070000000  0.5007210000000  0.4647260000000 1.0
C      1  0.5560760000000  0.5747570000000  0.4778020000000 1.0
C      1  0.5575560000000  0.5708660000000  0.5370780000000 1.0
C      1  0.4665130000000  0.4983680000000  0.4197040000000 1.0
C      1  0.5367260000000  0.4649850000000  0.6138270000000 1.0
C      1  0.5323760000000  0.5296530000000  0.5208860000000 1.0
C      1  0.4477330000000  0.4384550000000  0.5987150000000 1.0
C      1  0.4977800000000  0.4896120000000  0.3857350000000 1.0
C      1  0.4973980000000  0.4430680000000  0.4192770000000 1.0
C      1  0.6369180000000  0.4791170000000  0.4720570000000 1.0
C      1  0.5049990000000  0.3828490000000  0.5081330000000 1.0
C      1  0.5192580000000  0.6168410000000  0.4810160000000 1.0
C      1  0.5002740000000  0.5151240000000  0.6120660000000 1.0
C      1  0.5493280000000  0.4396450000000  0.4189580000000 1.0
C      1  0.5912770000000  0.4492000000000  0.5084560000000 1.0
C      1  0.5001330000000  0.5028490000000  0.5852530000000 1.0
C      1  0.4814020000000  0.4137300000000  0.4799190000000 1.0
C      1  0.5078670000000  0.3806350000000  0.5376150000000 1.0
C      1  0.4392220000000  0.4805280000000  0.4549400000000 1.0
C      1  0.4908090000000  0.4627900000000  0.4757370000000 1.0
C      1  0.5762060000000  0.5916280000000  0.4869620000000 1.0
C      1  0.5311120000000  0.4754450000000  0.5319620000000 1.0
C      1  0.4511630000000  0.5401210000000  0.3675870000000 1.0
C      1  0.4516050000000  0.4080230000000  0.4167640000000 1.0
C      1  0.4603900000000  0.5077650000000  0.5360000000000 1.0
C      1  0.5550730000000  0.5444070000000  0.5289090000000 1.0
C      1  0.4373730000000  0.4263380000000  0.4034060000000 1.0
C      1  0.4268850000000  0.4592880000000  0.4962500000000 1.0
C      1  0.4896130000000  0.4046400000000  0.4541810000000 1.0
C      1  0.4274920000000  0.5286480000000  0.3720210000000 1.0
C      1  0.4597900000000  0.3838260000000  0.5424280000000 1.0
C      1  0.4627770000000  0.5816210000000  0.5686440000000 1.0
C      1  0.5676510000000  0.4965870000000  0.5964210000000 1.0
C      1  0.3689780000000  0.4834170000000  0.4971580000000 1.0
C      1  0.4964490000000  0.4521990000000  0.5693580000000 1.0
C      1  0.3999590000000  0.4891180000000  0.3922120000000 1.0
C      1  0.4586770000000  0.4595910000000  0.5318450000000 1.0
C      1  0.4595120000000  0.5018900000000  0.4898730000000 1.0
C      1  0.4913260000000  0.5148410000000  0.4590040000000 1.0
C      1  0.5388240000000  0.5414580000000  0.5994610000000 1.0
C      1  0.5745800000000  0.5051910000000  0.4858750000000 1.0
C      1  0.6547540000000  0.4976330000000  0.4798150000000 1.0
C      1  0.6197690000000  0.6195350000000  0.4960960000000 1.0
C      1  0.5028800000000  0.5476190000000  0.3748990000000 1.0
C      1  0.5310560000000  0.4413830000000  0.5974670000000 1.0
C      1  0.5321290000000  0.3895950000000  0.4971430000000 1.0
C      1  0.5939580000000  0.4539810000000  0.4794540000000 1.0
C      1  0.5373350000000  0.4492700000000  0.4838630000000 1.0
C      1  0.4753650000000  0.4831370000000  0.5357580000000 1.0
C      1  0.6107320000000  0.5123610000000  0.5617630000000 1.0
C      1  0.4771440000000  0.5461590000000  0.3680070000000 1.0
C      1  0.3817700000000  0.4848740000000  0.4458090000000 1.0
C      1  0.5463540000000  0.4356420000000  0.5717350000000 1.0
C      1  0.4922630000000  0.5451090000000  0.5702110000000 1.0
C      1  0.4406270000000  0.5043870000000  0.4694780000000 1.0
C      1  0.4857260000000  0.4922380000000  0.4797240000000 1.0
C      1  0.5886780000000  0.5248290000000  0.5027240000000 1.0
C      1  0.4759140000000  0.4397690000000  0.6075250000000 1.0
C      1  0.5292130000000  0.5145520000000  0.4962550000000 1.0
C      1  0.5068340000000  0.4974530000000  0.4994760000000 1.0
C      1  0.4839860000000  0.5847840000000  0.5262410000000 1.0
C      1  0.5791370000000  0.5293860000000  0.5285260000000 1.0
C      1  0.4949920000000  0.4382760000000  0.5195170000000 1.0
C      1  0.4315120000000  0.5201970000000  0.5845740000000 1.0
C      1  0.4480950000000  0.5510950000000  0.4755990000000 1.0
C      1  0.4618340000000  0.5922790000000  0.5426050000000 1.0
C      1  0.5767660000000  0.3877290000000  0.5206450000000 1.0
C      1  0.4297190000000  0.5878550000000  0.5062100000000 1.0
C      1  0.5322820000000  0.5696430000000  0.5950130000000 1.0
C      1  0.4886740000000  0.5722150000000  0.5754360000000 1.0
C      1  0.5378400000000  0.4030470000000  0.4723890000000 1.0
C      1  0.5744400000000  0.5036210000000  0.4137710000000 1.0
C      1  0.6346260000000  0.5416750000000  0.4901400000000 1.0
C      1  0.4590720000000  0.4759030000000  0.4357630000000 1.0
C      1  0.4574060000000  0.5759830000000  0.4635710000000 1.0
C      1  0.4841400000000  0.3767410000000  0.5521020000000 1.0
C      1  0.4073900000000  0.5308830000000  0.4492720000000 1.0
C      1  0.4755210000000  0.5476110000000  0.4278300000000 1.0
C      1  0.4564240000000  0.3957380000000  0.5170270000000 1.0
C      1  0.5977000000000  0.6063560000000  0.4917640000000 1.0
C      1  0.5685670000000  0.6168770000000  0.5502950000000 1.0
C      1  0.5845890000000  0.6368140000000  0.5552930000000 1.0
C      1  0.5783220000000  0.4778090000000  0.4219410000000 1.0
C      1  0.4902350000000  0.4769480000000  0.5842690000000 1.0
C      1  0.5614050000000  0.5046730000000  0.5677460000000 1.0
C      1  0.5285090000000  0.4947890000000  0.4272900000000 1.0
C      1  0.4230440000000  0.4918020000000  0.5847800000000 1.0
C      1  0.4392420000000  0.6021590000000  0.5294250000000 1.0
C      1  0.5643980000000  0.4539160000000  0.5569530000000 1.0
C      1  0.4749170000000  0.5262990000000  0.6180610000000 1.0
C      1  0.3923110000000  0.4870830000000  0.5445020000000 1.0
C      1  0.5175680000000  0.3994780000000  0.4525560000000 1.0
C      1  0.3952760000000  0.4618370000000  0.4333550000000 1.0
C      1  0.5253120000000  0.5459660000000  0.3892580000000 1.0
C      1  0.5317560000000  0.5704670000000  0.4913930000000 1.0
C      1  0.4704510000000  0.4892020000000  0.3927420000000 1.0
C      1  0.4178470000000  0.4096270000000  0.4888830000000 1.0
C      1  0.5658380000000  0.5305830000000  0.4189050000000 1.0
C      1  0.3781700000000  0.4873680000000  0.5218890000000 1.0
C      1  0.5227350000000  0.5988520000000  0.5519030000000 1.0
C      1  0.4705870000000  0.4003250000000  0.4339920000000 1.0
C      1  0.6090400000000  0.4767210000000  0.4694710000000 1.0
C      1  0.5504880000000  0.5961980000000  0.5462770000000 1.0
C      1  0.4582690000000  0.6214770000000  0.4847120000000 1.0
C      1  0.5045680000000  0.4902300000000  0.5283850000000 1.0
C      1  0.4293220000000  0.4321500000000  0.5797370000000 1.0
END
