TITL C-627107-135-1132 1.39876869794951e-05 125000 -676.393624299568 0 0 111 (C1) n - 1
REM
REM in /home/nfs/bkarasulu/CARBON/AIRSS/Generating-Clusters/LCBOP/Only-C1/SD-CG/FIRE-CG
REM
REM
REM
REM
REM
REM ./C.cell (11c1c37f851c82e70ff6c80c92926a4b)
REM AIRSS Version 0.9.1 bugfix July 2018 build 013d7b7c2542+ Fri, 06 Jul 2018 19:26:36 +0100
REM compiler GCC version 9.2.1 20190827 (Red Hat 9.2.1-1)
REM options -cpp -mtune=generic -march=x86-64 -g -O0 -fpre-include=/usr/include/finclude/math-vector-fortran.h
REM seed -2066566501 71580267 1396006637 1905106645 -953628705 1384359383 -403570526 -1639843302 -796050587 88461068 254984691 -940649113 -1705202114 231220567 1224729910 2010363992 1427873722 -478166070 -167327450 771400796 1376671087 1776624791 913370029 -914142795 -895049076 1870822100 1716271388 1883917270 623708160 -1065613958 -1769687073 -2050324842 1438427283
REM
CELL 1.54180   50.00000   50.00000   50.00000   90.00000   90.00000   90.00000
LATT -1
SFAC C  
C      1  0.5719730000000  0.4827370000000  0.4437790000000 1.0
C      1  0.4516570000000  0.4726820000000  0.5527640000000 1.0
C      1  0.4224840000000  0.5131080000000  0.4535510000000 1.0
C      1  0.5288570000000  0.5322560000000  0.5032800000000 1.0
C      1  0.4638390000000  0.4491450000000  0.6126250000000 1.0
C      1  0.4761990000000  0.5867230000000  0.4592560000000 1.0
C      1  0.4773580000000  0.3839740000000  0.4720170000000 1.0
C      1  0.5167460000000  0.5052460000000  0.5456100000000 1.0
C      1  0.5735900000000  0.4699630000000  0.4980270000000 1.0
C      1  0.4763130000000  0.4448290000000  0.5026740000000 1.0
C      1  0.5174650000000  0.4626500000000  0.5213080000000 1.0
C      1  0.5391140000000  0.4907440000000  0.5914860000000 1.0
C      1  0.4396140000000  0.6207780000000  0.5700290000000 1.0
C      1  0.5108720000000  0.4908700000000  0.4595110000000 1.0
C      1  0.4927140000000  0.5073920000000  0.5605650000000 1.0
C      1  0.4752740000000  0.4694660000000  0.4906170000000 1.0
C      1  0.4617860000000  0.4888740000000  0.5037960000000 1.0
C      1  0.5888540000000  0.4786590000000  0.5427800000000 1.0
C      1  0.5714260000000  0.5333300000000  0.4677270000000 1.0
C      1  0.5356750000000  0.5189920000000  0.5846550000000 1.0
C      1  0.4454360000000  0.4832830000000  0.3966850000000 1.0
C      1  0.5289870000000  0.4434510000000  0.5712480000000 1.0
C      1  0.4804040000000  0.5510020000000  0.4249810000000 1.0
C      1  0.4609380000000  0.4483880000000  0.5636650000000 1.0
C      1  0.5559490000000  0.5187270000000  0.4209410000000 1.0
C      1  0.4632140000000  0.5146100000000  0.4918680000000 1.0
C      1  0.5516680000000  0.4666610000000  0.4812160000000 1.0
C      1  0.4631970000000  0.5329100000000  0.5132100000000 1.0
C      1  0.5430070000000  0.5745690000000  0.5746760000000 1.0
C      1  0.4288680000000  0.4417830000000  0.5055980000000 1.0
C      1  0.4635240000000  0.4205900000000  0.4377090000000 1.0
C      1  0.5272590000000  0.4518810000000  0.4320970000000 1.0
C      1  0.4251030000000  0.4865550000000  0.4438150000000 1.0
C      1  0.5109130000000  0.4153600000000  0.4658510000000 1.0
C      1  0.4965870000000  0.6023350000000  0.4733900000000 1.0
C      1  0.4480160000000  0.5186640000000  0.5335710000000 1.0
C      1  0.5903670000000  0.4034860000000  0.4804620000000 1.0
C      1  0.4318110000000  0.5652470000000  0.4608670000000 1.0
C      1  0.4602930000000  0.6230420000000  0.4969060000000 1.0
C      1  0.4245560000000  0.5396540000000  0.4571070000000 1.0
C      1  0.4834980000000  0.4065380000000  0.4545410000000 1.0
C      1  0.4265490000000  0.4837430000000  0.4157510000000 1.0
C      1  0.5326310000000  0.4885620000000  0.4774400000000 1.0
C      1  0.5060890000000  0.6028540000000  0.5447670000000 1.0
C      1  0.4948580000000  0.4244660000000  0.5400760000000 1.0
C      1  0.4829350000000  0.4527310000000  0.4024370000000 1.0
C      1  0.4952450000000  0.3809330000000  0.4930070000000 1.0
C      1  0.4837140000000  0.5509540000000  0.5183590000000 1.0
C      1  0.4415090000000  0.6093960000000  0.4828430000000 1.0
C      1  0.5020770000000  0.6155500000000  0.5213900000000 1.0
C      1  0.4683530000000  0.4275830000000  0.4087740000000 1.0
C      1  0.4208150000000  0.4632450000000  0.4880190000000 1.0
C      1  0.5956160000000  0.4695340000000  0.4470730000000 1.0
C      1  0.5309120000000  0.4065400000000  0.5196440000000 1.0
C      1  0.5452930000000  0.4956820000000  0.4090730000000 1.0
C      1  0.5471750000000  0.4665010000000  0.5764600000000 1.0
C      1  0.5277650000000  0.5041600000000  0.5002980000000 1.0
C      1  0.5870740000000  0.4627400000000  0.5197600000000 1.0
C      1  0.5605300000000  0.5637340000000  0.5570510000000 1.0
C      1  0.5487130000000  0.4721010000000  0.4263960000000 1.0
C      1  0.5513220000000  0.4401490000000  0.4708640000000 1.0
C      1  0.4878050000000  0.5032390000000  0.4113250000000 1.0
C      1  0.4735560000000  0.4804430000000  0.3985080000000 1.0
C      1  0.4855550000000  0.5614890000000  0.4503860000000 1.0
C      1  0.4248160000000  0.5554190000000  0.5409300000000 1.0
C      1  0.4321120000000  0.4633440000000  0.4602690000000 1.0
C      1  0.5546550000000  0.5406900000000  0.5418770000000 1.0
C      1  0.4768810000000  0.5660930000000  0.5420620000000 1.0
C      1  0.5165400000000  0.4013250000000  0.4934760000000 1.0
C      1  0.4480810000000  0.5878630000000  0.4657290000000 1.0
C      1  0.5726220000000  0.4697990000000  0.5640610000000 1.0
C      1  0.5225410000000  0.4184540000000  0.5463120000000 1.0
C      1  0.4993850000000  0.4421780000000  0.5177080000000 1.0
C      1  0.4763370000000  0.4473880000000  0.5877770000000 1.0
C      1  0.5061860000000  0.5013670000000  0.4335390000000 1.0
C      1  0.4879670000000  0.6164320000000  0.4970520000000 1.0
C      1  0.5238110000000  0.5966970000000  0.4675400000000 1.0
C      1  0.4210150000000  0.5278400000000  0.5329400000000 1.0
C      1  0.5608470000000  0.5592240000000  0.4605840000000 1.0
C      1  0.5205950000000  0.4898540000000  0.5231280000000 1.0
C      1  0.4981900000000  0.5480090000000  0.4714050000000 1.0
C      1  0.4659500000000  0.4281740000000  0.5438550000000 1.0
C      1  0.4535080000000  0.4337770000000  0.5169570000000 1.0
C      1  0.6086600000000  0.3856550000000  0.4856550000000 1.0
C      1  0.4894690000000  0.5242580000000  0.5817480000000 1.0
C      1  0.4481900000000  0.5718240000000  0.5475410000000 1.0
C      1  0.4520280000000  0.4513030000000  0.6357550000000 1.0
C      1  0.5053170000000  0.5473300000000  0.4989770000000 1.0
C      1  0.4533520000000  0.4906570000000  0.5315690000000 1.0
C      1  0.4549050000000  0.4465460000000  0.4495200000000 1.0
C      1  0.4998490000000  0.4551810000000  0.4256000000000 1.0
C      1  0.4082330000000  0.4867670000000  0.5006670000000 1.0
C      1  0.4426740000000  0.5963660000000  0.5602060000000 1.0
C      1  0.5300930000000  0.4333850000000  0.4541380000000 1.0
C      1  0.5131480000000  0.5389650000000  0.5887310000000 1.0
C      1  0.5984740000000  0.5045350000000  0.5356970000000 1.0
C      1  0.5763460000000  0.5313070000000  0.4969190000000 1.0
C      1  0.4789430000000  0.5299870000000  0.4082850000000 1.0
C      1  0.5539890000000  0.5400620000000  0.5134080000000 1.0
C      1  0.4888860000000  0.4754010000000  0.4675770000000 1.0
C      1  0.4375060000000  0.6451470000000  0.5790430000000 1.0
C      1  0.5158880000000  0.5657310000000  0.5767640000000 1.0
C      1  0.4056660000000  0.5093510000000  0.5165340000000 1.0
C      1  0.5695570000000  0.5128900000000  0.4465190000000 1.0
C      1  0.5966190000000  0.5193370000000  0.5128290000000 1.0
C      1  0.5393340000000  0.5206360000000  0.5554080000000 1.0
C      1  0.5717250000000  0.4217290000000  0.4758250000000 1.0
C      1  0.5044700000000  0.4446480000000  0.5858730000000 1.0
C      1  0.5448920000000  0.5807890000000  0.4624200000000 1.0
C      1  0.4800070000000  0.4605440000000  0.4464810000000 1.0
C      1  0.4982510000000  0.5782600000000  0.5569440000000 1.0
END
