TITL C-627111-6168-2068 0.13196704275191 125000 -336.701496259974 0 0 57 (C1) n - 1
REM
REM in /home/nfs/bkarasulu/CARBON/AIRSS/Generating-Clusters/LCBOP/Only-C1/SD-CG/FIRE-CG
REM
REM
REM
REM
REM
REM ./C.cell (11c1c37f851c82e70ff6c80c92926a4b)
REM AIRSS Version 0.9.1 bugfix July 2018 build 013d7b7c2542+ Fri, 06 Jul 2018 19:26:36 +0100
REM compiler GCC version 9.2.1 20190827 (Red Hat 9.2.1-1)
REM options -cpp -mtune=generic -march=x86-64 -g -O0 -fpre-include=/usr/include/finclude/math-vector-fortran.h
REM seed -2000062890 2100652812 1789942745 -1277997100 1483115586 -301949368 1358206068 703327267 1932640054 1622458208 155201125 122715310 1998018516 1440719195 749219149 -186063591 929627271 222290322 1199681356 -818732120 -110188828 -1888946674 -1996971372 -242516736 -1078209462 2081278034 -596008729 -1614494247 -1283450296 1404755453 -1059543490 -743208845 -1332004307
REM
CELL 1.54180   50.00000   50.00000   50.00000   90.00000   90.00000   90.00000
LATT -1
SFAC C  
C      1  0.5454210000000  0.5516810000000  0.5236060000000 1.0
C      1  0.5761580000000  0.4422680000000  0.5253270000000 1.0
C      1  0.4969500000000  0.5506940000000  0.4663620000000 1.0
C      1  0.5056650000000  0.4730840000000  0.5710040000000 1.0
C      1  0.5554730000000  0.5047530000000  0.5317770000000 1.0
C      1  0.5311180000000  0.4756780000000  0.5636300000000 1.0
C      1  0.4796840000000  0.4770590000000  0.5668260000000 1.0
C      1  0.4679810000000  0.5587190000000  0.5330040000000 1.0
C      1  0.4580700000000  0.5197520000000  0.5602670000000 1.0
C      1  0.5516460000000  0.5312450000000  0.5431070000000 1.0
C      1  0.5074600000000  0.5004570000000  0.4817710000000 1.0
C      1  0.5325450000000  0.4543360000000  0.4394420000000 1.0
C      1  0.5589280000000  0.4445330000000  0.4395700000000 1.0
C      1  0.4264460000000  0.5352820000000  0.5243400000000 1.0
C      1  0.5235050000000  0.5373380000000  0.5866780000000 1.0
C      1  0.4591030000000  0.4917580000000  0.5545290000000 1.0
C      1  0.5483300000000  0.5064000000000  0.5045100000000 1.0
C      1  0.5234330000000  0.5599440000000  0.4737060000000 1.0
C      1  0.4488710000000  0.5478570000000  0.4794700000000 1.0
C      1  0.4972960000000  0.5355530000000  0.5912090000000 1.0
C      1  0.4729790000000  0.5293160000000  0.5821840000000 1.0
C      1  0.5063750000000  0.4415800000000  0.4437600000000 1.0
C      1  0.3788550000000  0.5213310000000  0.5463810000000 1.0
C      1  0.5521460000000  0.4556050000000  0.5249240000000 1.0
C      1  0.4547420000000  0.5002090000000  0.4407600000000 1.0
C      1  0.5764470000000  0.4819990000000  0.4692330000000 1.0
C      1  0.5253010000000  0.4829100000000  0.4391420000000 1.0
C      1  0.4435540000000  0.4718370000000  0.5080570000000 1.0
C      1  0.4496760000000  0.5385880000000  0.5407540000000 1.0
C      1  0.5218950000000  0.4011160000000  0.4941800000000 1.0
C      1  0.4889590000000  0.4585810000000  0.4272400000000 1.0
C      1  0.5439620000000  0.5352190000000  0.5697020000000 1.0
C      1  0.5314370000000  0.4460990000000  0.5077570000000 1.0
C      1  0.5172310000000  0.4280240000000  0.4909400000000 1.0
C      1  0.4985130000000  0.4863620000000  0.4274940000000 1.0
C      1  0.4299820000000  0.5392170000000  0.4965800000000 1.0
C      1  0.4447180000000  0.4800730000000  0.5334650000000 1.0
C      1  0.5297460000000  0.4958720000000  0.4635580000000 1.0
C      1  0.4795540000000  0.5664510000000  0.5100150000000 1.0
C      1  0.5552080000000  0.5778460000000  0.4337830000000 1.0
C      1  0.4589480000000  0.4710300000000  0.4829390000000 1.0
C      1  0.5549490000000  0.4972300000000  0.4783300000000 1.0
C      1  0.5659910000000  0.4215300000000  0.4267490000000 1.0
C      1  0.4983720000000  0.4359120000000  0.4706980000000 1.0
C      1  0.4448920000000  0.4825750000000  0.4589600000000 1.0
C      1  0.5197980000000  0.5118460000000  0.5042680000000 1.0
C      1  0.5398470000000  0.5698260000000  0.4532460000000 1.0
C      1  0.4722890000000  0.4445090000000  0.4780650000000 1.0
C      1  0.4752800000000  0.5571140000000  0.4836740000000 1.0
C      1  0.4914410000000  0.5329580000000  0.4445030000000 1.0
C      1  0.4813420000000  0.5082340000000  0.4342170000000 1.0
C      1  0.5776830000000  0.4600250000000  0.4538560000000 1.0
C      1  0.5489560000000  0.4786530000000  0.5422030000000 1.0
C      1  0.3565980000000  0.5134980000000  0.5574650000000 1.0
C      1  0.4825180000000  0.4897590000000  0.4852640000000 1.0
C      1  0.4016100000000  0.5290450000000  0.5352210000000 1.0
C      1  0.5341190000000  0.5596300000000  0.5002980000000 1.0
END
