TITL C-627108-131-288 -2.44674347531408e-07 125000 -579.595393948826 0 0 96 (C1) n - 1
REM
REM in /home/nfs/bkarasulu/CARBON/AIRSS/Generating-Clusters/LCBOP/Only-C1/SD-CG/FIRE-CG
REM
REM
REM
REM
REM
REM ./C.cell (11c1c37f851c82e70ff6c80c92926a4b)
REM AIRSS Version 0.9.1 bugfix July 2018 build 013d7b7c2542+ Fri, 06 Jul 2018 19:26:36 +0100
REM compiler GCC version 9.2.1 20190827 (Red Hat 9.2.1-1)
REM options -cpp -mtune=generic -march=x86-64 -g -O0 -fpre-include=/usr/include/finclude/math-vector-fortran.h
REM seed -750189052 -1504483342 1066786649 -987968390 -897777590 1986477274 1072622800 -143924252 1667103647 -466656956 -1567856209 -1701368345 -1339088429 837942669 1422086099 -677390729 2142837869 -2136736396 498469168 -1039222691 -2057688283 -1306645422 -1112705143 -338154859 -1808337437 -553451285 2072905538 -1816888911 1354340640 1427961273 -1353310077 -1307726112 1018562565
REM
CELL 1.54180   50.00000   50.00000   50.00000   90.00000   90.00000   90.00000
LATT -1
SFAC C  
C      1  0.4298170000000  0.4840400000000  0.4895050000000 1.0
C      1  0.5155820000000  0.5459600000000  0.5816370000000 1.0
C      1  0.5965210000000  0.4901470000000  0.4501010000000 1.0
C      1  0.5075000000000  0.5363640000000  0.4237510000000 1.0
C      1  0.5680970000000  0.5464040000000  0.5178950000000 1.0
C      1  0.4759950000000  0.5020010000000  0.4336580000000 1.0
C      1  0.5216170000000  0.5607610000000  0.4633560000000 1.0
C      1  0.4582140000000  0.4459070000000  0.4765710000000 1.0
C      1  0.4637620000000  0.5764750000000  0.5175760000000 1.0
C      1  0.4070730000000  0.5593620000000  0.4530910000000 1.0
C      1  0.5379960000000  0.4646150000000  0.4293170000000 1.0
C      1  0.4667560000000  0.5507170000000  0.5659620000000 1.0
C      1  0.5608890000000  0.4353550000000  0.4803740000000 1.0
C      1  0.5320600000000  0.4094850000000  0.5397700000000 1.0
C      1  0.5035210000000  0.4933040000000  0.5468120000000 1.0
C      1  0.5687720000000  0.5703370000000  0.4622720000000 1.0
C      1  0.5875130000000  0.4787240000000  0.4272910000000 1.0
C      1  0.5250280000000  0.5202420000000  0.5927610000000 1.0
C      1  0.5391570000000  0.4753900000000  0.5185900000000 1.0
C      1  0.5468950000000  0.4964430000000  0.5009660000000 1.0
C      1  0.5432160000000  0.5794370000000  0.4659970000000 1.0
C      1  0.4810450000000  0.4842610000000  0.5895500000000 1.0
C      1  0.4416660000000  0.4408390000000  0.4314270000000 1.0
C      1  0.4292060000000  0.4388270000000  0.4805440000000 1.0
C      1  0.5857620000000  0.4845250000000  0.4756260000000 1.0
C      1  0.5721870000000  0.5419080000000  0.4640700000000 1.0
C      1  0.5786550000000  0.4860560000000  0.6272870000000 1.0
C      1  0.4948860000000  0.4354930000000  0.4339610000000 1.0
C      1  0.4957700000000  0.4846450000000  0.4239660000000 1.0
C      1  0.5236630000000  0.4889940000000  0.4255840000000 1.0
C      1  0.4854230000000  0.4139070000000  0.4499170000000 1.0
C      1  0.5216310000000  0.4090910000000  0.4814640000000 1.0
C      1  0.5763060000000  0.5323130000000  0.4920450000000 1.0
C      1  0.4508730000000  0.5389300000000  0.5448160000000 1.0
C      1  0.4361250000000  0.4632950000000  0.5604080000000 1.0
C      1  0.4374930000000  0.4505600000000  0.5331190000000 1.0
C      1  0.5212870000000  0.5491250000000  0.5099330000000 1.0
C      1  0.4991820000000  0.5210020000000  0.5472050000000 1.0
C      1  0.4819960000000  0.4198060000000  0.5404790000000 1.0
C      1  0.5360180000000  0.4290270000000  0.4662920000000 1.0
C      1  0.5301630000000  0.4830550000000  0.5446650000000 1.0
C      1  0.4697120000000  0.5790160000000  0.5645860000000 1.0
C      1  0.4609860000000  0.5406770000000  0.4072560000000 1.0
C      1  0.4182100000000  0.5096390000000  0.4813470000000 1.0
C      1  0.4684440000000  0.4450750000000  0.4235600000000 1.0
C      1  0.5751800000000  0.5339400000000  0.5428030000000 1.0
C      1  0.4575570000000  0.5489820000000  0.5188860000000 1.0
C      1  0.5033430000000  0.4021090000000  0.5021900000000 1.0
C      1  0.5311050000000  0.5173480000000  0.4282250000000 1.0
C      1  0.5233990000000  0.4426530000000  0.4421100000000 1.0
C      1  0.4576950000000  0.4918390000000  0.5335850000000 1.0
C      1  0.4713100000000  0.4205510000000  0.4732130000000 1.0
C      1  0.5089020000000  0.5609830000000  0.4380890000000 1.0
C      1  0.4542440000000  0.4754240000000  0.4727540000000 1.0
C      1  0.4665750000000  0.4978500000000  0.4599440000000 1.0
C      1  0.4788670000000  0.5883200000000  0.5396910000000 1.0
C      1  0.5529930000000  0.5146490000000  0.5893540000000 1.0
C      1  0.5280350000000  0.5682750000000  0.5676920000000 1.0
C      1  0.5040360000000  0.5343940000000  0.5234770000000 1.0
C      1  0.4590440000000  0.5320770000000  0.4955490000000 1.0
C      1  0.4832930000000  0.4809430000000  0.5303170000000 1.0
C      1  0.4109940000000  0.4666390000000  0.5715080000000 1.0
C      1  0.3942730000000  0.5144090000000  0.4666450000000 1.0
C      1  0.5285020000000  0.5328430000000  0.4708320000000 1.0
C      1  0.5730760000000  0.5035080000000  0.4927590000000 1.0
C      1  0.4802360000000  0.5271400000000  0.4209520000000 1.0
C      1  0.5658120000000  0.4201270000000  0.5039760000000 1.0
C      1  0.4714440000000  0.5871490000000  0.4918030000000 1.0
C      1  0.5672310000000  0.5237670000000  0.5664340000000 1.0
C      1  0.5059000000000  0.4090010000000  0.5297650000000 1.0
C      1  0.4579630000000  0.4302740000000  0.5340440000000 1.0
C      1  0.4436010000000  0.5119760000000  0.5444550000000 1.0
C      1  0.4242360000000  0.4577310000000  0.5044040000000 1.0
C      1  0.4226340000000  0.4358920000000  0.4519190000000 1.0
C      1  0.5772150000000  0.4577510000000  0.4778420000000 1.0
C      1  0.5036310000000  0.4993290000000  0.5961400000000 1.0
C      1  0.4596440000000  0.4716070000000  0.5769720000000 1.0
C      1  0.4526210000000  0.5789070000000  0.4714750000000 1.0
C      1  0.4347680000000  0.5337210000000  0.4815170000000 1.0
C      1  0.4765120000000  0.4022770000000  0.4935570000000 1.0
C      1  0.4914470000000  0.5375950000000  0.5687150000000 1.0
C      1  0.5183270000000  0.4597650000000  0.5064020000000 1.0
C      1  0.5558810000000  0.4127030000000  0.5277360000000 1.0
C      1  0.5650400000000  0.4650110000000  0.4216760000000 1.0
C      1  0.4991510000000  0.5000480000000  0.4907100000000 1.0
C      1  0.5298390000000  0.5799400000000  0.5406360000000 1.0
C      1  0.5437140000000  0.5625500000000  0.5207790000000 1.0
C      1  0.4947220000000  0.4754340000000  0.5048640000000 1.0
C      1  0.3899720000000  0.5379800000000  0.4533870000000 1.0
C      1  0.5057930000000  0.5939610000000  0.5286330000000 1.0
C      1  0.4768540000000  0.5144780000000  0.4817130000000 1.0
C      1  0.5664910000000  0.5000420000000  0.6089680000000 1.0
C      1  0.4315440000000  0.5590520000000  0.4674980000000 1.0
C      1  0.4983640000000  0.5981500000000  0.4991590000000 1.0
C      1  0.5493080000000  0.5271280000000  0.4503070000000 1.0
C      1  0.5250130000000  0.5102440000000  0.4875790000000 1.0
END
