TITL C-627108-131-1334 -5.55584311603664e-07 125000 -648.087896351484 0 0 107 (C1) n - 1
REM
REM in /home/nfs/bkarasulu/CARBON/AIRSS/Generating-Clusters/LCBOP/Only-C1/SD-CG/FIRE-CG
REM
REM
REM
REM
REM
REM ./C.cell (11c1c37f851c82e70ff6c80c92926a4b)
REM AIRSS Version 0.9.1 bugfix July 2018 build 013d7b7c2542+ Fri, 06 Jul 2018 19:26:36 +0100
REM compiler GCC version 9.2.1 20190827 (Red Hat 9.2.1-1)
REM options -cpp -mtune=generic -march=x86-64 -g -O0 -fpre-include=/usr/include/finclude/math-vector-fortran.h
REM seed 161907975 -237262030 -1652372427 419330950 -468017370 -1936886250 1956827708 1587580410 518394140 222689857 405242115 1822723990 185583929 -1729957442 1320965798 -1337792868 -902834442 1805375972 780131673 -1835215437 1122845520 -387222530 1499231912 923416872 -383382528 -1491213303 -2120991286 -563000943 1483588444 -480171983 -828677612 -1343980983 1378188097
REM
CELL 1.54180   50.00000   50.00000   50.00000   90.00000   90.00000   90.00000
LATT -1
SFAC C  
C      1  0.4513240000000  0.4272940000000  0.4586380000000 1.0
C      1  0.5262640000000  0.5010010000000  0.4272450000000 1.0
C      1  0.5232940000000  0.5376340000000  0.5021410000000 1.0
C      1  0.4928580000000  0.5721710000000  0.4886130000000 1.0
C      1  0.4910940000000  0.4537680000000  0.4341890000000 1.0
C      1  0.5060400000000  0.4638900000000  0.5318190000000 1.0
C      1  0.4903760000000  0.5854290000000  0.4404620000000 1.0
C      1  0.4886130000000  0.5471170000000  0.4164500000000 1.0
C      1  0.4995630000000  0.5044180000000  0.4353440000000 1.0
C      1  0.5130700000000  0.4744370000000  0.4822890000000 1.0
C      1  0.4980520000000  0.5369250000000  0.5874110000000 1.0
C      1  0.4325340000000  0.4962900000000  0.4327830000000 1.0
C      1  0.4315510000000  0.6259880000000  0.4584160000000 1.0
C      1  0.4152890000000  0.5022310000000  0.4560470000000 1.0
C      1  0.4136160000000  0.5084010000000  0.5278630000000 1.0
C      1  0.4539360000000  0.5132370000000  0.4211330000000 1.0
C      1  0.4464340000000  0.6055250000000  0.4521810000000 1.0
C      1  0.4889900000000  0.5141180000000  0.5340410000000 1.0
C      1  0.6180130000000  0.4851680000000  0.4551230000000 1.0
C      1  0.5190890000000  0.4320060000000  0.4703790000000 1.0
C      1  0.4709020000000  0.4688430000000  0.4225710000000 1.0
C      1  0.5259860000000  0.5823340000000  0.5222010000000 1.0
C      1  0.5744130000000  0.4639150000000  0.4568180000000 1.0
C      1  0.4322970000000  0.4678900000000  0.5179030000000 1.0
C      1  0.5503650000000  0.4702470000000  0.5125220000000 1.0
C      1  0.5753670000000  0.5221110000000  0.5360860000000 1.0
C      1  0.5542800000000  0.5473220000000  0.4586540000000 1.0
C      1  0.5478650000000  0.4370690000000  0.5460590000000 1.0
C      1  0.5579130000000  0.4640430000000  0.4326660000000 1.0
C      1  0.5383730000000  0.5567050000000  0.5207620000000 1.0
C      1  0.5650550000000  0.5739910000000  0.4613340000000 1.0
C      1  0.4083110000000  0.4523060000000  0.4572490000000 1.0
C      1  0.5003550000000  0.4866510000000  0.5757080000000 1.0
C      1  0.4642880000000  0.5148050000000  0.4711660000000 1.0
C      1  0.4735070000000  0.4927940000000  0.5848220000000 1.0
C      1  0.5067580000000  0.4915450000000  0.5471610000000 1.0
C      1  0.5638700000000  0.5246530000000  0.4761240000000 1.0
C      1  0.5862860000000  0.5000110000000  0.5164000000000 1.0
C      1  0.4999630000000  0.5820190000000  0.5717120000000 1.0
C      1  0.4522300000000  0.4918890000000  0.4826610000000 1.0
C      1  0.4777700000000  0.4962400000000  0.4186740000000 1.0
C      1  0.4918600000000  0.5553640000000  0.5659740000000 1.0
C      1  0.5343560000000  0.5018750000000  0.5410640000000 1.0
C      1  0.4432590000000  0.4676510000000  0.4301860000000 1.0
C      1  0.4093900000000  0.4769640000000  0.4712060000000 1.0
C      1  0.5681010000000  0.5011920000000  0.4028790000000 1.0
C      1  0.5521040000000  0.5967610000000  0.4687830000000 1.0
C      1  0.5067150000000  0.5622380000000  0.4331860000000 1.0
C      1  0.4066850000000  0.5204120000000  0.5021430000000 1.0
C      1  0.4188940000000  0.5260740000000  0.4755700000000 1.0
C      1  0.4521100000000  0.5563070000000  0.4468850000000 1.0
C      1  0.4613300000000  0.5404300000000  0.4243720000000 1.0
C      1  0.5778560000000  0.4709980000000  0.5239270000000 1.0
C      1  0.5441450000000  0.5181930000000  0.4955150000000 1.0
C      1  0.4647100000000  0.5566230000000  0.5239990000000 1.0
C      1  0.5451970000000  0.4296140000000  0.4804970000000 1.0
C      1  0.4905190000000  0.5097760000000  0.4617820000000 1.0
C      1  0.4992530000000  0.4115410000000  0.4641680000000 1.0
C      1  0.4538290000000  0.4719530000000  0.5792350000000 1.0
C      1  0.4480370000000  0.5404960000000  0.4728130000000 1.0
C      1  0.5263800000000  0.5394280000000  0.5948170000000 1.0
C      1  0.5148810000000  0.4308930000000  0.5832530000000 1.0
C      1  0.5314810000000  0.4146120000000  0.4247580000000 1.0
C      1  0.5188240000000  0.4770330000000  0.5944710000000 1.0
C      1  0.4849570000000  0.5441820000000  0.5411400000000 1.0
C      1  0.4623500000000  0.5834000000000  0.4468500000000 1.0
C      1  0.4594940000000  0.4736590000000  0.5263370000000 1.0
C      1  0.4333110000000  0.4453210000000  0.4454110000000 1.0
C      1  0.5326430000000  0.5664300000000  0.6023110000000 1.0
C      1  0.4808750000000  0.4557960000000  0.5203250000000 1.0
C      1  0.4281980000000  0.4762880000000  0.5654150000000 1.0
C      1  0.4861260000000  0.4263380000000  0.5773670000000 1.0
C      1  0.5246230000000  0.5515620000000  0.4537750000000 1.0
C      1  0.5925530000000  0.4848130000000  0.4655340000000 1.0
C      1  0.5752790000000  0.4490820000000  0.5437500000000 1.0
C      1  0.5682700000000  0.4422360000000  0.4741920000000 1.0
C      1  0.4616410000000  0.5019030000000  0.5339430000000 1.0
C      1  0.5467670000000  0.5246770000000  0.5813890000000 1.0
C      1  0.4651150000000  0.4452400000000  0.5807950000000 1.0
C      1  0.5510860000000  0.4891420000000  0.4205610000000 1.0
C      1  0.5549850000000  0.5139290000000  0.5565980000000 1.0
C      1  0.4676190000000  0.5609220000000  0.4963190000000 1.0
C      1  0.5292350000000  0.6052270000000  0.4808040000000 1.0
C      1  0.4648080000000  0.3889640000000  0.5511130000000 1.0
C      1  0.5240120000000  0.4513230000000  0.5998300000000 1.0
C      1  0.5109470000000  0.4009900000000  0.4389830000000 1.0
C      1  0.5114960000000  0.5926020000000  0.4994570000000 1.0
C      1  0.5324300000000  0.4528560000000  0.5268490000000 1.0
C      1  0.4403440000000  0.5475220000000  0.5345670000000 1.0
C      1  0.4161200000000  0.4805990000000  0.5387070000000 1.0
C      1  0.5853510000000  0.5054950000000  0.4847560000000 1.0
C      1  0.4384480000000  0.5196470000000  0.5367920000000 1.0
C      1  0.4862590000000  0.4037260000000  0.5587510000000 1.0
C      1  0.5380910000000  0.4429860000000  0.4299780000000 1.0
C      1  0.5196800000000  0.5870810000000  0.5899280000000 1.0
C      1  0.5155340000000  0.4499250000000  0.4474130000000 1.0
C      1  0.4763620000000  0.4348520000000  0.5010100000000 1.0
C      1  0.5014810000000  0.5169770000000  0.5070680000000 1.0
C      1  0.5136510000000  0.4000560000000  0.5501710000000 1.0
C      1  0.4768210000000  0.5192680000000  0.5951150000000 1.0
C      1  0.4738890000000  0.4211460000000  0.4753360000000 1.0
C      1  0.5652400000000  0.5483330000000  0.5275240000000 1.0
C      1  0.5026410000000  0.4990450000000  0.4847460000000 1.0
C      1  0.5420760000000  0.4969130000000  0.5135610000000 1.0
C      1  0.5115760000000  0.5523960000000  0.4792690000000 1.0
C      1  0.5316660000000  0.4198370000000  0.5616960000000 1.0
C      1  0.4298810000000  0.4764560000000  0.4912580000000 1.0
END
