TITL C-627111-6168-317 1.97006676621931e-06 125000 -745.749128803183 0 0 125 (C1) n - 1
REM
REM in /home/nfs/bkarasulu/CARBON/AIRSS/Generating-Clusters/LCBOP/Only-C1/SD-CG/FIRE-CG
REM
REM
REM
REM
REM
REM ./C.cell (11c1c37f851c82e70ff6c80c92926a4b)
REM AIRSS Version 0.9.1 bugfix July 2018 build 013d7b7c2542+ Fri, 06 Jul 2018 19:26:36 +0100
REM compiler GCC version 9.2.1 20190827 (Red Hat 9.2.1-1)
REM options -cpp -mtune=generic -march=x86-64 -g -O0 -fpre-include=/usr/include/finclude/math-vector-fortran.h
REM seed 578845967 -936300335 2108730518 -1080112628 403922632 1177692604 -1183648396 -1284749518 -904653021 1649133521 -465858458 -1213757769 1284901713 357832112 1349107900 115188897 2122869869 -170320681 -389885209 -472059933 -70597699 -1966423311 -314216470 -800419486 335779937 1764455552 -1162188009 57496973 995663621 -113401510 -1894237859 1702657245 -1844087700
REM
CELL 1.54180   50.00000   50.00000   50.00000   90.00000   90.00000   90.00000
LATT -1
SFAC C  
C      1  0.5714300000000  0.4862660000000  0.4628870000000 1.0
C      1  0.5057860000000  0.5226210000000  0.5066920000000 1.0
C      1  0.5685300000000  0.4156120000000  0.5178320000000 1.0
C      1  0.4536320000000  0.5039100000000  0.5885840000000 1.0
C      1  0.5714310000000  0.5008710000000  0.4869550000000 1.0
C      1  0.4596240000000  0.5218810000000  0.5225160000000 1.0
C      1  0.4965780000000  0.4209150000000  0.4868320000000 1.0
C      1  0.5766080000000  0.4382460000000  0.4504900000000 1.0
C      1  0.5492170000000  0.5977240000000  0.5248300000000 1.0
C      1  0.4862580000000  0.5282190000000  0.5251400000000 1.0
C      1  0.4416600000000  0.4352470000000  0.5495550000000 1.0
C      1  0.5311970000000  0.5805660000000  0.5395390000000 1.0
C      1  0.5988670000000  0.5112310000000  0.4918310000000 1.0
C      1  0.5357010000000  0.5758950000000  0.5870550000000 1.0
C      1  0.5956790000000  0.5397320000000  0.4847470000000 1.0
C      1  0.4513790000000  0.5187530000000  0.4960710000000 1.0
C      1  0.5877420000000  0.4622900000000  0.4621400000000 1.0
C      1  0.5544760000000  0.4911780000000  0.5765190000000 1.0
C      1  0.6034150000000  0.4953550000000  0.5172190000000 1.0
C      1  0.5421610000000  0.5649510000000  0.5622220000000 1.0
C      1  0.5742410000000  0.4506570000000  0.5532870000000 1.0
C      1  0.4429920000000  0.5520560000000  0.5572350000000 1.0
C      1  0.4067680000000  0.4652440000000  0.4407430000000 1.0
C      1  0.4022060000000  0.5354860000000  0.5435190000000 1.0
C      1  0.4144010000000  0.5509280000000  0.4990820000000 1.0
C      1  0.4801280000000  0.5500200000000  0.5824220000000 1.0
C      1  0.5083400000000  0.3954450000000  0.4896090000000 1.0
C      1  0.5783300000000  0.4066540000000  0.4920610000000 1.0
C      1  0.4757450000000  0.4330430000000  0.4408260000000 1.0
C      1  0.4315420000000  0.4260300000000  0.4923280000000 1.0
C      1  0.4540310000000  0.4407490000000  0.4849960000000 1.0
C      1  0.5601030000000  0.5409560000000  0.5638980000000 1.0
C      1  0.5367200000000  0.5793670000000  0.4507820000000 1.0
C      1  0.4650580000000  0.5024710000000  0.4109890000000 1.0
C      1  0.4121800000000  0.4754250000000  0.5255970000000 1.0
C      1  0.5487200000000  0.6033250000000  0.4981040000000 1.0
C      1  0.4754640000000  0.4756250000000  0.4105580000000 1.0
C      1  0.4464570000000  0.5256450000000  0.5462850000000 1.0
C      1  0.5552510000000  0.5192300000000  0.5833370000000 1.0
C      1  0.5101370000000  0.4417510000000  0.5020280000000 1.0
C      1  0.5584170000000  0.5094130000000  0.5145530000000 1.0
C      1  0.4896210000000  0.4706710000000  0.4582870000000 1.0
C      1  0.5199740000000  0.5397260000000  0.4596900000000 1.0
C      1  0.3877350000000  0.4425120000000  0.4809300000000 1.0
C      1  0.4241130000000  0.4594470000000  0.5477360000000 1.0
C      1  0.5440920000000  0.5365200000000  0.6612300000000 1.0
C      1  0.4330190000000  0.5340000000000  0.4278330000000 1.0
C      1  0.4265430000000  0.5701210000000  0.5182060000000 1.0
C      1  0.5355250000000  0.4491580000000  0.4890370000000 1.0
C      1  0.5435150000000  0.4765230000000  0.3995960000000 1.0
C      1  0.5318640000000  0.5899130000000  0.4795980000000 1.0
C      1  0.5353940000000  0.4699460000000  0.5342040000000 1.0
C      1  0.4825410000000  0.4797610000000  0.4831130000000 1.0
C      1  0.5011020000000  0.4980220000000  0.4943470000000 1.0
C      1  0.5508990000000  0.5376470000000  0.5091220000000 1.0
C      1  0.5338900000000  0.4513510000000  0.4606490000000 1.0
C      1  0.5412700000000  0.4046250000000  0.5266160000000 1.0
C      1  0.5116130000000  0.4419650000000  0.4087900000000 1.0
C      1  0.5359870000000  0.5023910000000  0.3949190000000 1.0
C      1  0.4771310000000  0.4597530000000  0.5664940000000 1.0
C      1  0.5043100000000  0.5795270000000  0.5250570000000 1.0
C      1  0.5089690000000  0.5166430000000  0.4496240000000 1.0
C      1  0.4161120000000  0.5348580000000  0.4519190000000 1.0
C      1  0.4810550000000  0.5155040000000  0.4539630000000 1.0
C      1  0.4067960000000  0.4440630000000  0.4237230000000 1.0
C      1  0.5122250000000  0.5700850000000  0.4956050000000 1.0
C      1  0.4702320000000  0.5265550000000  0.5925420000000 1.0
C      1  0.5483010000000  0.5310960000000  0.6360810000000 1.0
C      1  0.4037680000000  0.4978050000000  0.5075740000000 1.0
C      1  0.5160310000000  0.4707650000000  0.4512610000000 1.0
C      1  0.5521960000000  0.4678420000000  0.5599920000000 1.0
C      1  0.5829410000000  0.5357610000000  0.5468530000000 1.0
C      1  0.4248310000000  0.5013540000000  0.5794060000000 1.0
C      1  0.5186760000000  0.5716410000000  0.4256830000000 1.0
C      1  0.5247350000000  0.5435990000000  0.5042390000000 1.0
C      1  0.4852660000000  0.4677630000000  0.5402390000000 1.0
C      1  0.5464640000000  0.5518220000000  0.4575050000000 1.0
C      1  0.5771210000000  0.4454850000000  0.5235610000000 1.0
C      1  0.4533600000000  0.5815410000000  0.5180650000000 1.0
C      1  0.4853340000000  0.4489350000000  0.4181180000000 1.0
C      1  0.4991680000000  0.5583270000000  0.4710120000000 1.0
C      1  0.4696380000000  0.4316340000000  0.5607630000000 1.0
C      1  0.5834060000000  0.5093980000000  0.5339550000000 1.0
C      1  0.5522170000000  0.5259740000000  0.6103830000000 1.0
C      1  0.4541410000000  0.5742020000000  0.4401770000000 1.0
C      1  0.4558530000000  0.5511190000000  0.4237250000000 1.0
C      1  0.4633030000000  0.4775880000000  0.5828430000000 1.0
C      1  0.5065360000000  0.5465160000000  0.4109150000000 1.0
C      1  0.5289460000000  0.3886830000000  0.5058200000000 1.0
C      1  0.6058320000000  0.4591230000000  0.4839980000000 1.0
C      1  0.4607500000000  0.5186280000000  0.4710760000000 1.0
C      1  0.4377910000000  0.5060030000000  0.4199010000000 1.0
C      1  0.3944260000000  0.4658410000000  0.4671740000000 1.0
C      1  0.4197520000000  0.5553220000000  0.4712330000000 1.0
C      1  0.4188600000000  0.4906940000000  0.4355390000000 1.0
C      1  0.4769710000000  0.5780770000000  0.5355610000000 1.0
C      1  0.4747400000000  0.4281140000000  0.4694940000000 1.0
C      1  0.5248000000000  0.5269040000000  0.3991000000000 1.0
C      1  0.5206030000000  0.5131190000000  0.5492330000000 1.0
C      1  0.4057220000000  0.5183830000000  0.5665090000000 1.0
C      1  0.4048690000000  0.4248260000000  0.4916070000000 1.0
C      1  0.4621270000000  0.4657820000000  0.4963420000000 1.0
C      1  0.4084940000000  0.5081500000000  0.4577460000000 1.0
C      1  0.4937480000000  0.4153600000000  0.5550070000000 1.0
C      1  0.5735760000000  0.5469100000000  0.4663650000000 1.0
C      1  0.5202280000000  0.4110910000000  0.5468880000000 1.0
C      1  0.5263890000000  0.4956500000000  0.4443100000000 1.0
C      1  0.4185310000000  0.5605160000000  0.5447900000000 1.0
C      1  0.5543750000000  0.4966800000000  0.4434490000000 1.0
C      1  0.6027070000000  0.5574200000000  0.5059720000000 1.0
C      1  0.4631530000000  0.4715310000000  0.5233330000000 1.0
C      1  0.4687480000000  0.5649480000000  0.5606630000000 1.0
C      1  0.4371250000000  0.5760410000000  0.4615510000000 1.0
C      1  0.5386700000000  0.4511400000000  0.4127950000000 1.0
C      1  0.5974660000000  0.5555410000000  0.5325670000000 1.0
C      1  0.4783380000000  0.5365600000000  0.4125160000000 1.0
C      1  0.5355510000000  0.4990420000000  0.5309100000000 1.0
C      1  0.5805460000000  0.4147450000000  0.4662780000000 1.0
C      1  0.4032610000000  0.5266720000000  0.5148860000000 1.0
C      1  0.4247570000000  0.4740850000000  0.5718630000000 1.0
C      1  0.5085660000000  0.4574810000000  0.5275130000000 1.0
C      1  0.5508760000000  0.4428760000000  0.4386810000000 1.0
C      1  0.6001730000000  0.4652940000000  0.5116760000000 1.0
C      1  0.5520270000000  0.4584820000000  0.5108930000000 1.0
C      1  0.3990970000000  0.4918530000000  0.4796890000000 1.0
END
