TITL C-627111-6168-1284 7.43360165812512e-05 125000 -288.215099614942 0 0 49 (C1) n - 1
REM
REM in /home/nfs/bkarasulu/CARBON/AIRSS/Generating-Clusters/LCBOP/Only-C1/SD-CG/FIRE-CG
REM
REM
REM
REM
REM
REM ./C.cell (11c1c37f851c82e70ff6c80c92926a4b)
REM AIRSS Version 0.9.1 bugfix July 2018 build 013d7b7c2542+ Fri, 06 Jul 2018 19:26:36 +0100
REM compiler GCC version 9.2.1 20190827 (Red Hat 9.2.1-1)
REM options -cpp -mtune=generic -march=x86-64 -g -O0 -fpre-include=/usr/include/finclude/math-vector-fortran.h
REM seed -1224456037 182811365 -711785719 1408562933 -1692266667 -448476531 -1583625758 -732085660 -1641578959 -2064992824 1529904644 -1593466915 -1234588882 -607032297 -777330614 -1186037674 1794210942 -1588970789 867204152 1418132986 322653653 2127909669 411939213 -1874389260 1611694535 303257055 457126657 -2122223064 503799747 -669161897 -1859934858 -1795656128 627709934
REM
CELL 1.54180   50.00000   50.00000   50.00000   90.00000   90.00000   90.00000
LATT -1
SFAC C  
C      1  0.4305600000000  0.4643160000000  0.5011830000000 1.0
C      1  0.4681820000000  0.5159850000000  0.4798950000000 1.0
C      1  0.4018090000000  0.4989830000000  0.5194300000000 1.0
C      1  0.5240200000000  0.4863210000000  0.5147100000000 1.0
C      1  0.5555500000000  0.4474970000000  0.3993840000000 1.0
C      1  0.5577520000000  0.5416730000000  0.4798350000000 1.0
C      1  0.4628900000000  0.5204100000000  0.5077760000000 1.0
C      1  0.4672180000000  0.4659630000000  0.4193860000000 1.0
C      1  0.5208910000000  0.4596110000000  0.5080490000000 1.0
C      1  0.4944450000000  0.4684010000000  0.4135170000000 1.0
C      1  0.5457330000000  0.5683510000000  0.5722370000000 1.0
C      1  0.4506010000000  0.4886320000000  0.4182310000000 1.0
C      1  0.4272310000000  0.4881740000000  0.5154490000000 1.0
C      1  0.4457730000000  0.4716420000000  0.5631590000000 1.0
C      1  0.5259850000000  0.4942630000000  0.4396930000000 1.0
C      1  0.5443260000000  0.5890220000000  0.5902460000000 1.0
C      1  0.4580520000000  0.4446580000000  0.4352270000000 1.0
C      1  0.5204550000000  0.4721540000000  0.4232890000000 1.0
C      1  0.5544660000000  0.5099800000000  0.5537990000000 1.0
C      1  0.5061500000000  0.5309470000000  0.5241140000000 1.0
C      1  0.5333450000000  0.5434710000000  0.5790960000000 1.0
C      1  0.5531240000000  0.5201110000000  0.5272060000000 1.0
C      1  0.4374970000000  0.4469380000000  0.4823410000000 1.0
C      1  0.5390580000000  0.4506830000000  0.4215790000000 1.0
C      1  0.5323780000000  0.5410210000000  0.5245280000000 1.0
C      1  0.5067920000000  0.5039110000000  0.5606040000000 1.0
C      1  0.5315830000000  0.5163350000000  0.5705400000000 1.0
C      1  0.4675380000000  0.5271510000000  0.6170100000000 1.0
C      1  0.4472320000000  0.4389720000000  0.4589100000000 1.0
C      1  0.5463270000000  0.5022180000000  0.5049560000000 1.0
C      1  0.4502990000000  0.5017910000000  0.5257760000000 1.0
C      1  0.4952880000000  0.5144120000000  0.4711320000000 1.0
C      1  0.5441310000000  0.5164660000000  0.4799180000000 1.0
C      1  0.5255450000000  0.4388130000000  0.4921850000000 1.0
C      1  0.5668870000000  0.5720140000000  0.5214820000000 1.0
C      1  0.4730930000000  0.5158890000000  0.5941760000000 1.0
C      1  0.4797700000000  0.5044890000000  0.5696030000000 1.0
C      1  0.5708150000000  0.4447590000000  0.3784400000000 1.0
C      1  0.4481930000000  0.5157000000000  0.4603420000000 1.0
C      1  0.4802990000000  0.5396320000000  0.5189460000000 1.0
C      1  0.3783060000000  0.5095320000000  0.5233610000000 1.0
C      1  0.5336980000000  0.4289060000000  0.4688950000000 1.0
C      1  0.4423240000000  0.5070250000000  0.4358010000000 1.0
C      1  0.5220590000000  0.5095870000000  0.4628850000000 1.0
C      1  0.5399100000000  0.4330890000000  0.4433690000000 1.0
C      1  0.5077460000000  0.5024120000000  0.5317540000000 1.0
C      1  0.5662120000000  0.5613610000000  0.4965440000000 1.0
C      1  0.4589810000000  0.4935820000000  0.5524940000000 1.0
C      1  0.5594790000000  0.5727440000000  0.5475160000000 1.0
END
