TITL C-627112-676-1437 6.60631056987426e-08 125000 -387.305889004155 0 0 65 (C1) n - 1
REM
REM in /home/nfs/bkarasulu/CARBON/AIRSS/Generating-Clusters/LCBOP/Only-C1/SD-CG/FIRE-CG
REM
REM
REM
REM
REM
REM ./C.cell (11c1c37f851c82e70ff6c80c92926a4b)
REM AIRSS Version 0.9.1 bugfix July 2018 build 013d7b7c2542+ Fri, 06 Jul 2018 19:26:36 +0100
REM compiler GCC version 9.2.1 20190827 (Red Hat 9.2.1-1)
REM options -cpp -mtune=generic -march=x86-64 -g -O0 -fpre-include=/usr/include/finclude/math-vector-fortran.h
REM seed -1504793876 2087814982 -744074883 -2091869333 -1110677961 645983933 722351564 -772804596 2017691665 2108187246 -585374277 1006941714 -157836452 -506947126 -963806803 -105685370 -540573611 -1596637351 -78474310 -1169341724 1390500602 -201689319 -1318239332 -401674833 949979841 1968299105 -2104948697 -942445886 24135725 -1288349760 -602607518 -1363098088 -1204565393
REM
CELL 1.54180   50.00000   50.00000   50.00000   90.00000   90.00000   90.00000
LATT -1
SFAC C  
C      1  0.4831740000000  0.5445290000000  0.5709690000000 1.0
C      1  0.5459140000000  0.5015740000000  0.5500720000000 1.0
C      1  0.5198520000000  0.5257590000000  0.4747080000000 1.0
C      1  0.4567920000000  0.6229790000000  0.4880690000000 1.0
C      1  0.4804940000000  0.4377150000000  0.4625740000000 1.0
C      1  0.5796690000000  0.5082040000000  0.4799220000000 1.0
C      1  0.4825510000000  0.5369140000000  0.4546040000000 1.0
C      1  0.4080610000000  0.5048230000000  0.5507480000000 1.0
C      1  0.4783510000000  0.4955940000000  0.5803050000000 1.0
C      1  0.5044870000000  0.5144920000000  0.5417400000000 1.0
C      1  0.4682720000000  0.5297840000000  0.5176190000000 1.0
C      1  0.4389640000000  0.4822790000000  0.4950370000000 1.0
C      1  0.4974260000000  0.5270500000000  0.5178870000000 1.0
C      1  0.4697610000000  0.5759240000000  0.5109850000000 1.0
C      1  0.4783280000000  0.5068170000000  0.4625930000000 1.0
C      1  0.5644930000000  0.4747720000000  0.5118760000000 1.0
C      1  0.4895180000000  0.4275090000000  0.5154590000000 1.0
C      1  0.4888410000000  0.5743630000000  0.5329830000000 1.0
C      1  0.4823550000000  0.4276010000000  0.4875500000000 1.0
C      1  0.4368380000000  0.4765550000000  0.5227020000000 1.0
C      1  0.5491780000000  0.4751990000000  0.5363600000000 1.0
C      1  0.5400420000000  0.4745950000000  0.4381780000000 1.0
C      1  0.5503480000000  0.4696760000000  0.4643580000000 1.0
C      1  0.4631130000000  0.6004400000000  0.4995210000000 1.0
C      1  0.5209790000000  0.5334150000000  0.5016370000000 1.0
C      1  0.5105730000000  0.4777980000000  0.4869620000000 1.0
C      1  0.5298660000000  0.5509140000000  0.5544240000000 1.0
C      1  0.4544010000000  0.5181030000000  0.5412730000000 1.0
C      1  0.4688350000000  0.4960280000000  0.4356380000000 1.0
C      1  0.5330010000000  0.4362700000000  0.4976500000000 1.0
C      1  0.5207610000000  0.5048960000000  0.4061600000000 1.0
C      1  0.5474350000000  0.5339610000000  0.5130100000000 1.0
C      1  0.4991490000000  0.4782100000000  0.5118410000000 1.0
C      1  0.5695330000000  0.5286450000000  0.4965730000000 1.0
C      1  0.5992970000000  0.5128770000000  0.4608130000000 1.0
C      1  0.4807790000000  0.4748430000000  0.5302820000000 1.0
C      1  0.5233220000000  0.5481360000000  0.4301400000000 1.0
C      1  0.5165390000000  0.4825380000000  0.4230920000000 1.0
C      1  0.5060500000000  0.5005980000000  0.4716880000000 1.0
C      1  0.5016540000000  0.5598430000000  0.5546880000000 1.0
C      1  0.4684260000000  0.5199580000000  0.5672010000000 1.0
C      1  0.5114560000000  0.4556130000000  0.5680500000000 1.0
C      1  0.5177430000000  0.4349680000000  0.5218050000000 1.0
C      1  0.5039660000000  0.4824670000000  0.5754390000000 1.0
C      1  0.4367460000000  0.5315340000000  0.4530360000000 1.0
C      1  0.5475220000000  0.5305830000000  0.5414660000000 1.0
C      1  0.4768000000000  0.4302610000000  0.4152430000000 1.0
C      1  0.5105400000000  0.5440970000000  0.4546510000000 1.0
C      1  0.5257270000000  0.5311110000000  0.4094060000000 1.0
C      1  0.5681610000000  0.4824600000000  0.4839340000000 1.0
C      1  0.5194320000000  0.5011140000000  0.5612310000000 1.0
C      1  0.4444760000000  0.5125120000000  0.4334840000000 1.0
C      1  0.5298970000000  0.4582410000000  0.4804790000000 1.0
C      1  0.4572180000000  0.4956890000000  0.4806890000000 1.0
C      1  0.4819470000000  0.4476920000000  0.4358740000000 1.0
C      1  0.4884450000000  0.4750380000000  0.4290480000000 1.0
C      1  0.4579790000000  0.5509600000000  0.5012230000000 1.0
C      1  0.5282420000000  0.4531640000000  0.5434340000000 1.0
C      1  0.4742840000000  0.4235330000000  0.5611880000000 1.0
C      1  0.4321370000000  0.5000210000000  0.5388090000000 1.0
C      1  0.4682680000000  0.4322060000000  0.5348830000000 1.0
C      1  0.4425140000000  0.5448570000000  0.4769540000000 1.0
C      1  0.6168970000000  0.5169780000000  0.4420370000000 1.0
C      1  0.4572960000000  0.4588300000000  0.5322760000000 1.0
C      1  0.4948820000000  0.4338890000000  0.5754720000000 1.0
END
