TITL C-627112-676-1726 -7.2875356110769e-07 125000 -752.899690919196 0 0 122 (C1) n - 1
REM
REM in /home/nfs/bkarasulu/CARBON/AIRSS/Generating-Clusters/LCBOP/Only-C1/SD-CG/FIRE-CG
REM
REM
REM
REM
REM
REM ./C.cell (11c1c37f851c82e70ff6c80c92926a4b)
REM AIRSS Version 0.9.1 bugfix July 2018 build 013d7b7c2542+ Fri, 06 Jul 2018 19:26:36 +0100
REM compiler GCC version 9.2.1 20190827 (Red Hat 9.2.1-1)
REM options -cpp -mtune=generic -march=x86-64 -g -O0 -fpre-include=/usr/include/finclude/math-vector-fortran.h
REM seed -602118239 -439235537 -649262590 -1908725181 449310077 273110241 112849843 1107939969 -303752434 -1142342855 -1228879478 -1502190233 -2077213844 -911989343 -1683817958 69554146 -655284014 298723015 -1223877069 -921860812 2046389576 453123171 535188456 1968206118 -1913135867 1690849824 269711987 1272470364 -2060992464 -949085008 508641997 2135409445 788694521
REM
CELL 1.54180   50.00000   50.00000   50.00000   90.00000   90.00000   90.00000
LATT -1
SFAC C  
C      1  0.4248230000000  0.5249730000000  0.5140420000000 1.0
C      1  0.4282570000000  0.4965800000000  0.4321060000000 1.0
C      1  0.4355620000000  0.4361560000000  0.4957790000000 1.0
C      1  0.5927010000000  0.5152480000000  0.4753840000000 1.0
C      1  0.5948720000000  0.4312130000000  0.5231140000000 1.0
C      1  0.5423410000000  0.4460960000000  0.4952970000000 1.0
C      1  0.5101640000000  0.4849530000000  0.5474340000000 1.0
C      1  0.5281630000000  0.5032100000000  0.5576480000000 1.0
C      1  0.4761340000000  0.4062400000000  0.4879010000000 1.0
C      1  0.5167520000000  0.4355330000000  0.4184940000000 1.0
C      1  0.5607390000000  0.4788520000000  0.4176600000000 1.0
C      1  0.4942700000000  0.4498720000000  0.5687550000000 1.0
C      1  0.4960090000000  0.5132550000000  0.5964930000000 1.0
C      1  0.3950370000000  0.4866520000000  0.5118420000000 1.0
C      1  0.5785670000000  0.5697200000000  0.5162170000000 1.0
C      1  0.4822700000000  0.5917600000000  0.4770020000000 1.0
C      1  0.5023710000000  0.4556350000000  0.4669100000000 1.0
C      1  0.3927390000000  0.5143480000000  0.4705960000000 1.0
C      1  0.4665650000000  0.4972520000000  0.5552690000000 1.0
C      1  0.5820680000000  0.5277000000000  0.4515930000000 1.0
C      1  0.5470020000000  0.4459100000000  0.5807450000000 1.0
C      1  0.5770190000000  0.4949060000000  0.4880890000000 1.0
C      1  0.4594440000000  0.4210000000000  0.5056250000000 1.0
C      1  0.5985300000000  0.5497810000000  0.5236790000000 1.0
C      1  0.5681090000000  0.5284500000000  0.5534910000000 1.0
C      1  0.5322750000000  0.5414930000000  0.5864590000000 1.0
C      1  0.4477730000000  0.5097010000000  0.4816800000000 1.0
C      1  0.3769170000000  0.5251740000000  0.5445300000000 1.0
C      1  0.4633670000000  0.5400970000000  0.4153380000000 1.0
C      1  0.5358880000000  0.5289110000000  0.5160300000000 1.0
C      1  0.5102710000000  0.4826810000000  0.4656590000000 1.0
C      1  0.4497160000000  0.5865880000000  0.5147430000000 1.0
C      1  0.4123500000000  0.5042160000000  0.5276240000000 1.0
C      1  0.4121870000000  0.4956900000000  0.4580330000000 1.0
C      1  0.4568820000000  0.5771180000000  0.5388380000000 1.0
C      1  0.5184110000000  0.4442600000000  0.5831580000000 1.0
C      1  0.4493480000000  0.5654480000000  0.4172020000000 1.0
C      1  0.5314050000000  0.5742860000000  0.5412170000000 1.0
C      1  0.3981460000000  0.5421730000000  0.4663260000000 1.0
C      1  0.4595380000000  0.4554410000000  0.4378670000000 1.0
C      1  0.4176020000000  0.4456560000000  0.5806540000000 1.0
C      1  0.6031580000000  0.5000070000000  0.5417120000000 1.0
C      1  0.5382510000000  0.4005030000000  0.4519850000000 1.0
C      1  0.4760580000000  0.5606790000000  0.5509680000000 1.0
C      1  0.5161770000000  0.4625260000000  0.5303720000000 1.0
C      1  0.5183370000000  0.5312620000000  0.4085470000000 1.0
C      1  0.3797420000000  0.5067590000000  0.4961510000000 1.0
C      1  0.4508430000000  0.4515550000000  0.5388940000000 1.0
C      1  0.5332170000000  0.4955490000000  0.4758940000000 1.0
C      1  0.6189890000000  0.5445650000000  0.5049840000000 1.0
C      1  0.5464740000000  0.3954930000000  0.4787460000000 1.0
C      1  0.4472810000000  0.5193990000000  0.4300460000000 1.0
C      1  0.5665430000000  0.5366040000000  0.4313760000000 1.0
C      1  0.5215130000000  0.5508110000000  0.5282950000000 1.0
C      1  0.4970060000000  0.4981100000000  0.4465540000000 1.0
C      1  0.5369530000000  0.3978720000000  0.5266720000000 1.0
C      1  0.5032590000000  0.5529700000000  0.4882700000000 1.0
C      1  0.4871950000000  0.4785100000000  0.5638150000000 1.0
C      1  0.5615760000000  0.4569270000000  0.6011930000000 1.0
C      1  0.4318770000000  0.4863500000000  0.4781280000000 1.0
C      1  0.3936900000000  0.4584610000000  0.5095420000000 1.0
C      1  0.5830310000000  0.4486880000000  0.5423970000000 1.0
C      1  0.5189130000000  0.5032920000000  0.4039320000000 1.0
C      1  0.5856400000000  0.4771840000000  0.5369270000000 1.0
C      1  0.4536100000000  0.5157570000000  0.5731950000000 1.0
C      1  0.4938930000000  0.5452620000000  0.4172680000000 1.0
C      1  0.4532180000000  0.5805970000000  0.4406970000000 1.0
C      1  0.5447200000000  0.5407000000000  0.4157780000000 1.0
C      1  0.4627950000000  0.4975900000000  0.5263780000000 1.0
C      1  0.4968260000000  0.4409600000000  0.5397290000000 1.0
C      1  0.4408530000000  0.4713410000000  0.4266960000000 1.0
C      1  0.5900850000000  0.4143290000000  0.5027580000000 1.0
C      1  0.5263250000000  0.5642440000000  0.4504910000000 1.0
C      1  0.5644570000000  0.4750140000000  0.4439860000000 1.0
C      1  0.5346610000000  0.5906940000000  0.4888800000000 1.0
C      1  0.5605720000000  0.4362550000000  0.5571630000000 1.0
C      1  0.4740540000000  0.5300430000000  0.5882650000000 1.0
C      1  0.4247890000000  0.5183260000000  0.5713600000000 1.0
C      1  0.5392730000000  0.5877330000000  0.4601990000000 1.0
C      1  0.4872180000000  0.5295920000000  0.4881370000000 1.0
C      1  0.5273070000000  0.3926680000000  0.5004590000000 1.0
C      1  0.6163810000000  0.5260690000000  0.4856680000000 1.0
C      1  0.5580540000000  0.5840560000000  0.5048990000000 1.0
C      1  0.5585630000000  0.4843900000000  0.4698130000000 1.0
C      1  0.5010560000000  0.5670660000000  0.4361880000000 1.0
C      1  0.4789840000000  0.4435800000000  0.4547180000000 1.0
C      1  0.5490030000000  0.5115510000000  0.5368490000000 1.0
C      1  0.4340980000000  0.4475450000000  0.5605740000000 1.0
C      1  0.4372730000000  0.5797090000000  0.4651550000000 1.0
C      1  0.5492390000000  0.4128640000000  0.5451870000000 1.0
C      1  0.4075840000000  0.4357960000000  0.5027100000000 1.0
C      1  0.4839960000000  0.5555460000000  0.5782150000000 1.0
C      1  0.5287200000000  0.4152240000000  0.4315360000000 1.0
C      1  0.5261790000000  0.5440400000000  0.4715110000000 1.0
C      1  0.5442710000000  0.4907980000000  0.3998680000000 1.0
C      1  0.4752060000000  0.4163510000000  0.4615990000000 1.0
C      1  0.4845970000000  0.5199060000000  0.4598570000000 1.0
C      1  0.5618750000000  0.4871310000000  0.5207500000000 1.0
C      1  0.5939730000000  0.5278360000000  0.5422370000000 1.0
C      1  0.5210470000000  0.5156180000000  0.5829630000000 1.0
C      1  0.4673780000000  0.5142750000000  0.5031830000000 1.0
C      1  0.3680150000000  0.5233880000000  0.5178260000000 1.0
C      1  0.5350700000000  0.5220250000000  0.4874880000000 1.0
C      1  0.5407340000000  0.4645440000000  0.5162330000000 1.0
C      1  0.4029100000000  0.5143150000000  0.5530260000000 1.0
C      1  0.5045040000000  0.4593610000000  0.4150710000000 1.0
C      1  0.4500170000000  0.4729210000000  0.5200520000000 1.0
C      1  0.5232030000000  0.5829040000000  0.5657450000000 1.0
C      1  0.4938490000000  0.5477660000000  0.5331800000000 1.0
C      1  0.4565480000000  0.5209920000000  0.4569670000000 1.0
C      1  0.5732410000000  0.4010280000000  0.4866100000000 1.0
C      1  0.4711170000000  0.4329480000000  0.5294980000000 1.0
C      1  0.5126330000000  0.5629250000000  0.5832520000000 1.0
C      1  0.5016000000000  0.4875440000000  0.4199190000000 1.0
C      1  0.4406610000000  0.4650690000000  0.4941590000000 1.0
C      1  0.4138480000000  0.5640670000000  0.4668300000000 1.0
C      1  0.5586750000000  0.5426140000000  0.5761230000000 1.0
C      1  0.4993600000000  0.3922260000000  0.4958300000000 1.0
C      1  0.4811840000000  0.5843510000000  0.4481760000000 1.0
C      1  0.5222420000000  0.4398820000000  0.4786930000000 1.0
C      1  0.5054610000000  0.5819120000000  0.4912890000000 1.0
C      1  0.4546860000000  0.5884540000000  0.4871900000000 1.0
END
