TITL C-627109-622-971 141713.332401197 125000 -1076.14542582287 0 0 176 (C1) n - 1
REM
REM in /home/nfs/bkarasulu/CARBON/AIRSS/Generating-Clusters/LCBOP/Only-C1/SD-CG/FIRE-CG
REM
REM
REM
REM
REM
REM ./C.cell (11c1c37f851c82e70ff6c80c92926a4b)
REM AIRSS Version 0.9.1 bugfix July 2018 build 013d7b7c2542+ Fri, 06 Jul 2018 19:26:36 +0100
REM compiler GCC version 9.2.1 20190827 (Red Hat 9.2.1-1)
REM options -cpp -mtune=generic -march=x86-64 -g -O0 -fpre-include=/usr/include/finclude/math-vector-fortran.h
REM seed 882616483 606467359 -609405218 -165908487 2022290163 -676176113 -991258560 -1536081182 688900053 920071173 1526033107 -1898176450 -1087044695 1387364365 1317025732 -1487772558 194555140 -1569947468 -1639415214 394633414 -849479716 145902492 1732204710 1205995691 1803611294 1505638873 1371504414 1938686385 -223907536 1161004029 -488818613 329860738 -365554484
REM
CELL 1.54180   50.00000   50.00000   50.00000   90.00000   90.00000   90.00000
LATT -1
SFAC C  
C      1  0.4285240000000  0.5449680000000  0.4965490000000 1.0
C      1  0.4266710000000  0.4473450000000  0.5497230000000 1.0
C      1  0.4258900000000  0.5843100000000  0.5241770000000 1.0
C      1  0.4598530000000  0.4301970000000  0.5778730000000 1.0
C      1  0.4786220000000  0.3892520000000  0.5204670000000 1.0
C      1  0.5456800000000  0.4816170000000  0.5460540000000 1.0
C      1  0.4839030000000  0.4247010000000  0.4916960000000 1.0
C      1  0.4842130000000  0.3972930000000  0.5481300000000 1.0
C      1  0.4896270000000  0.5253990000000  0.6194190000000 1.0
C      1  0.5577280000000  0.4748490000000  0.4093620000000 1.0
C      1  0.4906570000000  0.6108330000000  0.5378050000000 1.0
C      1  0.5386520000000  0.4686310000000  0.4703050000000 1.0
C      1  0.5483820000000  0.4252700000000  0.4247850000000 1.0
C      1  0.5625350000000  0.5718230000000  0.4898750000000 1.0
C      1  0.6452620000000  0.5381760000000  0.4717180000000 1.0
C      1  0.5723720000000  0.4410670000000  0.4881740000000 1.0
C      1  0.5501630000000  0.4583000000000  0.4975070000000 1.0
C      1  0.4323740000000  0.5612870000000  0.4274660000000 1.0
C      1  0.4473520000000  0.4684040000000  0.3984390000000 1.0
C      1  0.5143640000000  0.5370490000000  0.5274090000000 1.0
C      1  0.5186350000000  0.5284970000000  0.5532200000000 1.0
C      1  0.5218320000000  0.4119750000000  0.5746120000000 1.0
C      1  0.4241600000000  0.5276070000000  0.5174910000000 1.0
C      1  0.4494020000000  0.3851490000000  0.4814990000000 1.0
C      1  0.4212690000000  0.4314320000000  0.5243830000000 1.0
C      1  0.5534980000000  0.5667190000000  0.5191600000000 1.0
C      1  0.5281650000000  0.4627050000000  0.4447810000000 1.0
C      1  0.4980470000000  0.5200480000000  0.5936650000000 1.0
C      1  0.3887400000000  0.4723130000000  0.5280390000000 1.0
C      1  0.5610320000000  0.3962280000000  0.5142020000000 1.0
C      1  0.6092060000000  0.5386480000000  0.5040540000000 1.0
C      1  0.5246620000000  0.5978110000000  0.5098820000000 1.0
C      1  0.5862570000000  0.4582690000000  0.5581550000000 1.0
C      1  0.4733220000000  0.5942140000000  0.5230960000000 1.0
C      1  0.5706930000000  0.5110950000000  0.4417690000000 1.0
C      1  0.3807370000000  0.4960770000000  0.4829480000000 1.0
C      1  0.5515810000000  0.4796330000000  0.5944310000000 1.0
C      1  0.4711510000000  0.4177060000000  0.4177050000000 1.0
C      1  0.4653860000000  0.5061800000000  0.4545320000000 1.0
C      1  0.5560280000000  0.4809430000000  0.5183020000000 1.0
C      1  0.4302830000000  0.4012740000000  0.5280480000000 1.0
C      1  0.4765170000000  0.5996000000000  0.4762650000000 1.0
C      1  0.4725540000000  0.4750690000000  0.6177760000000 1.0
C      1  0.5942550000000  0.5387890000000  0.5494680000000 1.0
C      1  0.5130860000000  0.5740460000000  0.4944690000000 1.0
C      1  0.6659150000000  0.5260220000000  0.4603940000000 1.0
C      1  0.4897000000000  0.6020620000000  0.4301040000000 1.0
C      1  0.5728900000000  0.4113480000000  0.5338350000000 1.0
C      1  0.4555450000000  0.5666450000000  0.4108470000000 1.0
C      1  0.4881060000000  0.5347720000000  0.5160340000000 1.0
C      1  0.4982650000000  0.6046700000000  0.4568640000000 1.0
C      1  0.4310110000000  0.4452540000000  0.4789880000000 1.0
C      1  0.5894600000000  0.4337740000000  0.5412290000000 1.0
C      1  0.4508860000000  0.3893170000000  0.5096730000000 1.0
C      1  0.5703640000000  0.5495980000000  0.5628590000000 1.0
C      1  0.6088730000000  0.4861690000000  0.4718100000000 1.0
C      1  0.4682340000000  0.4385720000000  0.5097050000000 1.0
C      1  0.4994530000000  0.5497240000000  0.3956940000000 1.0
C      1  0.5904150000000  0.5698960000000  0.4363880000000 1.0
C      1  0.3704170000000  0.5468040000000  0.4761600000000 1.0
C      1  0.4196590000000  0.5794820000000  0.4457440000000 1.0
C      1  0.4492730000000  0.6070160000000  0.4824140000000 1.0
C      1  0.5556150000000  0.5258420000000  0.4999850000000 1.0
C      1  0.4463830000000  0.4842900000000  0.6110810000000 1.0
C      1  0.4835660000000  0.5797550000000  0.4979970000000 1.0
C      1  0.3926420000000  0.4935430000000  0.5089930000000 1.0
C      1  0.4933630000000  0.5079860000000  0.4493920000000 1.0
C      1  0.3844430000000  0.5695130000000  0.4773980000000 1.0
C      1  0.4897500000000  0.4752600000000  0.5695240000000 1.0
C      1  0.6136590000000  0.4872200000000  0.4998500000000 1.0
C      1  0.5299080000000  0.5032250000000  0.5622560000000 1.0
C      1  0.6160630000000  0.4687880000000  0.5223020000000 1.0
C      1  0.5038780000000  0.5404530000000  0.5744780000000 1.0
C      1  0.4795360000000  0.4540690000000  0.4512110000000 1.0
C      1  0.4029630000000  0.4534270000000  0.4817470000000 1.0
C      1  0.4260570000000  0.5932990000000  0.4940990000000 1.0
C      1  0.5990470000000  0.5105010000000  0.5120230000000 1.0
C      1  0.4934140000000  0.5647390000000  0.5659640000000 1.0
C      1  0.5545280000000  0.5016990000000  0.4197620000000 1.0
C      1  0.5298210000000  0.5159360000000  0.4142260000000 1.0
C      1  0.4322230000000  0.5344260000000  0.4366130000000 1.0
C      1  0.4650850000000  0.5614720000000  0.5561610000000 1.0
C      1  0.3921960000000  0.4816080000000  0.5556620000000 1.0
C      1  0.4871180000000  0.5011060000000  0.4019540000000 1.0
C      1  0.5337680000000  0.4607050000000  0.3691950000000 1.0
C      1  0.5558820000000  0.4701540000000  0.3815590000000 1.0
C      1  0.5246210000000  0.4468860000000  0.5097320000000 1.0
C      1  0.6000840000000  0.5096880000000  0.5438180000000 1.0
C      1  0.5178600000000  0.4205490000000  0.5223580000000 1.0
C      1  0.4088740000000  0.5826680000000  0.4725550000000 1.0
C      1  0.4822660000000  0.5077460000000  0.5124220000000 1.0
C      1  0.5696540000000  0.5039790000000  0.5084470000000 1.0
C      1  0.4579700000000  0.5080590000000  0.5664080000000 1.0
C      1  0.4489160000000  0.4565910000000  0.4569020000000 1.0
C      1  0.3685290000000  0.5201490000000  0.4759640000000 1.0
C      1  0.5057800000000  0.4951130000000  0.5797520000000 1.0
C      1  0.4704090000000  0.5447240000000  0.3985210000000 1.0
C      1  0.5671280000000  0.5713190000000  0.4219990000000 1.0
C      1  0.4053900000000  0.5294150000000  0.5620820000000 1.0
C      1  0.6172590000000  0.5795500000000  0.5317470000000 1.0
C      1  0.5145360000000  0.4172100000000  0.5998230000000 1.0
C      1  0.6073540000000  0.5543960000000  0.5285620000000 1.0
C      1  0.5173050000000  0.5458670000000  0.4723890000000 1.0
C      1  0.5384540000000  0.5416520000000  0.5150570000000 1.0
C      1  0.4821410000000  0.3998170000000  0.4403840000000 1.0
C      1  0.3955760000000  0.4778700000000  0.4659580000000 1.0
C      1  0.4196580000000  0.5018560000000  0.5087490000000 1.0
C      1  0.4032080000000  0.5750800000000  0.5403200000000 1.0
C      1  0.5076240000000  0.5159510000000  0.4734530000000 1.0
C      1  0.4359420000000  0.4430740000000  0.4338120000000 1.0
C      1  0.4471700000000  0.4542580000000  0.5678080000000 1.0
C      1  0.4044310000000  0.5017550000000  0.5738470000000 1.0
C      1  0.4972330000000  0.4566410000000  0.5508500000000 1.0
C      1  0.5977030000000  0.4342550000000  0.4941530000000 1.0
C      1  0.4739890000000  0.5520590000000  0.4981220000000 1.0
C      1  0.6832810000000  0.5123870000000  0.4465280000000 1.0
C      1  0.4617690000000  0.3882760000000  0.4576370000000 1.0
C      1  0.4908380000000  0.4360010000000  0.4685030000000 1.0
C      1  0.4617420000000  0.4798410000000  0.5683560000000 1.0
C      1  0.5186300000000  0.3923590000000  0.4808890000000 1.0
C      1  0.5516320000000  0.5689780000000  0.5490770000000 1.0
C      1  0.6077830000000  0.4415360000000  0.5194330000000 1.0
C      1  0.4618530000000  0.4046230000000  0.5650490000000 1.0
C      1  0.4233710000000  0.4931200000000  0.5966160000000 1.0
C      1  0.5066400000000  0.4690080000000  0.5024300000000 1.0
C      1  0.5258760000000  0.5438410000000  0.4058520000000 1.0
C      1  0.5268000000000  0.6207380000000  0.4926420000000 1.0
C      1  0.5171930000000  0.6016000000000  0.5371990000000 1.0
C      1  0.5505070000000  0.5903690000000  0.4697390000000 1.0
C      1  0.4167520000000  0.4899810000000  0.4487060000000 1.0
C      1  0.3930690000000  0.5555390000000  0.5574980000000 1.0
C      1  0.5265310000000  0.6084080000000  0.4663070000000 1.0
C      1  0.4529390000000  0.5346550000000  0.5572410000000 1.0
C      1  0.4706210000000  0.5902000000000  0.4154040000000 1.0
C      1  0.4519520000000  0.5312940000000  0.4573240000000 1.0
C      1  0.5482320000000  0.4535670000000  0.4262740000000 1.0
C      1  0.3968200000000  0.4479330000000  0.5121390000000 1.0
C      1  0.6193030000000  0.5469840000000  0.4781390000000 1.0
C      1  0.5672880000000  0.5435010000000  0.4808560000000 1.0
C      1  0.5240590000000  0.5808120000000  0.5553930000000 1.0
C      1  0.4387060000000  0.4902590000000  0.4918890000000 1.0
C      1  0.4367060000000  0.3947400000000  0.5553520000000 1.0
C      1  0.4620550000000  0.5437160000000  0.6600820000000 1.0
C      1  0.5105500000000  0.4097980000000  0.5491650000000 1.0
C      1  0.4526760000000  0.5805380000000  0.5370170000000 1.0
C      1  0.4633300000000  0.5160640000000  0.3977620000000 1.0
C      1  0.4279720000000  0.5318660000000  0.5444440000000 1.0
C      1  0.5361800000000  0.5489030000000  0.4500950000000 1.0
C      1  0.4237270000000  0.5081320000000  0.4262890000000 1.0
C      1  0.5015260000000  0.4342100000000  0.6160380000000 1.0
C      1  0.5001750000000  0.4029390000000  0.5026330000000 1.0
C      1  0.5606920000000  0.4669410000000  0.5680840000000 1.0
C      1  0.5451340000000  0.3893440000000  0.4928510000000 1.0
C      1  0.4448230000000  0.4856750000000  0.4626010000000 1.0
C      1  0.4417170000000  0.4391810000000  0.5038980000000 1.0
C      1  0.5619540000000  0.5332470000000  0.5847330000000 1.0
C      1  0.5008690000000  0.4956810000000  0.4948690000000 1.0
C      1  0.5925560000000  0.4962400000000  0.4526080000000 1.0
C      1  0.4522280000000  0.5449920000000  0.4818990000000 1.0
C      1  0.5011220000000  0.4605410000000  0.4333900000000 1.0
C      1  0.5049080000000  0.5054400000000  0.4232630000000 1.0
C      1  0.4773100000000  0.5345630000000  0.6410250000000 1.0
C      1  0.4522850000000  0.4410190000000  0.4102730000000 1.0
C      1  0.5000030000000  0.4555360000000  0.4054920000000 1.0
C      1  0.5005440000000  0.4628690000000  0.6173980000000 1.0
C      1  0.4410570000000  0.4977570000000  0.4043140000000 1.0
C      1  0.5610240000000  0.5342850000000  0.4552040000000 1.0
C      1  0.6042550000000  0.4804210000000  0.5477660000000 1.0
C      1  0.5404410000000  0.5607660000000  0.4238760000000 1.0
C      1  0.5107660000000  0.3970910000000  0.4515780000000 1.0
C      1  0.5285690000000  0.4724160000000  0.6116860000000 1.0
C      1  0.4802070000000  0.4483750000000  0.5321850000000 1.0
C      1  0.5102730000000  0.4543930000000  0.3807510000000 1.0
C      1  0.5323390000000  0.4057090000000  0.4344700000000 1.0
C      1  0.6059550000000  0.5618930000000  0.4573040000000 1.0
C      1  0.5501270000000  0.5077920000000  0.5854410000000 1.0
END
