TITL C-627113-6568-1233 0.78127581654214 125000 -440.410029434812 0 0 73 (C1) n - 1
REM
REM in /home/nfs/bkarasulu/CARBON/AIRSS/Generating-Clusters/LCBOP/Only-C1/SD-CG/FIRE-CG
REM
REM
REM
REM
REM
REM ./C.cell (11c1c37f851c82e70ff6c80c92926a4b)
REM AIRSS Version 0.9.1 bugfix July 2018 build 013d7b7c2542+ Fri, 06 Jul 2018 19:26:36 +0100
REM compiler GCC version 9.2.1 20190827 (Red Hat 9.2.1-1)
REM options -cpp -mtune=generic -march=x86-64 -g -O0 -fpre-include=/usr/include/finclude/math-vector-fortran.h
REM seed -12600744 -489636092 43642445 -1178570966 -442806791 -2124572213 654400034 -1723515717 -97581967 -1298205391 -417686112 -1868073683 335505505 1169889217 -838685877 1298605534 -1046917171 1694850527 -382819084 60652873 -662272699 1344824166 1251112996 1858998182 325173167 -1406741037 -418797920 -1503647221 990078328 254657953 1120318127 1046716410 -2130060880
REM
CELL 1.54180   50.00000   50.00000   50.00000   90.00000   90.00000   90.00000
LATT -1
SFAC C  
C      1  0.5457710000000  0.4833110000000  0.4374960000000 1.0
C      1  0.4942530000000  0.5240910000000  0.4302760000000 1.0
C      1  0.4949680000000  0.5081510000000  0.4566590000000 1.0
C      1  0.5074450000000  0.5235060000000  0.4791800000000 1.0
C      1  0.4777180000000  0.5471800000000  0.4319820000000 1.0
C      1  0.4388260000000  0.4887180000000  0.5402140000000 1.0
C      1  0.5007550000000  0.5306240000000  0.5709210000000 1.0
C      1  0.5605870000000  0.5561130000000  0.4989530000000 1.0
C      1  0.4562220000000  0.4857030000000  0.4347340000000 1.0
C      1  0.4999220000000  0.5574070000000  0.5600930000000 1.0
C      1  0.5668330000000  0.4846440000000  0.4845540000000 1.0
C      1  0.4885250000000  0.4000430000000  0.5038400000000 1.0
C      1  0.5074910000000  0.5252720000000  0.5967680000000 1.0
C      1  0.4755190000000  0.5634350000000  0.5449660000000 1.0
C      1  0.5056890000000  0.4630030000000  0.5637280000000 1.0
C      1  0.5379680000000  0.4306630000000  0.4964340000000 1.0
C      1  0.4988580000000  0.5937500000000  0.5090590000000 1.0
C      1  0.5036750000000  0.6197480000000  0.5170820000000 1.0
C      1  0.4320190000000  0.4545720000000  0.5041040000000 1.0
C      1  0.3933340000000  0.4771700000000  0.5246830000000 1.0
C      1  0.5070860000000  0.4802450000000  0.4595290000000 1.0
C      1  0.4645050000000  0.5011790000000  0.4580090000000 1.0
C      1  0.5136530000000  0.4348280000000  0.4824220000000 1.0
C      1  0.5500110000000  0.5603130000000  0.5473170000000 1.0
C      1  0.3676340000000  0.4811830000000  0.5262750000000 1.0
C      1  0.5687560000000  0.4405000000000  0.5598840000000 1.0
C      1  0.5642890000000  0.5364730000000  0.4778330000000 1.0
C      1  0.4944730000000  0.4013240000000  0.5299730000000 1.0
C      1  0.5440830000000  0.5788110000000  0.4954940000000 1.0
C      1  0.4934460000000  0.5108830000000  0.5518950000000 1.0
C      1  0.4689240000000  0.5082810000000  0.5052680000000 1.0
C      1  0.4874870000000  0.4831840000000  0.5570090000000 1.0
C      1  0.5190790000000  0.4701940000000  0.4354510000000 1.0
C      1  0.5198820000000  0.4405890000000  0.5540410000000 1.0
C      1  0.5648100000000  0.5513400000000  0.5265860000000 1.0
C      1  0.4778960000000  0.4823390000000  0.4141500000000 1.0
C      1  0.4475810000000  0.4588200000000  0.4384770000000 1.0
C      1  0.5899480000000  0.4381660000000  0.5756090000000 1.0
C      1  0.5493840000000  0.5366390000000  0.4523470000000 1.0
C      1  0.5059640000000  0.4166990000000  0.5485930000000 1.0
C      1  0.4909570000000  0.5067310000000  0.4078800000000 1.0
C      1  0.4762250000000  0.5806890000000  0.5215850000000 1.0
C      1  0.5506540000000  0.4761300000000  0.5067400000000 1.0
C      1  0.4763740000000  0.4809900000000  0.5122120000000 1.0
C      1  0.4782740000000  0.5220060000000  0.5286420000000 1.0
C      1  0.5760250000000  0.5114800000000  0.4846540000000 1.0
C      1  0.5464370000000  0.4432460000000  0.5434490000000 1.0
C      1  0.5167450000000  0.5831340000000  0.4890200000000 1.0
C      1  0.4946700000000  0.4594320000000  0.4228460000000 1.0
C      1  0.5221730000000  0.5170940000000  0.5010390000000 1.0
C      1  0.4477080000000  0.5430690000000  0.4738850000000 1.0
C      1  0.5260130000000  0.4908560000000  0.5108020000000 1.0
C      1  0.5492410000000  0.4487400000000  0.5155380000000 1.0
C      1  0.4656360000000  0.4771930000000  0.5390970000000 1.0
C      1  0.4908820000000  0.4177570000000  0.4821220000000 1.0
C      1  0.4682000000000  0.4298260000000  0.4695630000000 1.0
C      1  0.5626990000000  0.4731160000000  0.4585670000000 1.0
C      1  0.4209370000000  0.4735270000000  0.5230220000000 1.0
C      1  0.4519910000000  0.5806680000000  0.5070900000000 1.0
C      1  0.5480310000000  0.5124550000000  0.4362320000000 1.0
C      1  0.5136030000000  0.5742660000000  0.4621410000000 1.0
C      1  0.4374650000000  0.5182960000000  0.5467570000000 1.0
C      1  0.6107870000000  0.4358890000000  0.5911060000000 1.0
C      1  0.5062480000000  0.4621700000000  0.4807590000000 1.0
C      1  0.4470420000000  0.4394780000000  0.4872010000000 1.0
C      1  0.5257090000000  0.5679860000000  0.5559010000000 1.0
C      1  0.4698730000000  0.4417070000000  0.4432970000000 1.0
C      1  0.5308010000000  0.5580070000000  0.4485450000000 1.0
C      1  0.4393450000000  0.5627410000000  0.4918000000000 1.0
C      1  0.4557140000000  0.5163040000000  0.4810900000000 1.0
C      1  0.5027250000000  0.4746300000000  0.5055060000000 1.0
C      1  0.4584020000000  0.5390110000000  0.5413760000000 1.0
C      1  0.4571450000000  0.5522810000000  0.4486490000000 1.0
END
