TITL C-627113-6568-170 2.05671383947371e-07 125000 -1017.35793114483 0 0 165 (C1) n - 1
REM
REM in /home/nfs/bkarasulu/CARBON/AIRSS/Generating-Clusters/LCBOP/Only-C1/SD-CG/FIRE-CG
REM
REM
REM
REM
REM
REM ./C.cell (11c1c37f851c82e70ff6c80c92926a4b)
REM AIRSS Version 0.9.1 bugfix July 2018 build 013d7b7c2542+ Fri, 06 Jul 2018 19:26:36 +0100
REM compiler GCC version 9.2.1 20190827 (Red Hat 9.2.1-1)
REM options -cpp -mtune=generic -march=x86-64 -g -O0 -fpre-include=/usr/include/finclude/math-vector-fortran.h
REM seed -1533504783 -1877012894 -1527888737 -1064909667 -1367743195 -85807551 1334413107 1302533599 -599680288 468673955 1309573183 1471930452 251343115 1976669223 257974542 -670861983 270952028 666229420 2092208228 -1432726548 -1629124039 1513799850 -2076924603 -1864892201 1817502632 553005772 651980301 2013290763 -1648798484 1581618714 -1061182712 -1120953050 679601166
REM
CELL 1.54180   50.00000   50.00000   50.00000   90.00000   90.00000   90.00000
LATT -1
SFAC C  
C      1  0.4781360000000  0.5950520000000  0.4426410000000 1.0
C      1  0.4664370000000  0.4375760000000  0.4656960000000 1.0
C      1  0.4325870000000  0.5011970000000  0.6017430000000 1.0
C      1  0.4203690000000  0.4263530000000  0.4570460000000 1.0
C      1  0.5828710000000  0.5844040000000  0.5222620000000 1.0
C      1  0.4927490000000  0.5054750000000  0.5354480000000 1.0
C      1  0.4072750000000  0.5145880000000  0.4592970000000 1.0
C      1  0.5890080000000  0.5482010000000  0.4979030000000 1.0
C      1  0.5805120000000  0.5235250000000  0.5081780000000 1.0
C      1  0.4589900000000  0.4480170000000  0.4933650000000 1.0
C      1  0.4758170000000  0.4550820000000  0.3995010000000 1.0
C      1  0.4641020000000  0.3910070000000  0.4663730000000 1.0
C      1  0.4532660000000  0.5281390000000  0.5492320000000 1.0
C      1  0.6298310000000  0.5549710000000  0.5144680000000 1.0
C      1  0.4669090000000  0.5168940000000  0.4129770000000 1.0
C      1  0.4112600000000  0.5495180000000  0.5521960000000 1.0
C      1  0.4801950000000  0.4464190000000  0.6059260000000 1.0
C      1  0.4757780000000  0.4321410000000  0.4173940000000 1.0
C      1  0.5287480000000  0.5750410000000  0.4364970000000 1.0
C      1  0.5526810000000  0.4325160000000  0.4567500000000 1.0
C      1  0.5473840000000  0.4994540000000  0.5360650000000 1.0
C      1  0.3829340000000  0.5352420000000  0.4990510000000 1.0
C      1  0.5380440000000  0.4901630000000  0.4629590000000 1.0
C      1  0.4411040000000  0.4034660000000  0.5323460000000 1.0
C      1  0.5015030000000  0.5388630000000  0.5619750000000 1.0
C      1  0.5013970000000  0.5180140000000  0.4472630000000 1.0
C      1  0.4200810000000  0.4771130000000  0.4843950000000 1.0
C      1  0.4301280000000  0.5095460000000  0.3822680000000 1.0
C      1  0.4750150000000  0.5499360000000  0.4740120000000 1.0
C      1  0.3817130000000  0.5186330000000  0.5219390000000 1.0
C      1  0.5179430000000  0.5434500000000  0.4011560000000 1.0
C      1  0.4773950000000  0.6138260000000  0.4875020000000 1.0
C      1  0.5428890000000  0.5580220000000  0.5327410000000 1.0
C      1  0.3989190000000  0.4795650000000  0.5579330000000 1.0
C      1  0.4730410000000  0.4213310000000  0.5647730000000 1.0
C      1  0.5722970000000  0.5172160000000  0.5372930000000 1.0
C      1  0.6030950000000  0.4827270000000  0.4473550000000 1.0
C      1  0.5925450000000  0.4950870000000  0.5475110000000 1.0
C      1  0.4540990000000  0.4649530000000  0.5739620000000 1.0
C      1  0.6679680000000  0.5261620000000  0.5069570000000 1.0
C      1  0.5025090000000  0.5200990000000  0.6085950000000 1.0
C      1  0.5136680000000  0.3773870000000  0.4669650000000 1.0
C      1  0.6273350000000  0.5142750000000  0.4836430000000 1.0
C      1  0.4350750000000  0.5686920000000  0.4634080000000 1.0
C      1  0.3939660000000  0.5266500000000  0.5473400000000 1.0
C      1  0.4478120000000  0.5234700000000  0.5014940000000 1.0
C      1  0.5183470000000  0.4714140000000  0.5644820000000 1.0
C      1  0.4453430000000  0.5428760000000  0.4767750000000 1.0
C      1  0.4942370000000  0.5138100000000  0.5089670000000 1.0
C      1  0.6036020000000  0.5660820000000  0.5148310000000 1.0
C      1  0.5200480000000  0.5118540000000  0.4671420000000 1.0
C      1  0.5020990000000  0.4664960000000  0.4046310000000 1.0
C      1  0.4351860000000  0.5210280000000  0.4568110000000 1.0
C      1  0.4734760000000  0.4895690000000  0.4726280000000 1.0
C      1  0.5342680000000  0.4744600000000  0.4396370000000 1.0
C      1  0.4930520000000  0.5937250000000  0.5006370000000 1.0
C      1  0.5083250000000  0.6027610000000  0.5223610000000 1.0
C      1  0.4530280000000  0.4833040000000  0.5961400000000 1.0
C      1  0.4881370000000  0.5674100000000  0.4918450000000 1.0
C      1  0.4488700000000  0.3838620000000  0.5137070000000 1.0
C      1  0.4513300000000  0.5841050000000  0.4469700000000 1.0
C      1  0.4718350000000  0.5082300000000  0.4940630000000 1.0
C      1  0.5869970000000  0.4678630000000  0.5366300000000 1.0
C      1  0.4908870000000  0.5046090000000  0.4234310000000 1.0
C      1  0.6415950000000  0.5318180000000  0.5016340000000 1.0
C      1  0.4472380000000  0.6153800000000  0.5280360000000 1.0
C      1  0.5909640000000  0.5529900000000  0.4704700000000 1.0
C      1  0.5537650000000  0.5577960000000  0.5772550000000 1.0
C      1  0.5323380000000  0.5781730000000  0.5836460000000 1.0
C      1  0.5113140000000  0.4580900000000  0.4322730000000 1.0
C      1  0.5519880000000  0.5087330000000  0.4084750000000 1.0
C      1  0.5390550000000  0.5807800000000  0.4623440000000 1.0
C      1  0.4611180000000  0.4390070000000  0.5838720000000 1.0
C      1  0.4397060000000  0.5519910000000  0.5575140000000 1.0
C      1  0.4153750000000  0.4654650000000  0.5403430000000 1.0
C      1  0.4942900000000  0.4692620000000  0.4753790000000 1.0
C      1  0.4873670000000  0.4406110000000  0.4433610000000 1.0
C      1  0.3748910000000  0.4668940000000  0.5046590000000 1.0
C      1  0.5067610000000  0.4943830000000  0.4022460000000 1.0
C      1  0.4513180000000  0.4700380000000  0.4015260000000 1.0
C      1  0.4805960000000  0.5232510000000  0.5530060000000 1.0
C      1  0.5553120000000  0.5771520000000  0.5151260000000 1.0
C      1  0.5208510000000  0.6095390000000  0.5449450000000 1.0
C      1  0.5028660000000  0.6643280000000  0.4402700000000 1.0
C      1  0.4067010000000  0.4407010000000  0.5279720000000 1.0
C      1  0.5653490000000  0.3766650000000  0.5087410000000 1.0
C      1  0.4936890000000  0.5592700000000  0.4087630000000 1.0
C      1  0.4627160000000  0.4210070000000  0.5385230000000 1.0
C      1  0.5131600000000  0.4498840000000  0.4931600000000 1.0
C      1  0.4412490000000  0.4801930000000  0.5289990000000 1.0
C      1  0.5460780000000  0.5815650000000  0.4884040000000 1.0
C      1  0.3920100000000  0.4437580000000  0.5033380000000 1.0
C      1  0.4723690000000  0.5441270000000  0.4214400000000 1.0
C      1  0.5053590000000  0.5697140000000  0.5925920000000 1.0
C      1  0.5615590000000  0.5349030000000  0.4170280000000 1.0
C      1  0.4759470000000  0.4751690000000  0.6125940000000 1.0
C      1  0.5160060000000  0.4694270000000  0.5167280000000 1.0
C      1  0.5442670000000  0.4648980000000  0.6056520000000 1.0
C      1  0.5567380000000  0.4836020000000  0.4225130000000 1.0
C      1  0.5415200000000  0.3897030000000  0.5132050000000 1.0
C      1  0.5892970000000  0.4886170000000  0.5978860000000 1.0
C      1  0.4975410000000  0.4267660000000  0.5054150000000 1.0
C      1  0.6260440000000  0.4657240000000  0.4470790000000 1.0
C      1  0.5321260000000  0.6019390000000  0.5680800000000 1.0
C      1  0.4695720000000  0.3877700000000  0.4949780000000 1.0
C      1  0.4477730000000  0.4151840000000  0.4600500000000 1.0
C      1  0.5798510000000  0.5036530000000  0.4874730000000 1.0
C      1  0.3969980000000  0.4673000000000  0.4443290000000 1.0
C      1  0.5004460000000  0.4168550000000  0.5730800000000 1.0
C      1  0.5401930000000  0.5546260000000  0.4184940000000 1.0
C      1  0.5966430000000  0.5326870000000  0.4519100000000 1.0
C      1  0.5226150000000  0.4576580000000  0.5893030000000 1.0
C      1  0.4937550000000  0.4963930000000  0.6179190000000 1.0
C      1  0.5004710000000  0.5816090000000  0.4281980000000 1.0
C      1  0.4562310000000  0.6229210000000  0.5037690000000 1.0
C      1  0.5611060000000  0.5437890000000  0.5516830000000 1.0
C      1  0.5257790000000  0.5144480000000  0.3963290000000 1.0
C      1  0.5559790000000  0.4864030000000  0.4869680000000 1.0
C      1  0.5185990000000  0.5142020000000  0.4957510000000 1.0
C      1  0.4486070000000  0.5993570000000  0.5494620000000 1.0
C      1  0.3729710000000  0.4917390000000  0.5157480000000 1.0
C      1  0.5357260000000  0.4935650000000  0.5094810000000 1.0
C      1  0.5636490000000  0.4583140000000  0.4933690000000 1.0
C      1  0.5198590000000  0.3858960000000  0.4942440000000 1.0
C      1  0.5755060000000  0.4416250000000  0.4415440000000 1.0
C      1  0.4095060000000  0.5106650000000  0.5919060000000 1.0
C      1  0.5868280000000  0.4574100000000  0.5099010000000 1.0
C      1  0.5681000000000  0.4765310000000  0.6088330000000 1.0
C      1  0.5393400000000  0.4068620000000  0.5371100000000 1.0
C      1  0.5997920000000  0.4266860000000  0.4410080000000 1.0
C      1  0.4829910000000  0.6177320000000  0.4597770000000 1.0
C      1  0.4024250000000  0.4292130000000  0.4802580000000 1.0
C      1  0.4551720000000  0.5762400000000  0.5648330000000 1.0
C      1  0.5421770000000  0.4420940000000  0.4818380000000 1.0
C      1  0.6240130000000  0.4387480000000  0.4440310000000 1.0
C      1  0.5876540000000  0.5364780000000  0.4260650000000 1.0
C      1  0.4958350000000  0.3987300000000  0.5020970000000 1.0
C      1  0.5051740000000  0.4364260000000  0.5948210000000 1.0
C      1  0.4786020000000  0.5788790000000  0.5827590000000 1.0
C      1  0.5796320000000  0.4704380000000  0.4344940000000 1.0
C      1  0.4414360000000  0.5122440000000  0.5276760000000 1.0
C      1  0.5442030000000  0.4771120000000  0.5535130000000 1.0
C      1  0.4723940000000  0.4352580000000  0.5155030000000 1.0
C      1  0.4303780000000  0.4546150000000  0.4136050000000 1.0
C      1  0.4644190000000  0.4708710000000  0.5478090000000 1.0
C      1  0.4963030000000  0.4763900000000  0.5421930000000 1.0
C      1  0.4926770000000  0.6418290000000  0.4498490000000 1.0
C      1  0.4890560000000  0.3811230000000  0.4542020000000 1.0
C      1  0.5563320000000  0.4291430000000  0.5429010000000 1.0
C      1  0.5044520000000  0.5410160000000  0.5901900000000 1.0
C      1  0.4411840000000  0.4687530000000  0.5007030000000 1.0
C      1  0.4533510000000  0.4981410000000  0.4539990000000 1.0
C      1  0.4842280000000  0.5409640000000  0.4492470000000 1.0
C      1  0.4149190000000  0.4466040000000  0.4359690000000 1.0
C      1  0.4040860000000  0.4866770000000  0.4632570000000 1.0
C      1  0.4159210000000  0.4152290000000  0.5352620000000 1.0
C      1  0.5632530000000  0.4560470000000  0.5490530000000 1.0
C      1  0.5164380000000  0.5525830000000  0.5417430000000 1.0
C      1  0.5130010000000  0.6864110000000  0.4308240000000 1.0
C      1  0.6021770000000  0.5064000000000  0.4660980000000 1.0
C      1  0.4493360000000  0.4990810000000  0.3988690000000 1.0
C      1  0.3967540000000  0.5059800000000  0.5672370000000 1.0
C      1  0.3901620000000  0.5320390000000  0.4733090000000 1.0
C      1  0.5188330000000  0.4036870000000  0.5565260000000 1.0
C      1  0.6002570000000  0.4964500000000  0.5746730000000 1.0
END
