TITL C-627107-135-121 0.0174599980690409 125000 -479.129479371453 0 0 80 (C1) n - 1
REM
REM in /home/nfs/bkarasulu/CARBON/AIRSS/Generating-Clusters/LCBOP/Only-C1/SD-CG/FIRE-CG
REM
REM
REM
REM
REM
REM ./C.cell (11c1c37f851c82e70ff6c80c92926a4b)
REM AIRSS Version 0.9.1 bugfix July 2018 build 013d7b7c2542+ Fri, 06 Jul 2018 19:26:36 +0100
REM compiler GCC version 9.2.1 20190827 (Red Hat 9.2.1-1)
REM options -cpp -mtune=generic -march=x86-64 -g -O0 -fpre-include=/usr/include/finclude/math-vector-fortran.h
REM seed -1404877260 -1559219505 1996603270 -1677641019 -538306423 -935002879 -837550714 1892341772 -1581302832 1299076722 -476211326 -309635995 -67169101 1220327928 -905503023 316317436 2116563744 1228058395 -1553066876 1804032924 2029937546 1717336312 -1832388993 -704018474 1763131502 1887202652 -666219710 -959024487 802158765 1321587204 -814424917 993135903 -499488579
REM
CELL 1.54180   50.00000   50.00000   50.00000   90.00000   90.00000   90.00000
LATT -1
SFAC C  
C      1  0.5192060000000  0.3663280000000  0.5219650000000 1.0
C      1  0.4064990000000  0.3914860000000  0.5271610000000 1.0
C      1  0.5505950000000  0.3879070000000  0.4904370000000 1.0
C      1  0.5172430000000  0.6025330000000  0.5519380000000 1.0
C      1  0.6112520000000  0.4376250000000  0.5935780000000 1.0
C      1  0.4428510000000  0.5257100000000  0.5105420000000 1.0
C      1  0.5257120000000  0.5133070000000  0.5253980000000 1.0
C      1  0.5707940000000  0.4519260000000  0.5632000000000 1.0
C      1  0.5037030000000  0.4891070000000  0.4257250000000 1.0
C      1  0.5516620000000  0.6300650000000  0.5288080000000 1.0
C      1  0.5072930000000  0.4485470000000  0.5279060000000 1.0
C      1  0.4663040000000  0.5640040000000  0.4852750000000 1.0
C      1  0.4987250000000  0.3647200000000  0.5392140000000 1.0
C      1  0.4429670000000  0.4873420000000  0.4812170000000 1.0
C      1  0.5125600000000  0.5321320000000  0.5388190000000 1.0
C      1  0.5297120000000  0.5650230000000  0.4151910000000 1.0
C      1  0.4640050000000  0.5382040000000  0.4956560000000 1.0
C      1  0.5601190000000  0.5690670000000  0.4516430000000 1.0
C      1  0.4850940000000  0.6267150000000  0.5201540000000 1.0
C      1  0.4135130000000  0.4442610000000  0.4313240000000 1.0
C      1  0.5046110000000  0.5697980000000  0.4230400000000 1.0
C      1  0.4073670000000  0.4254910000000  0.4922180000000 1.0
C      1  0.4440650000000  0.4638490000000  0.5343280000000 1.0
C      1  0.4341570000000  0.4617340000000  0.4725090000000 1.0
C      1  0.4654640000000  0.4217740000000  0.5230530000000 1.0
C      1  0.5708600000000  0.4009880000000  0.4793600000000 1.0
C      1  0.5177510000000  0.5746300000000  0.5610430000000 1.0
C      1  0.4838530000000  0.4728810000000  0.4376350000000 1.0
C      1  0.4492290000000  0.5274510000000  0.5846730000000 1.0
C      1  0.4589120000000  0.4625310000000  0.4300560000000 1.0
C      1  0.5911900000000  0.4447170000000  0.5785160000000 1.0
C      1  0.4723740000000  0.5562350000000  0.5537700000000 1.0
C      1  0.4931330000000  0.4266400000000  0.5173980000000 1.0
C      1  0.5125210000000  0.4663100000000  0.4760450000000 1.0
C      1  0.5449520000000  0.6126250000000  0.5494940000000 1.0
C      1  0.5232910000000  0.5023610000000  0.4390160000000 1.0
C      1  0.4826040000000  0.6088510000000  0.4755710000000 1.0
C      1  0.5827430000000  0.4730570000000  0.4582020000000 1.0
C      1  0.4471710000000  0.5170210000000  0.5375290000000 1.0
C      1  0.5440470000000  0.5311330000000  0.4750550000000 1.0
C      1  0.5605460000000  0.5931120000000  0.5639690000000 1.0
C      1  0.4002810000000  0.5100330000000  0.4910050000000 1.0
C      1  0.4711230000000  0.4920260000000  0.4789950000000 1.0
C      1  0.3928710000000  0.4332150000000  0.4198760000000 1.0
C      1  0.5298230000000  0.4652800000000  0.5300690000000 1.0
C      1  0.5423640000000  0.6387030000000  0.5051870000000 1.0
C      1  0.5689570000000  0.4961360000000  0.4509310000000 1.0
C      1  0.5505160000000  0.4589210000000  0.5476640000000 1.0
C      1  0.5551260000000  0.5591890000000  0.4255860000000 1.0
C      1  0.3967140000000  0.4055460000000  0.5065400000000 1.0
C      1  0.5702260000000  0.5365660000000  0.4182580000000 1.0
C      1  0.4562410000000  0.5333810000000  0.5588350000000 1.0
C      1  0.4352530000000  0.4558090000000  0.4443840000000 1.0
C      1  0.5081300000000  0.4080990000000  0.5025260000000 1.0
C      1  0.4594240000000  0.5802100000000  0.5508980000000 1.0
C      1  0.4447860000000  0.4892770000000  0.5420310000000 1.0
C      1  0.5423260000000  0.5036090000000  0.4636990000000 1.0
C      1  0.4272640000000  0.5075990000000  0.4940830000000 1.0
C      1  0.4874160000000  0.4731420000000  0.4659990000000 1.0
C      1  0.4943780000000  0.6266260000000  0.4935440000000 1.0
C      1  0.4772590000000  0.5826370000000  0.4672050000000 1.0
C      1  0.5572260000000  0.5705340000000  0.5000890000000 1.0
C      1  0.5202350000000  0.6373380000000  0.4900100000000 1.0
C      1  0.5538440000000  0.5574050000000  0.4764900000000 1.0
C      1  0.4575540000000  0.3975470000000  0.5365770000000 1.0
C      1  0.5839780000000  0.4223330000000  0.4706080000000 1.0
C      1  0.4298210000000  0.4422970000000  0.4928680000000 1.0
C      1  0.4953550000000  0.6171430000000  0.5429150000000 1.0
C      1  0.5317570000000  0.4886130000000  0.5135440000000 1.0
C      1  0.4304510000000  0.3906810000000  0.5389650000000 1.0
C      1  0.4804620000000  0.5180240000000  0.4845350000000 1.0
C      1  0.4766280000000  0.3786420000000  0.5447640000000 1.0
C      1  0.5449120000000  0.5712920000000  0.5708190000000 1.0
C      1  0.5879500000000  0.4477030000000  0.4639450000000 1.0
C      1  0.5768750000000  0.5131790000000  0.4297070000000 1.0
C      1  0.5321110000000  0.4846270000000  0.4851850000000 1.0
C      1  0.5007620000000  0.5540970000000  0.5518380000000 1.0
C      1  0.4863700000000  0.5746250000000  0.4418630000000 1.0
C      1  0.4463520000000  0.4421450000000  0.5165630000000 1.0
C      1  0.5262270000000  0.3865740000000  0.5037700000000 1.0
END
