TITL C-627106-156-1593 0.00016651081324856 125000 -1086.25284414736 0 0 176 (C1) n - 1
REM
REM in /home/nfs/bkarasulu/CARBON/AIRSS/Generating-Clusters/LCBOP/Only-C1/SD-CG/FIRE-CG
REM
REM
REM
REM
REM
REM ./C.cell (11c1c37f851c82e70ff6c80c92926a4b)
REM AIRSS Version 0.9.1 bugfix July 2018 build 013d7b7c2542+ Fri, 06 Jul 2018 19:26:36 +0100
REM compiler GCC version 9.2.1 20190827 (Red Hat 9.2.1-1)
REM options -cpp -mtune=generic -march=x86-64 -g -O0 -fpre-include=/usr/include/finclude/math-vector-fortran.h
REM seed 1349925982 -610220695 1152259773 -1986577532 269169272 429411647 -1491454586 1103651022 -304464877 2093652965 -1327505287 -1767156914 413332079 -455969512 1512662479 -887888728 1000446360 860340238 -481113887 1204093944 -2126039583 1413015135 -1082556490 -350735755 1663173623 -820430976 475424599 1700846268 -1136152238 1307571643 -2048066025 2131609643 1642714695
REM
CELL 1.54180   50.00000   50.00000   50.00000   90.00000   90.00000   90.00000
LATT -1
SFAC C  
C      1  0.5181590000000  0.4411450000000  0.6127400000000 1.0
C      1  0.5099330000000  0.4373470000000  0.3813200000000 1.0
C      1  0.5310790000000  0.3862600000000  0.4958150000000 1.0
C      1  0.5056360000000  0.5013870000000  0.5597290000000 1.0
C      1  0.4309870000000  0.6043400000000  0.4525820000000 1.0
C      1  0.5435120000000  0.5376560000000  0.6183610000000 1.0
C      1  0.5686480000000  0.4949800000000  0.4726040000000 1.0
C      1  0.5862950000000  0.5608870000000  0.5046800000000 1.0
C      1  0.3859280000000  0.5350180000000  0.4866860000000 1.0
C      1  0.4295170000000  0.5274540000000  0.5860210000000 1.0
C      1  0.4978550000000  0.6084910000000  0.4724940000000 1.0
C      1  0.3597540000000  0.5024120000000  0.5129850000000 1.0
C      1  0.5411310000000  0.4422400000000  0.5948050000000 1.0
C      1  0.5475110000000  0.4648840000000  0.4271010000000 1.0
C      1  0.4115950000000  0.4660210000000  0.5566070000000 1.0
C      1  0.5211160000000  0.4108100000000  0.4893450000000 1.0
C      1  0.4813210000000  0.4040720000000  0.4622510000000 1.0
C      1  0.4038990000000  0.5195310000000  0.4428310000000 1.0
C      1  0.4299910000000  0.5457130000000  0.4748230000000 1.0
C      1  0.5981520000000  0.5273970000000  0.4526110000000 1.0
C      1  0.5288140000000  0.5786910000000  0.5971200000000 1.0
C      1  0.5888430000000  0.4206250000000  0.4783070000000 1.0
C      1  0.3827510000000  0.5114610000000  0.5563110000000 1.0
C      1  0.4536960000000  0.4472310000000  0.4700630000000 1.0
C      1  0.3776380000000  0.5072770000000  0.4919690000000 1.0
C      1  0.6095670000000  0.5580980000000  0.5174860000000 1.0
C      1  0.5395140000000  0.4193560000000  0.5766960000000 1.0
C      1  0.5460730000000  0.5152550000000  0.5152770000000 1.0
C      1  0.5630140000000  0.4070350000000  0.4335600000000 1.0
C      1  0.5854050000000  0.5461980000000  0.4350550000000 1.0
C      1  0.4347400000000  0.5041160000000  0.4957900000000 1.0
C      1  0.5398530000000  0.5654860000000  0.4301210000000 1.0
C      1  0.5413180000000  0.4542210000000  0.4523290000000 1.0
C      1  0.4943150000000  0.5051890000000  0.4340010000000 1.0
C      1  0.4565130000000  0.6033350000000  0.4373880000000 1.0
C      1  0.4941740000000  0.4576930000000  0.4484990000000 1.0
C      1  0.4045480000000  0.5830840000000  0.4960820000000 1.0
C      1  0.5257060000000  0.4358720000000  0.5049040000000 1.0
C      1  0.4497660000000  0.5474600000000  0.5188660000000 1.0
C      1  0.5816000000000  0.5733050000000  0.4455370000000 1.0
C      1  0.3876870000000  0.5588510000000  0.5037620000000 1.0
C      1  0.5987080000000  0.4928510000000  0.4121650000000 1.0
C      1  0.6014490000000  0.5327230000000  0.5810410000000 1.0
C      1  0.4839520000000  0.5075830000000  0.4997450000000 1.0
C      1  0.4495320000000  0.5603300000000  0.4382470000000 1.0
C      1  0.4348650000000  0.5663900000000  0.5585970000000 1.0
C      1  0.5412110000000  0.5700450000000  0.5220310000000 1.0
C      1  0.5122400000000  0.4044450000000  0.5808130000000 1.0
C      1  0.5253600000000  0.5052540000000  0.4736150000000 1.0
C      1  0.3850430000000  0.5536850000000  0.5320020000000 1.0
C      1  0.5676670000000  0.5921890000000  0.4599940000000 1.0
C      1  0.4645610000000  0.5119700000000  0.3969350000000 1.0
C      1  0.5200960000000  0.5992470000000  0.4880540000000 1.0
C      1  0.4746460000000  0.4386780000000  0.5890320000000 1.0
C      1  0.4747610000000  0.4530170000000  0.5210390000000 1.0
C      1  0.3940150000000  0.5381630000000  0.5544550000000 1.0
C      1  0.5761680000000  0.4073270000000  0.4569350000000 1.0
C      1  0.5733820000000  0.4946530000000  0.5488470000000 1.0
C      1  0.5575510000000  0.5182950000000  0.6030700000000 1.0
C      1  0.5157270000000  0.4408830000000  0.4537610000000 1.0
C      1  0.5236590000000  0.5575950000000  0.6155410000000 1.0
C      1  0.6106960000000  0.5570510000000  0.5667730000000 1.0
C      1  0.5324410000000  0.4821870000000  0.3445160000000 1.0
C      1  0.4816070000000  0.5463640000000  0.4692270000000 1.0
C      1  0.5271210000000  0.4248510000000  0.5320850000000 1.0
C      1  0.5501760000000  0.4905930000000  0.6067230000000 1.0
C      1  0.5484030000000  0.5466370000000  0.4758370000000 1.0
C      1  0.5186270000000  0.5011220000000  0.4458600000000 1.0
C      1  0.5439370000000  0.5489340000000  0.4074130000000 1.0
C      1  0.6077460000000  0.4632880000000  0.5101270000000 1.0
C      1  0.4746010000000  0.4654410000000  0.4663880000000 1.0
C      1  0.4978340000000  0.5503540000000  0.6242810000000 1.0
C      1  0.4737980000000  0.4912870000000  0.4779030000000 1.0
C      1  0.5349260000000  0.4832910000000  0.6299080000000 1.0
C      1  0.5549670000000  0.4673130000000  0.4743720000000 1.0
C      1  0.6135130000000  0.4338310000000  0.4730970000000 1.0
C      1  0.4843650000000  0.5736580000000  0.5549270000000 1.0
C      1  0.4358730000000  0.4456390000000  0.3801430000000 1.0
C      1  0.4049100000000  0.4281370000000  0.5211780000000 1.0
C      1  0.4936420000000  0.5569750000000  0.3901810000000 1.0
C      1  0.4452280000000  0.5196800000000  0.5180380000000 1.0
C      1  0.4980310000000  0.4247170000000  0.5989990000000 1.0
C      1  0.5198670000000  0.5487870000000  0.3914590000000 1.0
C      1  0.4176560000000  0.5463350000000  0.5694130000000 1.0
C      1  0.5771260000000  0.5084820000000  0.4008230000000 1.0
C      1  0.5748820000000  0.4324780000000  0.5004710000000 1.0
C      1  0.5382920000000  0.4914620000000  0.4276590000000 1.0
C      1  0.4659600000000  0.5091460000000  0.6139460000000 1.0
C      1  0.4989640000000  0.3944240000000  0.5555830000000 1.0
C      1  0.5732910000000  0.5301160000000  0.5822990000000 1.0
C      1  0.5539660000000  0.4738400000000  0.5576400000000 1.0
C      1  0.5168130000000  0.5834150000000  0.5131810000000 1.0
C      1  0.5513730000000  0.4687940000000  0.5875540000000 1.0
C      1  0.5204140000000  0.4076620000000  0.4078760000000 1.0
C      1  0.5514220000000  0.4478500000000  0.4951050000000 1.0
C      1  0.6223810000000  0.5497190000000  0.5408130000000 1.0
C      1  0.4018150000000  0.4422930000000  0.5442050000000 1.0
C      1  0.4048890000000  0.5364430000000  0.4658730000000 1.0
C      1  0.5951530000000  0.5023860000000  0.4661170000000 1.0
C      1  0.4738260000000  0.4818450000000  0.6170700000000 1.0
C      1  0.4337140000000  0.6127880000000  0.5297980000000 1.0
C      1  0.4487060000000  0.5354850000000  0.3994230000000 1.0
C      1  0.5083270000000  0.5277300000000  0.5693390000000 1.0
C      1  0.5194660000000  0.4610160000000  0.6326240000000 1.0
C      1  0.5363790000000  0.5837170000000  0.5715090000000 1.0
C      1  0.4484910000000  0.5030970000000  0.4693240000000 1.0
C      1  0.5865890000000  0.4470470000000  0.5232210000000 1.0
C      1  0.4125520000000  0.5950310000000  0.4707630000000 1.0
C      1  0.5466340000000  0.5671170000000  0.5506050000000 1.0
C      1  0.5248230000000  0.4832930000000  0.5472970000000 1.0
C      1  0.4297750000000  0.4775250000000  0.5044550000000 1.0
C      1  0.3907260000000  0.4852970000000  0.4765710000000 1.0
C      1  0.4085400000000  0.4644610000000  0.4896340000000 1.0
C      1  0.6127140000000  0.4793470000000  0.4314690000000 1.0
C      1  0.5024820000000  0.4569780000000  0.5097370000000 1.0
C      1  0.4272030000000  0.5221880000000  0.4260400000000 1.0
C      1  0.4582860000000  0.4851950000000  0.5709930000000 1.0
C      1  0.5311170000000  0.5587760000000  0.4557760000000 1.0
C      1  0.6314860000000  0.5225050000000  0.5464380000000 1.0
C      1  0.5464540000000  0.6010950000000  0.4751060000000 1.0
C      1  0.6124860000000  0.4805850000000  0.4604560000000 1.0
C      1  0.4775020000000  0.4326380000000  0.5406530000000 1.0
C      1  0.4580780000000  0.5846850000000  0.5621410000000 1.0
C      1  0.4392010000000  0.4712900000000  0.5518100000000 1.0
C      1  0.3858050000000  0.4756830000000  0.4282990000000 1.0
C      1  0.5034580000000  0.5573350000000  0.4569960000000 1.0
C      1  0.3932680000000  0.4927310000000  0.4483630000000 1.0
C      1  0.5015130000000  0.4186080000000  0.5405350000000 1.0
C      1  0.5419650000000  0.4767510000000  0.3696410000000 1.0
C      1  0.4482990000000  0.4664190000000  0.5240260000000 1.0
C      1  0.4775420000000  0.3999870000000  0.4339880000000 1.0
C      1  0.5456450000000  0.4181250000000  0.4143490000000 1.0
C      1  0.4496450000000  0.5089840000000  0.5896930000000 1.0
C      1  0.6158970000000  0.4610550000000  0.4816240000000 1.0
C      1  0.5697620000000  0.5348890000000  0.4116540000000 1.0
C      1  0.5483470000000  0.4259220000000  0.5502060000000 1.0
C      1  0.4701890000000  0.5056710000000  0.5255490000000 1.0
C      1  0.5667350000000  0.4480550000000  0.5452950000000 1.0
C      1  0.5482730000000  0.4458780000000  0.4065210000000 1.0
C      1  0.4633330000000  0.4296330000000  0.5647540000000 1.0
C      1  0.4809510000000  0.3799230000000  0.5363540000000 1.0
C      1  0.5582900000000  0.5593300000000  0.5005870000000 1.0
C      1  0.4956810000000  0.5515790000000  0.5688410000000 1.0
C      1  0.4692230000000  0.3879590000000  0.5114490000000 1.0
C      1  0.5597500000000  0.5445380000000  0.5616060000000 1.0
C      1  0.4695120000000  0.5012510000000  0.4229360000000 1.0
C      1  0.5689820000000  0.5115030000000  0.5285130000000 1.0
C      1  0.4770470000000  0.5539500000000  0.5134030000000 1.0
C      1  0.4700280000000  0.4661950000000  0.5933170000000 1.0
C      1  0.4330160000000  0.5661280000000  0.5299390000000 1.0
C      1  0.4922890000000  0.5740290000000  0.5265730000000 1.0
C      1  0.4509410000000  0.6105990000000  0.5512730000000 1.0
C      1  0.5171990000000  0.4795730000000  0.5193200000000 1.0
C      1  0.4585070000000  0.5794820000000  0.4197850000000 1.0
C      1  0.3960990000000  0.4880760000000  0.5648240000000 1.0
C      1  0.4785570000000  0.4967990000000  0.5513460000000 1.0
C      1  0.4853410000000  0.4280580000000  0.3907840000000 1.0
C      1  0.4924070000000  0.4081780000000  0.4110640000000 1.0
C      1  0.4657150000000  0.5609580000000  0.3978890000000 1.0
C      1  0.6197400000000  0.5128530000000  0.5698740000000 1.0
C      1  0.4412650000000  0.4257190000000  0.4846110000000 1.0
C      1  0.4619460000000  0.4033540000000  0.4863220000000 1.0
C      1  0.4228200000000  0.5894640000000  0.5175090000000 1.0
C      1  0.4598740000000  0.4362660000000  0.3840560000000 1.0
C      1  0.4872150000000  0.5357650000000  0.4943220000000 1.0
C      1  0.5072670000000  0.4164550000000  0.4661350000000 1.0
C      1  0.5512460000000  0.5183890000000  0.4717220000000 1.0
C      1  0.4471290000000  0.5058990000000  0.4404620000000 1.0
C      1  0.3605630000000  0.5063690000000  0.5394830000000 1.0
C      1  0.4147900000000  0.4352940000000  0.4952200000000 1.0
C      1  0.4796870000000  0.6108800000000  0.4525950000000 1.0
C      1  0.5333970000000  0.4529250000000  0.3832300000000 1.0
C      1  0.4545630000000  0.5510450000000  0.4632100000000 1.0
C      1  0.5260670000000  0.4997160000000  0.5021210000000 1.0
C      1  0.4785280000000  0.5317940000000  0.6242620000000 1.0
C      1  0.5602840000000  0.4950560000000  0.3818930000000 1.0
END
