TITL C-627113-6568-614 -2000.49030038402 125000 -1013.97101879537 0 0 165 (C1) n - 1
REM
REM in /home/nfs/bkarasulu/CARBON/AIRSS/Generating-Clusters/LCBOP/Only-C1/SD-CG/FIRE-CG
REM
REM
REM
REM
REM
REM ./C.cell (11c1c37f851c82e70ff6c80c92926a4b)
REM AIRSS Version 0.9.1 bugfix July 2018 build 013d7b7c2542+ Fri, 06 Jul 2018 19:26:36 +0100
REM compiler GCC version 9.2.1 20190827 (Red Hat 9.2.1-1)
REM options -cpp -mtune=generic -march=x86-64 -g -O0 -fpre-include=/usr/include/finclude/math-vector-fortran.h
REM seed -536790513 638281627 -1340493621 -462597158 -1552760129 -1278096598 -441580263 865299765 208808151 1520048066 840562320 795293964 1062280351 1666802255 481462039 -1778532471 1044175482 450090569 571746063 -1498703523 -1985592904 -583028638 1095296166 112408714 1605350619 73058677 -416076651 -1731885996 -1740076912 1830328395 680781013 -353323556 -928324723
REM
CELL 1.54180   50.00000   50.00000   50.00000   90.00000   90.00000   90.00000
LATT -1
SFAC C  
C      1  0.5626050000000  0.5395830000000  0.4895840000000 1.0
C      1  0.5481240000000  0.5428620000000  0.5135040000000 1.0
C      1  0.5418430000000  0.5649770000000  0.4368530000000 1.0
C      1  0.4105560000000  0.4572730000000  0.4310540000000 1.0
C      1  0.5179780000000  0.5097050000000  0.4688780000000 1.0
C      1  0.5084600000000  0.4682980000000  0.5730700000000 1.0
C      1  0.4275970000000  0.5936600000000  0.4944330000000 1.0
C      1  0.5575300000000  0.5403390000000  0.4262970000000 1.0
C      1  0.5841500000000  0.5367480000000  0.5490020000000 1.0
C      1  0.5179760000000  0.5838470000000  0.4874300000000 1.0
C      1  0.4773040000000  0.4160140000000  0.4272810000000 1.0
C      1  0.5559010000000  0.4986700000000  0.5296000000000 1.0
C      1  0.4265090000000  0.4331180000000  0.4335970000000 1.0
C      1  0.4995320000000  0.4750270000000  0.3778890000000 1.0
C      1  0.4898010000000  0.6200250000000  0.4717470000000 1.0
C      1  0.4386620000000  0.5125140000000  0.5966280000000 1.0
C      1  0.4451780000000  0.4191710000000  0.5044800000000 1.0
C      1  0.6120830000000  0.4927770000000  0.4690320000000 1.0
C      1  0.5416430000000  0.5668620000000  0.5850310000000 1.0
C      1  0.5099520000000  0.4497070000000  0.3853230000000 1.0
C      1  0.4672720000000  0.5799880000000  0.4472190000000 1.0
C      1  0.5189010000000  0.5391870000000  0.5112380000000 1.0
C      1  0.4267160000000  0.4829220000000  0.5320110000000 1.0
C      1  0.4529710000000  0.5820460000000  0.4994400000000 1.0
C      1  0.5552680000000  0.4484340000000  0.4036650000000 1.0
C      1  0.4927290000000  0.4658770000000  0.4513950000000 1.0
C      1  0.5691820000000  0.4358580000000  0.4262980000000 1.0
C      1  0.5307160000000  0.5863190000000  0.5671750000000 1.0
C      1  0.3891470000000  0.4860470000000  0.4707670000000 1.0
C      1  0.3925470000000  0.4644980000000  0.4525650000000 1.0
C      1  0.5035090000000  0.5865250000000  0.5588710000000 1.0
C      1  0.4526070000000  0.4539580000000  0.4740290000000 1.0
C      1  0.5357240000000  0.4018780000000  0.4757820000000 1.0
C      1  0.4166750000000  0.4792200000000  0.4143660000000 1.0
C      1  0.5310850000000  0.4488380000000  0.5208990000000 1.0
C      1  0.4221630000000  0.4204830000000  0.4588900000000 1.0
C      1  0.5080150000000  0.4383270000000  0.5343690000000 1.0
C      1  0.4187580000000  0.6001260000000  0.4479640000000 1.0
C      1  0.5078540000000  0.4415820000000  0.5632030000000 1.0
C      1  0.6241060000000  0.4849680000000  0.5148420000000 1.0
C      1  0.5152490000000  0.4583430000000  0.6235590000000 1.0
C      1  0.5026440000000  0.4768850000000  0.6036290000000 1.0
C      1  0.5382280000000  0.5086250000000  0.5470050000000 1.0
C      1  0.5333420000000  0.4789270000000  0.4296390000000 1.0
C      1  0.4646180000000  0.5811430000000  0.5252900000000 1.0
C      1  0.4972630000000  0.4964070000000  0.3967900000000 1.0
C      1  0.4327320000000  0.6103940000000  0.4707380000000 1.0
C      1  0.4267360000000  0.4329800000000  0.5507760000000 1.0
C      1  0.6085430000000  0.5274790000000  0.5388970000000 1.0
C      1  0.5500820000000  0.4754000000000  0.4089560000000 1.0
C      1  0.4636290000000  0.3731800000000  0.5029360000000 1.0
C      1  0.5768730000000  0.4518110000000  0.4494750000000 1.0
C      1  0.4823560000000  0.5523210000000  0.4805600000000 1.0
C      1  0.3667390000000  0.4727220000000  0.5139200000000 1.0
C      1  0.5579260000000  0.4846820000000  0.4797070000000 1.0
C      1  0.4522150000000  0.4258360000000  0.4226900000000 1.0
C      1  0.4586240000000  0.5097240000000  0.6679420000000 1.0
C      1  0.5130050000000  0.5117380000000  0.5593340000000 1.0
C      1  0.4700960000000  0.5186380000000  0.4660790000000 1.0
C      1  0.4914180000000  0.4791670000000  0.3520370000000 1.0
C      1  0.5510210000000  0.3819350000000  0.5153420000000 1.0
C      1  0.4798250000000  0.4886910000000  0.4427270000000 1.0
C      1  0.5722830000000  0.4800930000000  0.4553860000000 1.0
C      1  0.5501880000000  0.5989700000000  0.5498700000000 1.0
C      1  0.4964920000000  0.4869290000000  0.5220590000000 1.0
C      1  0.5534270000000  0.4311990000000  0.5255780000000 1.0
C      1  0.4701240000000  0.4737970000000  0.5116920000000 1.0
C      1  0.5603190000000  0.5979860000000  0.4686350000000 1.0
C      1  0.5673140000000  0.5801070000000  0.5382050000000 1.0
C      1  0.4535610000000  0.3951530000000  0.5173670000000 1.0
C      1  0.5289630000000  0.4825650000000  0.4771510000000 1.0
C      1  0.5440710000000  0.4032900000000  0.5330870000000 1.0
C      1  0.4090610000000  0.5768740000000  0.4379780000000 1.0
C      1  0.4584860000000  0.5312720000000  0.4408850000000 1.0
C      1  0.5585520000000  0.5459470000000  0.5884320000000 1.0
C      1  0.5292680000000  0.4660240000000  0.6455960000000 1.0
C      1  0.5108340000000  0.4122330000000  0.4662910000000 1.0
C      1  0.4551220000000  0.4980640000000  0.6150880000000 1.0
C      1  0.4634740000000  0.3986500000000  0.5447250000000 1.0
C      1  0.4746990000000  0.4962330000000  0.4158870000000 1.0
C      1  0.5206970000000  0.4682370000000  0.4524930000000 1.0
C      1  0.5601640000000  0.4163370000000  0.4765980000000 1.0
C      1  0.4616810000000  0.4624610000000  0.5821560000000 1.0
C      1  0.5804710000000  0.4998770000000  0.5793910000000 1.0
C      1  0.5904790000000  0.5021630000000  0.4515030000000 1.0
C      1  0.4551350000000  0.5045460000000  0.6421950000000 1.0
C      1  0.5064090000000  0.6093350000000  0.4488530000000 1.0
C      1  0.5068520000000  0.5584880000000  0.4934210000000 1.0
C      1  0.3994710000000  0.5538990000000  0.5148550000000 1.0
C      1  0.5125820000000  0.3618630000000  0.4912950000000 1.0
C      1  0.4917740000000  0.3919020000000  0.5486330000000 1.0
C      1  0.5797270000000  0.4442880000000  0.5238080000000 1.0
C      1  0.6109520000000  0.4739790000000  0.4921520000000 1.0
C      1  0.4600960000000  0.6230640000000  0.4699970000000 1.0
C      1  0.4939480000000  0.5108040000000  0.4833090000000 1.0
C      1  0.5174700000000  0.5272340000000  0.4472040000000 1.0
C      1  0.4486350000000  0.4180010000000  0.5616760000000 1.0
C      1  0.4860200000000  0.3611330000000  0.4945540000000 1.0
C      1  0.3862320000000  0.4854080000000  0.4999390000000 1.0
C      1  0.4366390000000  0.4306810000000  0.4804420000000 1.0
C      1  0.5856980000000  0.4760190000000  0.5677050000000 1.0
C      1  0.5922000000000  0.4503590000000  0.4970450000000 1.0
C      1  0.4037560000000  0.5103950000000  0.4639220000000 1.0
C      1  0.5340200000000  0.4923580000000  0.6504060000000 1.0
C      1  0.5297090000000  0.4343580000000  0.3982640000000 1.0
C      1  0.5540020000000  0.4110120000000  0.4289430000000 1.0
C      1  0.4916610000000  0.4257310000000  0.5800500000000 1.0
C      1  0.5253880000000  0.5111420000000  0.6327830000000 1.0
C      1  0.4605810000000  0.4450150000000  0.5186760000000 1.0
C      1  0.4300720000000  0.5145890000000  0.5697220000000 1.0
C      1  0.5779330000000  0.5483220000000  0.4678870000000 1.0
C      1  0.4236680000000  0.5060710000000  0.4198730000000 1.0
C      1  0.6232180000000  0.5073170000000  0.5294900000000 1.0
C      1  0.4511340000000  0.5127390000000  0.4196220000000 1.0
C      1  0.4061860000000  0.5778580000000  0.5041590000000 1.0
C      1  0.4630850000000  0.5144450000000  0.6931880000000 1.0
C      1  0.4091630000000  0.5021710000000  0.5133250000000 1.0
C      1  0.5177750000000  0.5172960000000  0.4014800000000 1.0
C      1  0.4331520000000  0.4544680000000  0.5330460000000 1.0
C      1  0.4224780000000  0.5130660000000  0.4862270000000 1.0
C      1  0.5265140000000  0.4138690000000  0.4191640000000 1.0
C      1  0.5507700000000  0.6248650000000  0.5379150000000 1.0
C      1  0.4657040000000  0.5732800000000  0.4752990000000 1.0
C      1  0.5122380000000  0.5056450000000  0.6083080000000 1.0
C      1  0.4078600000000  0.5222600000000  0.4383760000000 1.0
C      1  0.5645290000000  0.6183720000000  0.4874300000000 1.0
C      1  0.4963340000000  0.6155960000000  0.5214740000000 1.0
C      1  0.4874370000000  0.5965620000000  0.4321830000000 1.0
C      1  0.4888510000000  0.4319740000000  0.5137860000000 1.0
C      1  0.5657070000000  0.4926870000000  0.5054560000000 1.0
C      1  0.5203730000000  0.4718120000000  0.5058880000000 1.0
C      1  0.4644460000000  0.4336700000000  0.5797160000000 1.0
C      1  0.4863820000000  0.5942080000000  0.5376730000000 1.0
C      1  0.5007560000000  0.5152700000000  0.5109940000000 1.0
C      1  0.5792800000000  0.4370450000000  0.4742730000000 1.0
C      1  0.5796130000000  0.5767080000000  0.4653450000000 1.0
C      1  0.5316980000000  0.5896950000000  0.4591120000000 1.0
C      1  0.4099870000000  0.5292770000000  0.5563830000000 1.0
C      1  0.5072600000000  0.5345490000000  0.4217730000000 1.0
C      1  0.5635000000000  0.6270920000000  0.5127010000000 1.0
C      1  0.4952110000000  0.4881120000000  0.5532160000000 1.0
C      1  0.5462630000000  0.5247200000000  0.4036640000000 1.0
C      1  0.4664020000000  0.5560120000000  0.4312680000000 1.0
C      1  0.4656600000000  0.4824450000000  0.5606280000000 1.0
C      1  0.4939900000000  0.4282890000000  0.4838060000000 1.0
C      1  0.5041930000000  0.4120200000000  0.4372520000000 1.0
C      1  0.4543340000000  0.4788200000000  0.4881700000000 1.0
C      1  0.4961950000000  0.5820450000000  0.4091070000000 1.0
C      1  0.5657010000000  0.5525780000000  0.5341040000000 1.0
C      1  0.5050900000000  0.6393550000000  0.5335410000000 1.0
C      1  0.5754540000000  0.5275430000000  0.5748600000000 1.0
C      1  0.5876760000000  0.4578980000000  0.5477680000000 1.0
C      1  0.4486140000000  0.5051340000000  0.4809170000000 1.0
C      1  0.5189160000000  0.3962930000000  0.5468120000000 1.0
C      1  0.5299750000000  0.6430830000000  0.5432160000000 1.0
C      1  0.4048150000000  0.5503880000000  0.4351370000000 1.0
C      1  0.4031530000000  0.5289680000000  0.5284150000000 1.0
C      1  0.5352100000000  0.3784460000000  0.4920500000000 1.0
C      1  0.4424710000000  0.4960310000000  0.5522220000000 1.0
C      1  0.5026220000000  0.6082840000000  0.4950220000000 1.0
C      1  0.5785080000000  0.5294300000000  0.4454960000000 1.0
C      1  0.4896220000000  0.5547580000000  0.4141240000000 1.0
C      1  0.4717320000000  0.4766440000000  0.6053080000000 1.0
C      1  0.4794500000000  0.4472230000000  0.4672850000000 1.0
C      1  0.5104610000000  0.5219360000000  0.5854270000000 1.0
END
