TITL C-627110-360-2012 1.85878803294522e-07 125000 -168.597100659103 0 0 30 (C1) n - 1
REM
REM in /home/nfs/bkarasulu/CARBON/AIRSS/Generating-Clusters/LCBOP/Only-C1/SD-CG/FIRE-CG
REM
REM
REM
REM
REM
REM ./C.cell (11c1c37f851c82e70ff6c80c92926a4b)
REM AIRSS Version 0.9.1 bugfix July 2018 build 013d7b7c2542+ Fri, 06 Jul 2018 19:26:36 +0100
REM compiler GCC version 9.2.1 20190827 (Red Hat 9.2.1-1)
REM options -cpp -mtune=generic -march=x86-64 -g -O0 -fpre-include=/usr/include/finclude/math-vector-fortran.h
REM seed -2127485197 -313370716 -1541737043 -1682707850 1745691610 -352608120 1165489105 1585998383 457074918 -1867294521 -227945335 1002250199 -539513066 1024937696 1585783725 -1202624395 606006985 1650419547 -1059481194 1533431425 -1545847444 420658454 -129410844 930385710 1955006445 627781786 -1551362322 -1679112184 198027019 -1384154438 1991713471 -1471734676 1535264938
REM
CELL 1.54180   50.00000   50.00000   50.00000   90.00000   90.00000   90.00000
LATT -1
SFAC C  
C      1  0.4912340000000  0.5512700000000  0.5101020000000 1.0
C      1  0.4730480000000  0.4620680000000  0.5052480000000 1.0
C      1  0.4881920000000  0.5654770000000  0.4862160000000 1.0
C      1  0.4461690000000  0.4611140000000  0.5002150000000 1.0
C      1  0.5479260000000  0.5063200000000  0.5091870000000 1.0
C      1  0.4852520000000  0.5629880000000  0.4598480000000 1.0
C      1  0.4742360000000  0.5157650000000  0.4040720000000 1.0
C      1  0.5363470000000  0.4816260000000  0.5012380000000 1.0
C      1  0.5169570000000  0.5422810000000  0.5195760000000 1.0
C      1  0.5219550000000  0.4869500000000  0.4178410000000 1.0
C      1  0.4839590000000  0.4531120000000  0.5322260000000 1.0
C      1  0.5180910000000  0.5325740000000  0.5462500000000 1.0
C      1  0.4633920000000  0.4627150000000  0.5768550000000 1.0
C      1  0.5289570000000  0.5295940000000  0.4734510000000 1.0
C      1  0.5604400000000  0.4439560000000  0.5203040000000 1.0
C      1  0.5353520000000  0.5306430000000  0.5010920000000 1.0
C      1  0.4755170000000  0.4723050000000  0.5541960000000 1.0
C      1  0.4914180000000  0.4714380000000  0.4860440000000 1.0
C      1  0.5138030000000  0.4515880000000  0.5308380000000 1.0
C      1  0.5100610000000  0.5047280000000  0.4349670000000 1.0
C      1  0.4804150000000  0.5000560000000  0.5512160000000 1.0
C      1  0.4632700000000  0.5169390000000  0.5364020000000 1.0
C      1  0.4859180000000  0.5471280000000  0.4384970000000 1.0
C      1  0.4686260000000  0.5386470000000  0.5214790000000 1.0
C      1  0.5047430000000  0.5125510000000  0.5585460000000 1.0
C      1  0.5182400000000  0.5057800000000  0.4620280000000 1.0
C      1  0.4899060000000  0.5226140000000  0.4254540000000 1.0
C      1  0.5375730000000  0.4585860000000  0.5176550000000 1.0
C      1  0.5159170000000  0.4839950000000  0.4807400000000 1.0
C      1  0.4730880000000  0.4251910000000  0.5382190000000 1.0
END
