TITL C-627108-131-322 2.42627621203312e-07 125000 -237.489133926497 0 0 39 (C1) n - 1
REM
REM in /home/nfs/bkarasulu/CARBON/AIRSS/Generating-Clusters/LCBOP/Only-C1/SD-CG/FIRE-CG
REM
REM
REM
REM
REM
REM ./C.cell (11c1c37f851c82e70ff6c80c92926a4b)
REM AIRSS Version 0.9.1 bugfix July 2018 build 013d7b7c2542+ Fri, 06 Jul 2018 19:26:36 +0100
REM compiler GCC version 9.2.1 20190827 (Red Hat 9.2.1-1)
REM options -cpp -mtune=generic -march=x86-64 -g -O0 -fpre-include=/usr/include/finclude/math-vector-fortran.h
REM seed 460007573 -1388211501 -944553523 1522554685 396176345 1290376605 -381790419 -597423077 -1174271121 1079887409 -1625375275 869348507 -1160582542 139824345 -1930865192 742164029 1886362831 591587560 1532728459 -320058908 -8244328 831348086 -644775011 312844672 370532286 -2089624564 -361087946 1237640918 125062103 -1213331534 -551107580 1064087242 1596983190
REM
CELL 1.54180   50.00000   50.00000   50.00000   90.00000   90.00000   90.00000
LATT -1
SFAC C  
C      1  0.4995220000000  0.5349280000000  0.5613780000000 1.0
C      1  0.5018280000000  0.4445490000000  0.4817660000000 1.0
C      1  0.5141050000000  0.4999630000000  0.5140450000000 1.0
C      1  0.4442710000000  0.4949290000000  0.4970550000000 1.0
C      1  0.4541060000000  0.4559620000000  0.4718050000000 1.0
C      1  0.5156850000000  0.4600740000000  0.4626680000000 1.0
C      1  0.4556470000000  0.5202360000000  0.4937690000000 1.0
C      1  0.5089440000000  0.5417010000000  0.5357150000000 1.0
C      1  0.5382190000000  0.4612250000000  0.5325890000000 1.0
C      1  0.5295990000000  0.4825290000000  0.4521310000000 1.0
C      1  0.5164500000000  0.4434460000000  0.5278820000000 1.0
C      1  0.4895690000000  0.5283650000000  0.4119330000000 1.0
C      1  0.4751380000000  0.4506240000000  0.4899350000000 1.0
C      1  0.4710360000000  0.4596040000000  0.5178000000000 1.0
C      1  0.4909850000000  0.4528510000000  0.5377690000000 1.0
C      1  0.5321370000000  0.5638120000000  0.4977370000000 1.0
C      1  0.4836390000000  0.5134730000000  0.5708810000000 1.0
C      1  0.4863670000000  0.5549240000000  0.4780110000000 1.0
C      1  0.5161470000000  0.4312140000000  0.5023080000000 1.0
C      1  0.4456430000000  0.4941970000000  0.5453310000000 1.0
C      1  0.4754710000000  0.5556380000000  0.4522650000000 1.0
C      1  0.4386770000000  0.4780340000000  0.4750920000000 1.0
C      1  0.4996780000000  0.5239770000000  0.5149290000000 1.0
C      1  0.5545080000000  0.4856690000000  0.4934270000000 1.0
C      1  0.4916040000000  0.4644760000000  0.5634600000000 1.0
C      1  0.5284740000000  0.5597180000000  0.5258190000000 1.0
C      1  0.5477460000000  0.4974820000000  0.4686760000000 1.0
C      1  0.4517100000000  0.4810490000000  0.5212730000000 1.0
C      1  0.5575520000000  0.4569310000000  0.5512400000000 1.0
C      1  0.5519310000000  0.5254140000000  0.4678830000000 1.0
C      1  0.5372990000000  0.4838590000000  0.5155130000000 1.0
C      1  0.5083270000000  0.5714290000000  0.4843760000000 1.0
C      1  0.4565640000000  0.5115360000000  0.5627810000000 1.0
C      1  0.4947400000000  0.4879890000000  0.5762220000000 1.0
C      1  0.4803410000000  0.5333430000000  0.4958870000000 1.0
C      1  0.5497670000000  0.5480990000000  0.4821890000000 1.0
C      1  0.5071690000000  0.5083620000000  0.4120770000000 1.0
C      1  0.4771020000000  0.5460940000000  0.4274480000000 1.0
C      1  0.5223050000000  0.4922950000000  0.4269360000000 1.0
END
