TITL C-627112-676-477 -5.98834524987071e-07 125000 -566.89796529684 0 0 95 (C1) n - 1
REM
REM in /home/nfs/bkarasulu/CARBON/AIRSS/Generating-Clusters/LCBOP/Only-C1/SD-CG/FIRE-CG
REM
REM
REM
REM
REM
REM ./C.cell (11c1c37f851c82e70ff6c80c92926a4b)
REM AIRSS Version 0.9.1 bugfix July 2018 build 013d7b7c2542+ Fri, 06 Jul 2018 19:26:36 +0100
REM compiler GCC version 9.2.1 20190827 (Red Hat 9.2.1-1)
REM options -cpp -mtune=generic -march=x86-64 -g -O0 -fpre-include=/usr/include/finclude/math-vector-fortran.h
REM seed -2108083306 994290198 1805824314 640719977 877219140 932628463 -1225652249 1606783724 528593929 -1299936664 1800253843 1957458169 1890765964 -1062773453 999320419 1153597627 1157263762 -1457844652 1128465209 1030382312 1153617323 2138488424 1400753421 408951884 195653624 1084705545 259841255 1865576212 873158403 -1728128471 -1795513676 -835044526 -894065913
REM
CELL 1.54180   50.00000   50.00000   50.00000   90.00000   90.00000   90.00000
LATT -1
SFAC C  
C      1  0.4750000000000  0.6261030000000  0.4404540000000 1.0
C      1  0.5889130000000  0.5303360000000  0.4996450000000 1.0
C      1  0.4744150000000  0.4691680000000  0.6141270000000 1.0
C      1  0.5997600000000  0.5503310000000  0.5405090000000 1.0
C      1  0.5129310000000  0.4975100000000  0.6055350000000 1.0
C      1  0.4952490000000  0.5797250000000  0.4363520000000 1.0
C      1  0.4735080000000  0.5212100000000  0.4068180000000 1.0
C      1  0.4879520000000  0.5129360000000  0.4890520000000 1.0
C      1  0.4661560000000  0.6275170000000  0.4847550000000 1.0
C      1  0.4889500000000  0.4654430000000  0.4034360000000 1.0
C      1  0.4805640000000  0.4886650000000  0.5447580000000 1.0
C      1  0.5447690000000  0.5770840000000  0.5559420000000 1.0
C      1  0.4419670000000  0.4224810000000  0.4931170000000 1.0
C      1  0.5113870000000  0.4559250000000  0.4185210000000 1.0
C      1  0.5673050000000  0.4094000000000  0.5478810000000 1.0
C      1  0.4887620000000  0.5076200000000  0.5660980000000 1.0
C      1  0.4547500000000  0.4562140000000  0.4376400000000 1.0
C      1  0.4634300000000  0.4733700000000  0.4154150000000 1.0
C      1  0.4186990000000  0.5435630000000  0.5058000000000 1.0
C      1  0.5076670000000  0.4050700000000  0.5072070000000 1.0
C      1  0.5405270000000  0.4122820000000  0.5412110000000 1.0
C      1  0.5190630000000  0.4087530000000  0.5597840000000 1.0
C      1  0.5148240000000  0.5435530000000  0.5092260000000 1.0
C      1  0.5571230000000  0.4540520000000  0.4388040000000 1.0
C      1  0.5314670000000  0.4192180000000  0.5145470000000 1.0
C      1  0.4578880000000  0.4373270000000  0.5819430000000 1.0
C      1  0.4888710000000  0.5300220000000  0.5122650000000 1.0
C      1  0.4216810000000  0.4475760000000  0.5277140000000 1.0
C      1  0.4659030000000  0.4610160000000  0.5090270000000 1.0
C      1  0.4511060000000  0.5318760000000  0.4561480000000 1.0
C      1  0.5591610000000  0.5190960000000  0.5675150000000 1.0
C      1  0.4611500000000  0.5680810000000  0.5124140000000 1.0
C      1  0.5632270000000  0.4666730000000  0.4645480000000 1.0
C      1  0.4183810000000  0.5167450000000  0.5070050000000 1.0
C      1  0.5170750000000  0.4636880000000  0.5241430000000 1.0
C      1  0.5332770000000  0.4464590000000  0.5072510000000 1.0
C      1  0.4999640000000  0.4432020000000  0.4419380000000 1.0
C      1  0.4450800000000  0.4620020000000  0.4642250000000 1.0
C      1  0.4564660000000  0.4460180000000  0.4858860000000 1.0
C      1  0.4241690000000  0.4242700000000  0.5137190000000 1.0
C      1  0.4571600000000  0.5001870000000  0.4102700000000 1.0
C      1  0.4268390000000  0.4902960000000  0.5014520000000 1.0
C      1  0.4344580000000  0.5491740000000  0.4448760000000 1.0
C      1  0.5806400000000  0.4083120000000  0.4227600000000 1.0
C      1  0.5436410000000  0.4618730000000  0.4849020000000 1.0
C      1  0.5854360000000  0.5595380000000  0.4988080000000 1.0
C      1  0.5695980000000  0.4306340000000  0.4304320000000 1.0
C      1  0.4830860000000  0.5812390000000  0.4988850000000 1.0
C      1  0.5150840000000  0.5030820000000  0.4858310000000 1.0
C      1  0.5728400000000  0.4940760000000  0.4614150000000 1.0
C      1  0.4637990000000  0.5097200000000  0.5817790000000 1.0
C      1  0.4989980000000  0.5316340000000  0.4126840000000 1.0
C      1  0.5406810000000  0.4966470000000  0.4215670000000 1.0
C      1  0.5338440000000  0.5300590000000  0.5748840000000 1.0
C      1  0.5124250000000  0.5122760000000  0.5813350000000 1.0
C      1  0.4733800000000  0.4339260000000  0.4381770000000 1.0
C      1  0.4878910000000  0.4003650000000  0.5254920000000 1.0
C      1  0.5318160000000  0.5577720000000  0.5695250000000 1.0
C      1  0.4337440000000  0.5660770000000  0.5059460000000 1.0
C      1  0.5370890000000  0.4679060000000  0.4225250000000 1.0
C      1  0.5200130000000  0.4770460000000  0.4770120000000 1.0
C      1  0.5467840000000  0.6054610000000  0.4821320000000 1.0
C      1  0.5459570000000  0.5063420000000  0.5245740000000 1.0
C      1  0.5024480000000  0.4597280000000  0.4643940000000 1.0
C      1  0.4390820000000  0.4717490000000  0.5228770000000 1.0
C      1  0.4646390000000  0.6416990000000  0.4609490000000 1.0
C      1  0.5674470000000  0.5147220000000  0.5408180000000 1.0
C      1  0.5329020000000  0.4838750000000  0.5350920000000 1.0
C      1  0.4838640000000  0.6003760000000  0.4508600000000 1.0
C      1  0.4508010000000  0.4829880000000  0.5481670000000 1.0
C      1  0.4690800000000  0.5174290000000  0.4692990000000 1.0
C      1  0.5106440000000  0.5709380000000  0.5015770000000 1.0
C      1  0.4779890000000  0.6013700000000  0.4800090000000 1.0
C      1  0.5926180000000  0.4074140000000  0.5537520000000 1.0
C      1  0.5863570000000  0.5717110000000  0.5256390000000 1.0
C      1  0.4478250000000  0.4856590000000  0.5771030000000 1.0
C      1  0.4699230000000  0.5448050000000  0.5259040000000 1.0
C      1  0.4191570000000  0.5672180000000  0.4339370000000 1.0
C      1  0.5857320000000  0.5103600000000  0.4803380000000 1.0
C      1  0.5316650000000  0.5873780000000  0.4932900000000 1.0
C      1  0.5648830000000  0.5836930000000  0.5392970000000 1.0
C      1  0.5214290000000  0.5146320000000  0.4120230000000 1.0
C      1  0.4255850000000  0.4807180000000  0.4738110000000 1.0
C      1  0.4891540000000  0.4693130000000  0.5245500000000 1.0
C      1  0.4564920000000  0.4632190000000  0.5929870000000 1.0
C      1  0.4045010000000  0.4886590000000  0.4572930000000 1.0
C      1  0.4913210000000  0.4070770000000  0.5530320000000 1.0
C      1  0.4711430000000  0.4181210000000  0.5689270000000 1.0
C      1  0.5906660000000  0.5252840000000  0.5289180000000 1.0
C      1  0.5089790000000  0.4739660000000  0.6475230000000 1.0
C      1  0.4989580000000  0.4801050000000  0.6228520000000 1.0
C      1  0.5621340000000  0.5060340000000  0.4377840000000 1.0
C      1  0.5321350000000  0.5201360000000  0.5036260000000 1.0
C      1  0.3857790000000  0.4967060000000  0.4410510000000 1.0
C      1  0.5009280000000  0.5576980000000  0.4226810000000 1.0
END
