TITL C-627111-6168-1784 0.0879714123166875 125000 -481.733696252041 0 0 79 (C1) n - 1
REM
REM in /home/nfs/bkarasulu/CARBON/AIRSS/Generating-Clusters/LCBOP/Only-C1/SD-CG/FIRE-CG
REM
REM
REM
REM
REM
REM ./C.cell (11c1c37f851c82e70ff6c80c92926a4b)
REM AIRSS Version 0.9.1 bugfix July 2018 build 013d7b7c2542+ Fri, 06 Jul 2018 19:26:36 +0100
REM compiler GCC version 9.2.1 20190827 (Red Hat 9.2.1-1)
REM options -cpp -mtune=generic -march=x86-64 -g -O0 -fpre-include=/usr/include/finclude/math-vector-fortran.h
REM seed 1764770524 -819350415 22640081 732317277 -1731216721 693765861 -1785977884 -1814728558 -1546161288 1770200768 888682871 -2048449746 -843750811 -2092368434 -75516043 1146606908 -1586734135 406009768 -130625254 -1956172022 -950096842 1909759184 870658402 655786085 -1136761775 -1678347376 -1829500046 84930132 -1447111484 1374299619 1625327614 1213628413 588295077
REM
CELL 1.54180   50.00000   50.00000   50.00000   90.00000   90.00000   90.00000
LATT -1
SFAC C  
C      1  0.5537360000000  0.4922820000000  0.4474710000000 1.0
C      1  0.4657160000000  0.4805240000000  0.5743500000000 1.0
C      1  0.5437210000000  0.5717990000000  0.4540830000000 1.0
C      1  0.5677530000000  0.5709620000000  0.5040570000000 1.0
C      1  0.5630820000000  0.4300400000000  0.4595210000000 1.0
C      1  0.4929970000000  0.4999860000000  0.4136800000000 1.0
C      1  0.4957610000000  0.4426820000000  0.4863640000000 1.0
C      1  0.5443590000000  0.5116600000000  0.4966360000000 1.0
C      1  0.4737450000000  0.5073340000000  0.4332270000000 1.0
C      1  0.4907140000000  0.4599530000000  0.4642960000000 1.0
C      1  0.4661590000000  0.4385840000000  0.5472400000000 1.0
C      1  0.4496650000000  0.4990060000000  0.5579470000000 1.0
C      1  0.5293950000000  0.4698510000000  0.5634900000000 1.0
C      1  0.4134230000000  0.4889720000000  0.4789380000000 1.0
C      1  0.5673520000000  0.4433870000000  0.5069910000000 1.0
C      1  0.3915100000000  0.6090870000000  0.4800620000000 1.0
C      1  0.4883080000000  0.4845970000000  0.5036570000000 1.0
C      1  0.5335900000000  0.6046090000000  0.5156080000000 1.0
C      1  0.5743110000000  0.4458320000000  0.4797350000000 1.0
C      1  0.4926960000000  0.5375120000000  0.4677700000000 1.0
C      1  0.5129270000000  0.4492850000000  0.5539030000000 1.0
C      1  0.4851090000000  0.4511540000000  0.4381410000000 1.0
C      1  0.4925890000000  0.4567720000000  0.5109480000000 1.0
C      1  0.5238760000000  0.5415090000000  0.5306460000000 1.0
C      1  0.4041560000000  0.5329830000000  0.4970930000000 1.0
C      1  0.5835350000000  0.5731880000000  0.4802420000000 1.0
C      1  0.4915210000000  0.4452710000000  0.5362750000000 1.0
C      1  0.4467860000000  0.4241370000000  0.5323080000000 1.0
C      1  0.5709800000000  0.5726950000000  0.4559180000000 1.0
C      1  0.5418130000000  0.5834010000000  0.5004990000000 1.0
C      1  0.5681960000000  0.4979750000000  0.5535770000000 1.0
C      1  0.4361390000000  0.4005440000000  0.5428270000000 1.0
C      1  0.5275730000000  0.4343910000000  0.4221920000000 1.0
C      1  0.5942170000000  0.5139940000000  0.4613730000000 1.0
C      1  0.4893180000000  0.5679010000000  0.5063610000000 1.0
C      1  0.5404520000000  0.5008050000000  0.4709890000000 1.0
C      1  0.4474300000000  0.4965440000000  0.4324240000000 1.0
C      1  0.5020190000000  0.5606270000000  0.4815150000000 1.0
C      1  0.4654410000000  0.5232730000000  0.5553390000000 1.0
C      1  0.5072010000000  0.4537250000000  0.4204290000000 1.0
C      1  0.5705500000000  0.5231700000000  0.5032920000000 1.0
C      1  0.4263010000000  0.3786600000000  0.5529990000000 1.0
C      1  0.5344360000000  0.5151430000000  0.5805160000000 1.0
C      1  0.5272540000000  0.5732520000000  0.4772670000000 1.0
C      1  0.5179930000000  0.4914080000000  0.5791650000000 1.0
C      1  0.5226350000000  0.5165350000000  0.5143230000000 1.0
C      1  0.6004460000000  0.4850590000000  0.4948190000000 1.0
C      1  0.4843360000000  0.5115910000000  0.4596900000000 1.0
C      1  0.5551610000000  0.4728290000000  0.5505130000000 1.0
C      1  0.4605540000000  0.4532050000000  0.5707310000000 1.0
C      1  0.4258740000000  0.4944760000000  0.5445090000000 1.0
C      1  0.5892430000000  0.4689800000000  0.4730500000000 1.0
C      1  0.5816630000000  0.4890110000000  0.4520070000000 1.0
C      1  0.4575090000000  0.4502640000000  0.4321990000000 1.0
C      1  0.5473730000000  0.4263400000000  0.4382750000000 1.0
C      1  0.4965730000000  0.5515880000000  0.5284240000000 1.0
C      1  0.4869650000000  0.4872970000000  0.4747000000000 1.0
C      1  0.5547300000000  0.5219280000000  0.5615100000000 1.0
C      1  0.4899610000000  0.4950830000000  0.5838960000000 1.0
C      1  0.4271160000000  0.4675160000000  0.4671440000000 1.0
C      1  0.5686720000000  0.5468480000000  0.5195670000000 1.0
C      1  0.4956280000000  0.5070250000000  0.5180450000000 1.0
C      1  0.4009910000000  0.5588160000000  0.4921810000000 1.0
C      1  0.3805110000000  0.4827020000000  0.5339900000000 1.0
C      1  0.4071760000000  0.5054720000000  0.5006780000000 1.0
C      1  0.5141920000000  0.4810810000000  0.4145550000000 1.0
C      1  0.4712090000000  0.5888820000000  0.5083080000000 1.0
C      1  0.3963880000000  0.5842220000000  0.4861930000000 1.0
C      1  0.4043060000000  0.4940720000000  0.5266480000000 1.0
C      1  0.4398900000000  0.4706080000000  0.4416980000000 1.0
C      1  0.4559010000000  0.6097750000000  0.5111680000000 1.0
C      1  0.5502260000000  0.5426260000000  0.5417380000000 1.0
C      1  0.5396260000000  0.4892570000000  0.4235750000000 1.0
C      1  0.5633140000000  0.4541430000000  0.5311330000000 1.0
C      1  0.5939230000000  0.5131070000000  0.4907640000000 1.0
C      1  0.4382700000000  0.4331530000000  0.5069880000000 1.0
C      1  0.4814410000000  0.5229230000000  0.5796070000000 1.0
C      1  0.4801010000000  0.5275700000000  0.5318930000000 1.0
C      1  0.4322890000000  0.4455470000000  0.4841190000000 1.0
END
