TITL C-627108-131-1328 1856528.49345236 125000 -1124.72462608153 0 0 184 (C1) n - 1
REM
REM in /home/nfs/bkarasulu/CARBON/AIRSS/Generating-Clusters/LCBOP/Only-C1/SD-CG/FIRE-CG
REM
REM
REM
REM
REM
REM ./C.cell (11c1c37f851c82e70ff6c80c92926a4b)
REM AIRSS Version 0.9.1 bugfix July 2018 build 013d7b7c2542+ Fri, 06 Jul 2018 19:26:36 +0100
REM compiler GCC version 9.2.1 20190827 (Red Hat 9.2.1-1)
REM options -cpp -mtune=generic -march=x86-64 -g -O0 -fpre-include=/usr/include/finclude/math-vector-fortran.h
REM seed 1041257798 -541181518 -1878607740 -1032318044 654886907 -968507763 -206235506 -1906877987 -550452318 1724013539 725348085 560378963 86964077 -817577295 72877855 437297407 415626383 2033014974 -926902424 -327206449 -560598729 705691792 -1164364303 -246392134 2140898905 -1162712026 -1885906465 504922954 -1113251375 -751398811 1296389389 750020888 -74941334
REM
CELL 1.54180   50.00000   50.00000   50.00000   90.00000   90.00000   90.00000
LATT -1
SFAC C  
C      1  0.5064100000000  0.5484070000000  0.5905910000000 1.0
C      1  0.5781020000000  0.4978780000000  0.4667480000000 1.0
C      1  0.4361770000000  0.4084090000000  0.5761620000000 1.0
C      1  0.4604380000000  0.5179630000000  0.3743810000000 1.0
C      1  0.5042550000000  0.4680310000000  0.3613050000000 1.0
C      1  0.5256650000000  0.4356950000000  0.5912440000000 1.0
C      1  0.3952660000000  0.4778480000000  0.4600370000000 1.0
C      1  0.4759040000000  0.4350510000000  0.5263100000000 1.0
C      1  0.4631390000000  0.5841920000000  0.4337880000000 1.0
C      1  0.5994410000000  0.4276210000000  0.5671230000000 1.0
C      1  0.5107850000000  0.5329630000000  0.3633220000000 1.0
C      1  0.5381810000000  0.5820420000000  0.5219480000000 1.0
C      1  0.5594540000000  0.5366120000000  0.3838690000000 1.0
C      1  0.4461750000000  0.4584220000000  0.4702180000000 1.0
C      1  0.4857290000000  0.4394300000000  0.5005550000000 1.0
C      1  0.5882750000000  0.4862240000000  0.4201770000000 1.0
C      1  0.4252240000000  0.6043580000000  0.4886950000000 1.0
C      1  0.5075190000000  0.5015750000000  0.6249380000000 1.0
C      1  0.5730930000000  0.4754330000000  0.4007990000000 1.0
C      1  0.5392250000000  0.5085070000000  0.4436300000000 1.0
C      1  0.5526260000000  0.5683540000000  0.5858560000000 1.0
C      1  0.5090650000000  0.4742960000000  0.5370290000000 1.0
C      1  0.4900970000000  0.5916800000000  0.5782730000000 1.0
C      1  0.5689010000000  0.5746720000000  0.4531870000000 1.0
C      1  0.4776540000000  0.4639360000000  0.3611900000000 1.0
C      1  0.4717680000000  0.5217300000000  0.5569270000000 1.0
C      1  0.4251680000000  0.4963140000000  0.4964590000000 1.0
C      1  0.5215140000000  0.6043570000000  0.4399730000000 1.0
C      1  0.4720440000000  0.4412030000000  0.4745620000000 1.0
C      1  0.4939770000000  0.4312470000000  0.4069240000000 1.0
C      1  0.5843670000000  0.5085560000000  0.4920290000000 1.0
C      1  0.4678370000000  0.5012910000000  0.5282470000000 1.0
C      1  0.5472660000000  0.4574940000000  0.4621330000000 1.0
C      1  0.5520390000000  0.5269780000000  0.5221820000000 1.0
C      1  0.4873620000000  0.5693140000000  0.5948050000000 1.0
C      1  0.4566470000000  0.4553870000000  0.3781980000000 1.0
C      1  0.5371680000000  0.5302470000000  0.5452300000000 1.0
C      1  0.3955550000000  0.4598100000000  0.5085290000000 1.0
C      1  0.4697230000000  0.4978980000000  0.5000260000000 1.0
C      1  0.5005260000000  0.4046470000000  0.5594660000000 1.0
C      1  0.6198130000000  0.4862070000000  0.5257960000000 1.0
C      1  0.5230710000000  0.4622790000000  0.6037090000000 1.0
C      1  0.4190140000000  0.4640800000000  0.4481630000000 1.0
C      1  0.5835020000000  0.5325210000000  0.4344720000000 1.0
C      1  0.4488610000000  0.4024690000000  0.5533930000000 1.0
C      1  0.4815650000000  0.3861360000000  0.4918320000000 1.0
C      1  0.5796470000000  0.6036980000000  0.5014620000000 1.0
C      1  0.5673810000000  0.5042920000000  0.5148990000000 1.0
C      1  0.3886480000000  0.5069070000000  0.5239600000000 1.0
C      1  0.4693040000000  0.5555090000000  0.6409950000000 1.0
C      1  0.5438320000000  0.5681500000000  0.4980210000000 1.0
C      1  0.4954580000000  0.4710090000000  0.5946240000000 1.0
C      1  0.5313770000000  0.4126860000000  0.4345660000000 1.0
C      1  0.4711890000000  0.5682790000000  0.6175840000000 1.0
C      1  0.3852340000000  0.5685830000000  0.4776390000000 1.0
C      1  0.5571040000000  0.4196080000000  0.5077630000000 1.0
C      1  0.4854910000000  0.3896550000000  0.4631420000000 1.0
C      1  0.5738880000000  0.4378150000000  0.5749260000000 1.0
C      1  0.3715580000000  0.5564030000000  0.5253900000000 1.0
C      1  0.3672620000000  0.5248190000000  0.4856430000000 1.0
C      1  0.4409510000000  0.5014830000000  0.3835360000000 1.0
C      1  0.5352780000000  0.4301410000000  0.5192520000000 1.0
C      1  0.4084350000000  0.3888520000000  0.5148880000000 1.0
C      1  0.5068920000000  0.3925310000000  0.5349390000000 1.0
C      1  0.4281550000000  0.5440740000000  0.5601400000000 1.0
C      1  0.5259060000000  0.5945870000000  0.5419000000000 1.0
C      1  0.5469150000000  0.4286210000000  0.5732610000000 1.0
C      1  0.5444030000000  0.5345370000000  0.6190790000000 1.0
C      1  0.4804670000000  0.5345120000000  0.6532550000000 1.0
C      1  0.4975160000000  0.4351320000000  0.4566200000000 1.0
C      1  0.5366820000000  0.4276310000000  0.5468430000000 1.0
C      1  0.4526630000000  0.4486320000000  0.4223240000000 1.0
C      1  0.5084370000000  0.5168470000000  0.4120410000000 1.0
C      1  0.6187440000000  0.4434700000000  0.5552980000000 1.0
C      1  0.5080160000000  0.3889550000000  0.5055210000000 1.0
C      1  0.4572840000000  0.5600120000000  0.5231790000000 1.0
C      1  0.4930990000000  0.5599290000000  0.4922300000000 1.0
C      1  0.3726030000000  0.5008140000000  0.5004540000000 1.0
C      1  0.4346750000000  0.4323250000000  0.5883820000000 1.0
C      1  0.5630530000000  0.5338320000000  0.4124070000000 1.0
C      1  0.5610380000000  0.5104080000000  0.5837160000000 1.0
C      1  0.6138140000000  0.4470620000000  0.4852130000000 1.0
C      1  0.5659680000000  0.4529600000000  0.4853420000000 1.0
C      1  0.5988300000000  0.4280370000000  0.4713150000000 1.0
C      1  0.4616670000000  0.4771530000000  0.5412130000000 1.0
C      1  0.5026010000000  0.4796070000000  0.4657210000000 1.0
C      1  0.5156030000000  0.4478180000000  0.4997120000000 1.0
C      1  0.5284790000000  0.6188190000000  0.4901600000000 1.0
C      1  0.5015150000000  0.5394680000000  0.4747440000000 1.0
C      1  0.4353600000000  0.4742260000000  0.3907250000000 1.0
C      1  0.5944490000000  0.5804690000000  0.4971940000000 1.0
C      1  0.5292500000000  0.4696440000000  0.3708580000000 1.0
C      1  0.4967160000000  0.5141830000000  0.6471230000000 1.0
C      1  0.4737030000000  0.4673830000000  0.4307000000000 1.0
C      1  0.5564720000000  0.6195490000000  0.5010550000000 1.0
C      1  0.5199000000000  0.4766550000000  0.5099690000000 1.0
C      1  0.5532960000000  0.4301850000000  0.4455860000000 1.0
C      1  0.3817230000000  0.5495250000000  0.5494260000000 1.0
C      1  0.5176900000000  0.4151710000000  0.4088990000000 1.0
C      1  0.5335540000000  0.5531550000000  0.6002570000000 1.0
C      1  0.5521450000000  0.4709380000000  0.3847020000000 1.0
C      1  0.4953510000000  0.4490370000000  0.4303660000000 1.0
C      1  0.4610480000000  0.4108830000000  0.5295410000000 1.0
C      1  0.4845120000000  0.5273700000000  0.3664700000000 1.0
C      1  0.4028780000000  0.5901950000000  0.4828940000000 1.0
C      1  0.4583330000000  0.3927210000000  0.5069470000000 1.0
C      1  0.5338950000000  0.5293210000000  0.4225820000000 1.0
C      1  0.5372840000000  0.5359060000000  0.3680060000000 1.0
C      1  0.5482870000000  0.5800120000000  0.4725320000000 1.0
C      1  0.4785960000000  0.5750550000000  0.5108790000000 1.0
C      1  0.6163730000000  0.4719780000000  0.5514360000000 1.0
C      1  0.6205880000000  0.4680800000000  0.5021330000000 1.0
C      1  0.3979430000000  0.5036490000000  0.5514230000000 1.0
C      1  0.4909370000000  0.4968390000000  0.4822300000000 1.0
C      1  0.3844650000000  0.4762620000000  0.4879050000000 1.0
C      1  0.5417070000000  0.5407650000000  0.5001910000000 1.0
C      1  0.5542070000000  0.4744290000000  0.5515450000000 1.0
C      1  0.4505150000000  0.6109930000000  0.4958920000000 1.0
C      1  0.6129340000000  0.5168840000000  0.5263170000000 1.0
C      1  0.3856020000000  0.5016650000000  0.4469120000000 1.0
C      1  0.5233730000000  0.5245150000000  0.4859250000000 1.0
C      1  0.4340500000000  0.5460020000000  0.4778470000000 1.0
C      1  0.5331100000000  0.4965770000000  0.4905510000000 1.0
C      1  0.5747460000000  0.5684120000000  0.5705940000000 1.0
C      1  0.4834060000000  0.4594460000000  0.5398180000000 1.0
C      1  0.4874190000000  0.5382190000000  0.4494990000000 1.0
C      1  0.5015070000000  0.6183480000000  0.5008180000000 1.0
C      1  0.4319650000000  0.3836780000000  0.5029380000000 1.0
C      1  0.4992230000000  0.5210500000000  0.5771410000000 1.0
C      1  0.5892440000000  0.5050400000000  0.4413950000000 1.0
C      1  0.3972580000000  0.4293860000000  0.5443230000000 1.0
C      1  0.4729700000000  0.6087500000000  0.4297760000000 1.0
C      1  0.5629100000000  0.5855320000000  0.4277300000000 1.0
C      1  0.3719030000000  0.5516260000000  0.4976570000000 1.0
C      1  0.4799680000000  0.4488520000000  0.5853800000000 1.0
C      1  0.4479880000000  0.4873860000000  0.4819560000000 1.0
C      1  0.5990660000000  0.5538610000000  0.4844290000000 1.0
C      1  0.4767850000000  0.6033420000000  0.5043700000000 1.0
C      1  0.4022620000000  0.5320820000000  0.5593710000000 1.0
C      1  0.6038380000000  0.5286950000000  0.4995370000000 1.0
C      1  0.4873660000000  0.5159410000000  0.4308700000000 1.0
C      1  0.5868550000000  0.5526180000000  0.4565270000000 1.0
C      1  0.4421490000000  0.4774980000000  0.5643660000000 1.0
C      1  0.3888620000000  0.5639790000000  0.4277440000000 1.0
C      1  0.4656760000000  0.4361170000000  0.3984420000000 1.0
C      1  0.5732880000000  0.4657860000000  0.5705340000000 1.0
C      1  0.4691490000000  0.4950230000000  0.4365160000000 1.0
C      1  0.5248310000000  0.5589490000000  0.4219340000000 1.0
C      1  0.5996400000000  0.5275130000000  0.5514050000000 1.0
C      1  0.3839730000000  0.5535510000000  0.4524000000000 1.0
C      1  0.4130840000000  0.5143050000000  0.5113320000000 1.0
C      1  0.5869190000000  0.5092810000000  0.5704210000000 1.0
C      1  0.5275590000000  0.3964870000000  0.4823640000000 1.0
C      1  0.5719710000000  0.4572720000000  0.5096680000000 1.0
C      1  0.5931310000000  0.5546310000000  0.5565360000000 1.0
C      1  0.5311130000000  0.6025720000000  0.4665810000000 1.0
C      1  0.5331050000000  0.4871630000000  0.6178660000000 1.0
C      1  0.5555530000000  0.4043060000000  0.4848040000000 1.0
C      1  0.4507660000000  0.5047890000000  0.5759240000000 1.0
C      1  0.4282500000000  0.4633540000000  0.4187050000000 1.0
C      1  0.5515710000000  0.5083160000000  0.6098140000000 1.0
C      1  0.4931650000000  0.4993420000000  0.5993390000000 1.0
C      1  0.5347960000000  0.5854500000000  0.4229060000000 1.0
C      1  0.5491060000000  0.4889760000000  0.4638970000000 1.0
C      1  0.4381410000000  0.5535310000000  0.5031850000000 1.0
C      1  0.4125140000000  0.4778670000000  0.5539570000000 1.0
C      1  0.4545150000000  0.5459350000000  0.5484120000000 1.0
C      1  0.5655300000000  0.4785330000000  0.5259670000000 1.0
C      1  0.4981510000000  0.6175690000000  0.4324480000000 1.0
C      1  0.5180890000000  0.4537440000000  0.4698110000000 1.0
C      1  0.5105020000000  0.4067110000000  0.4570410000000 1.0
C      1  0.5068910000000  0.6004170000000  0.5595230000000 1.0
C      1  0.4515630000000  0.4538910000000  0.5819520000000 1.0
C      1  0.3967010000000  0.4052050000000  0.5325980000000 1.0
C      1  0.4369750000000  0.5283630000000  0.4578820000000 1.0
C      1  0.4716420000000  0.5602020000000  0.4415180000000 1.0
C      1  0.5964070000000  0.4825590000000  0.5691240000000 1.0
C      1  0.4022760000000  0.4559800000000  0.5363290000000 1.0
C      1  0.5728730000000  0.4155490000000  0.4636850000000 1.0
C      1  0.4494200000000  0.5031320000000  0.4558420000000 1.0
C      1  0.5275260000000  0.5120040000000  0.5649340000000 1.0
C      1  0.3763430000000  0.5260920000000  0.4578140000000 1.0
C      1  0.5278710000000  0.4841210000000  0.5555610000000 1.0
C      1  0.4988380000000  0.4260270000000  0.5800330000000 1.0
END
