TITL C-627106-156-1162 179889.507638007 125000 -1019.68702745975 0 0 166 (C1) n - 1
REM
REM in /home/nfs/bkarasulu/CARBON/AIRSS/Generating-Clusters/LCBOP/Only-C1/SD-CG/FIRE-CG
REM
REM
REM
REM
REM
REM ./C.cell (11c1c37f851c82e70ff6c80c92926a4b)
REM AIRSS Version 0.9.1 bugfix July 2018 build 013d7b7c2542+ Fri, 06 Jul 2018 19:26:36 +0100
REM compiler GCC version 9.2.1 20190827 (Red Hat 9.2.1-1)
REM options -cpp -mtune=generic -march=x86-64 -g -O0 -fpre-include=/usr/include/finclude/math-vector-fortran.h
REM seed 1716655746 -917287326 706845666 415818352 957207695 700287671 -535555417 93469603 639285094 2029614904 -187613822 1708232788 815948205 1369880050 -1667939790 -114577821 -1899287836 1503147520 1598882841 -1987051753 -1718828150 1880748129 1588807057 -1499296338 -2123789187 1057266158 1784670061 1973788608 1243889998 82880405 1428547535 1757088422 -1186956802
REM
CELL 1.54180   50.00000   50.00000   50.00000   90.00000   90.00000   90.00000
LATT -1
SFAC C  
C      1  0.5482860000000  0.5761710000000  0.4264470000000 1.0
C      1  0.4527610000000  0.4717840000000  0.5205050000000 1.0
C      1  0.4359030000000  0.5261650000000  0.5892800000000 1.0
C      1  0.4713020000000  0.3929490000000  0.4712560000000 1.0
C      1  0.3964360000000  0.5027740000000  0.5633850000000 1.0
C      1  0.4697910000000  0.6269290000000  0.5238610000000 1.0
C      1  0.5608210000000  0.5675240000000  0.5853890000000 1.0
C      1  0.5261910000000  0.6308570000000  0.5403850000000 1.0
C      1  0.5199010000000  0.5263080000000  0.5098210000000 1.0
C      1  0.5323810000000  0.4519590000000  0.5683990000000 1.0
C      1  0.4733370000000  0.3926700000000  0.5183360000000 1.0
C      1  0.5572190000000  0.4636730000000  0.5063750000000 1.0
C      1  0.5649190000000  0.5631640000000  0.4464940000000 1.0
C      1  0.4728120000000  0.5822760000000  0.5528670000000 1.0
C      1  0.4945540000000  0.4492100000000  0.4855190000000 1.0
C      1  0.5037100000000  0.4914970000000  0.4297300000000 1.0
C      1  0.5113950000000  0.4819070000000  0.5305630000000 1.0
C      1  0.6025850000000  0.5644320000000  0.5209900000000 1.0
C      1  0.5480900000000  0.4189110000000  0.6395590000000 1.0
C      1  0.4608660000000  0.4961450000000  0.6229780000000 1.0
C      1  0.4977400000000  0.5749620000000  0.5669600000000 1.0
C      1  0.4959320000000  0.5601130000000  0.5903090000000 1.0
C      1  0.5579330000000  0.4894920000000  0.4930670000000 1.0
C      1  0.5207910000000  0.4367400000000  0.5239510000000 1.0
C      1  0.5378220000000  0.4933460000000  0.6189750000000 1.0
C      1  0.5180980000000  0.4358210000000  0.3972370000000 1.0
C      1  0.4694180000000  0.4595730000000  0.4190350000000 1.0
C      1  0.3741470000000  0.5127310000000  0.4742600000000 1.0
C      1  0.5863950000000  0.6322470000000  0.6041230000000 1.0
C      1  0.4890170000000  0.3721410000000  0.4803260000000 1.0
C      1  0.4465010000000  0.4096450000000  0.5532910000000 1.0
C      1  0.3987010000000  0.5096160000000  0.4307180000000 1.0
C      1  0.5321650000000  0.4626410000000  0.5208160000000 1.0
C      1  0.4641450000000  0.5375920000000  0.5333900000000 1.0
C      1  0.5845460000000  0.5059250000000  0.5980600000000 1.0
C      1  0.4520040000000  0.4524610000000  0.5665740000000 1.0
C      1  0.4136100000000  0.4481720000000  0.5379650000000 1.0
C      1  0.5167300000000  0.4320640000000  0.5518290000000 1.0
C      1  0.5767790000000  0.5105250000000  0.5338790000000 1.0
C      1  0.3991460000000  0.4803960000000  0.4297830000000 1.0
C      1  0.5479450000000  0.4775230000000  0.4240670000000 1.0
C      1  0.5719600000000  0.5905000000000  0.5731020000000 1.0
C      1  0.3914280000000  0.4483470000000  0.4905260000000 1.0
C      1  0.4484130000000  0.5928350000000  0.4596930000000 1.0
C      1  0.5057810000000  0.4302740000000  0.5011960000000 1.0
C      1  0.5310790000000  0.4998770000000  0.4302470000000 1.0
C      1  0.6044470000000  0.4494920000000  0.5015640000000 1.0
C      1  0.5068520000000  0.4364370000000  0.4240870000000 1.0
C      1  0.5644440000000  0.5345040000000  0.4456870000000 1.0
C      1  0.5778700000000  0.4495120000000  0.4902430000000 1.0
C      1  0.5457320000000  0.4305270000000  0.6163520000000 1.0
C      1  0.4566030000000  0.4525470000000  0.5933850000000 1.0
C      1  0.5377420000000  0.5246180000000  0.4423020000000 1.0
C      1  0.5107080000000  0.4968000000000  0.6119810000000 1.0
C      1  0.5144190000000  0.5226810000000  0.4818710000000 1.0
C      1  0.5805290000000  0.6115900000000  0.5893560000000 1.0
C      1  0.5394100000000  0.6023310000000  0.4314920000000 1.0
C      1  0.4428580000000  0.5361480000000  0.4251800000000 1.0
C      1  0.5749740000000  0.5074980000000  0.5058540000000 1.0
C      1  0.3787320000000  0.5188950000000  0.4486520000000 1.0
C      1  0.5144710000000  0.5367530000000  0.4565830000000 1.0
C      1  0.4904440000000  0.5414330000000  0.4397990000000 1.0
C      1  0.5423930000000  0.5494920000000  0.5928960000000 1.0
C      1  0.5091090000000  0.3590270000000  0.5264190000000 1.0
C      1  0.4990310000000  0.4093700000000  0.5573400000000 1.0
C      1  0.5741860000000  0.5932740000000  0.5449860000000 1.0
C      1  0.5474910000000  0.5227840000000  0.3790090000000 1.0
C      1  0.4692500000000  0.4897480000000  0.5004340000000 1.0
C      1  0.4005250000000  0.5421660000000  0.5145820000000 1.0
C      1  0.4417910000000  0.5076670000000  0.6079930000000 1.0
C      1  0.4402510000000  0.4243190000000  0.4915860000000 1.0
C      1  0.4515460000000  0.4948500000000  0.3993760000000 1.0
C      1  0.4960470000000  0.6143300000000  0.4867540000000 1.0
C      1  0.4072400000000  0.4988030000000  0.5385790000000 1.0
C      1  0.6100560000000  0.5439100000000  0.5367590000000 1.0
C      1  0.4294860000000  0.4698990000000  0.4804680000000 1.0
C      1  0.5062550000000  0.5133550000000  0.5890380000000 1.0
C      1  0.5210470000000  0.3628010000000  0.5516740000000 1.0
C      1  0.4432390000000  0.4515220000000  0.4992100000000 1.0
C      1  0.4847610000000  0.5881740000000  0.4897190000000 1.0
C      1  0.4326110000000  0.4342950000000  0.5549440000000 1.0
C      1  0.5029510000000  0.5086530000000  0.5235230000000 1.0
C      1  0.5198720000000  0.4618300000000  0.3860020000000 1.0
C      1  0.3898130000000  0.4999050000000  0.4935640000000 1.0
C      1  0.5545620000000  0.4967380000000  0.3796270000000 1.0
C      1  0.5398470000000  0.4840460000000  0.4714610000000 1.0
C      1  0.5200020000000  0.5821940000000  0.5506900000000 1.0
C      1  0.4150140000000  0.5313510000000  0.4193490000000 1.0
C      1  0.3999140000000  0.4368110000000  0.4641350000000 1.0
C      1  0.5356280000000  0.5612870000000  0.4057870000000 1.0
C      1  0.5674480000000  0.5893480000000  0.4950320000000 1.0
C      1  0.5451960000000  0.6070870000000  0.4938380000000 1.0
C      1  0.5413160000000  0.3463290000000  0.5611840000000 1.0
C      1  0.4236400000000  0.4763470000000  0.5334170000000 1.0
C      1  0.5518480000000  0.4668260000000  0.4508960000000 1.0
C      1  0.4938740000000  0.4117550000000  0.4327430000000 1.0
C      1  0.4432020000000  0.5610130000000  0.4963580000000 1.0
C      1  0.4909220000000  0.5042240000000  0.5665490000000 1.0
C      1  0.5503480000000  0.5101820000000  0.5460460000000 1.0
C      1  0.4943590000000  0.4765060000000  0.3800010000000 1.0
C      1  0.4160020000000  0.5612330000000  0.5036740000000 1.0
C      1  0.4729940000000  0.4040570000000  0.5443160000000 1.0
C      1  0.3980150000000  0.5142600000000  0.5166100000000 1.0
C      1  0.5875500000000  0.5180070000000  0.4492910000000 1.0
C      1  0.6199660000000  0.4945380000000  0.4806070000000 1.0
C      1  0.4565240000000  0.5369210000000  0.5046530000000 1.0
C      1  0.4870450000000  0.4905210000000  0.6258700000000 1.0
C      1  0.4640290000000  0.5549580000000  0.4335530000000 1.0
C      1  0.4678360000000  0.4654740000000  0.5466100000000 1.0
C      1  0.4693840000000  0.5575780000000  0.5991370000000 1.0
C      1  0.4974170000000  0.5042320000000  0.3735910000000 1.0
C      1  0.4762840000000  0.6593890000000  0.4876090000000 1.0
C      1  0.5445070000000  0.4751040000000  0.3948920000000 1.0
C      1  0.5016870000000  0.5241670000000  0.3938540000000 1.0
C      1  0.4500150000000  0.4537930000000  0.4381940000000 1.0
C      1  0.3957080000000  0.4555210000000  0.4414140000000 1.0
C      1  0.4957540000000  0.4629470000000  0.4298420000000 1.0
C      1  0.5284830000000  0.6177210000000  0.4503980000000 1.0
C      1  0.6043640000000  0.4960980000000  0.4568270000000 1.0
C      1  0.5729300000000  0.5758910000000  0.4705260000000 1.0
C      1  0.5431170000000  0.4840180000000  0.5602020000000 1.0
C      1  0.5112100000000  0.6081640000000  0.5413260000000 1.0
C      1  0.4496470000000  0.5489000000000  0.5800590000000 1.0
C      1  0.3950350000000  0.4390370000000  0.5176340000000 1.0
C      1  0.4027020000000  0.5481980000000  0.4013140000000 1.0
C      1  0.5979080000000  0.5149480000000  0.5765540000000 1.0
C      1  0.4805090000000  0.6349690000000  0.4988010000000 1.0
C      1  0.5231980000000  0.6158830000000  0.4779830000000 1.0
C      1  0.4589570000000  0.5133010000000  0.4871080000000 1.0
C      1  0.5762100000000  0.4551940000000  0.4606810000000 1.0
C      1  0.5636040000000  0.4979570000000  0.6128530000000 1.0
C      1  0.4582000000000  0.5104500000000  0.4247190000000 1.0
C      1  0.5254490000000  0.4110740000000  0.3861020000000 1.0
C      1  0.4918270000000  0.4773550000000  0.4861160000000 1.0
C      1  0.4699990000000  0.4094010000000  0.4481490000000 1.0
C      1  0.4813870000000  0.6071940000000  0.5401360000000 1.0
C      1  0.5818480000000  0.5836760000000  0.5194230000000 1.0
C      1  0.4915060000000  0.3716890000000  0.5090520000000 1.0
C      1  0.5124040000000  0.3857210000000  0.5657240000000 1.0
C      1  0.5412120000000  0.4428600000000  0.5933250000000 1.0
C      1  0.5157090000000  0.5401830000000  0.5924820000000 1.0
C      1  0.6196750000000  0.4732870000000  0.4976010000000 1.0
C      1  0.4926600000000  0.4773230000000  0.5534760000000 1.0
C      1  0.5043490000000  0.3879890000000  0.4209030000000 1.0
C      1  0.5978620000000  0.4694250000000  0.4483280000000 1.0
C      1  0.5271810000000  0.5382760000000  0.3917760000000 1.0
C      1  0.4682660000000  0.4720740000000  0.3934900000000 1.0
C      1  0.4255800000000  0.4228470000000  0.4658180000000 1.0
C      1  0.4428320000000  0.4750990000000  0.4563100000000 1.0
C      1  0.4561670000000  0.5581500000000  0.5527810000000 1.0
C      1  0.5015400000000  0.5684370000000  0.4977610000000 1.0
C      1  0.5136210000000  0.4936260000000  0.4769400000000 1.0
C      1  0.4565850000000  0.5817270000000  0.4366370000000 1.0
C      1  0.4846110000000  0.5202880000000  0.5427160000000 1.0
C      1  0.5352160000000  0.5609090000000  0.5404390000000 1.0
C      1  0.4021710000000  0.4754790000000  0.4876510000000 1.0
C      1  0.4573370000000  0.5826300000000  0.4843630000000 1.0
C      1  0.4882400000000  0.5163910000000  0.4210950000000 1.0
C      1  0.4590190000000  0.4037690000000  0.4958220000000 1.0
C      1  0.5373130000000  0.5340660000000  0.5319210000000 1.0
C      1  0.5189950000000  0.3876290000000  0.3980870000000 1.0
C      1  0.5976640000000  0.5218760000000  0.5491670000000 1.0
C      1  0.4465170000000  0.4264780000000  0.4458730000000 1.0
C      1  0.4534000000000  0.5011360000000  0.4546450000000 1.0
C      1  0.6142520000000  0.4279830000000  0.5151970000000 1.0
C      1  0.5630250000000  0.3336830000000  0.5681160000000 1.0
END
