TITL C-627109-622-1229 -1.05269413392046e-07 125000 -328.078656546428 0 0 55 (C1) n - 1
REM
REM in /home/nfs/bkarasulu/CARBON/AIRSS/Generating-Clusters/LCBOP/Only-C1/SD-CG/FIRE-CG
REM
REM
REM
REM
REM
REM ./C.cell (11c1c37f851c82e70ff6c80c92926a4b)
REM AIRSS Version 0.9.1 bugfix July 2018 build 013d7b7c2542+ Fri, 06 Jul 2018 19:26:36 +0100
REM compiler GCC version 9.2.1 20190827 (Red Hat 9.2.1-1)
REM options -cpp -mtune=generic -march=x86-64 -g -O0 -fpre-include=/usr/include/finclude/math-vector-fortran.h
REM seed 620567022 477599728 1711797359 -1548682512 -1426279420 -44385329 -1120971725 -1654573377 -325544368 1915621338 -368128831 -2097095942 1296191643 -1944833446 198010306 1153596955 2007730651 1424254196 2090568685 -1161024996 1582223350 -885077712 -1744972468 453240904 -2014568525 334235450 -385727653 1994311710 -1623643604 1059903803 -964559159 941883114 -1947153743
REM
CELL 1.54180   50.00000   50.00000   50.00000   90.00000   90.00000   90.00000
LATT -1
SFAC C  
C      1  0.5009450000000  0.5826890000000  0.4929800000000 1.0
C      1  0.5548570000000  0.4737450000000  0.4626770000000 1.0
C      1  0.5221340000000  0.4782980000000  0.5002570000000 1.0
C      1  0.4640550000000  0.4283810000000  0.5059130000000 1.0
C      1  0.5013040000000  0.5456880000000  0.5722560000000 1.0
C      1  0.4209970000000  0.4688870000000  0.4811220000000 1.0
C      1  0.5114380000000  0.4322870000000  0.5029210000000 1.0
C      1  0.4883510000000  0.4577900000000  0.4489170000000 1.0
C      1  0.4353830000000  0.5136410000000  0.5247450000000 1.0
C      1  0.4885390000000  0.5226780000000  0.4480820000000 1.0
C      1  0.4427540000000  0.5224840000000  0.4983560000000 1.0
C      1  0.5284810000000  0.4871830000000  0.4728750000000 1.0
C      1  0.4558460000000  0.4697260000000  0.5404120000000 1.0
C      1  0.4971990000000  0.4965130000000  0.5685080000000 1.0
C      1  0.5322880000000  0.5185870000000  0.4701770000000 1.0
C      1  0.4947780000000  0.5699320000000  0.5633330000000 1.0
C      1  0.4603320000000  0.5045610000000  0.4849280000000 1.0
C      1  0.5061780000000  0.5216200000000  0.5110130000000 1.0
C      1  0.4933440000000  0.5874420000000  0.5432970000000 1.0
C      1  0.5179590000000  0.5199540000000  0.4419220000000 1.0
C      1  0.5627200000000  0.4958390000000  0.4441850000000 1.0
C      1  0.5014280000000  0.4941260000000  0.5103600000000 1.0
C      1  0.5038860000000  0.5584410000000  0.4790180000000 1.0
C      1  0.4299570000000  0.5307280000000  0.5453010000000 1.0
C      1  0.5124170000000  0.5205860000000  0.5668670000000 1.0
C      1  0.5326080000000  0.4513160000000  0.5009790000000 1.0
C      1  0.4941060000000  0.4307880000000  0.4553840000000 1.0
C      1  0.4346500000000  0.4847870000000  0.5277500000000 1.0
C      1  0.5809840000000  0.5167320000000  0.4862820000000 1.0
C      1  0.5553100000000  0.4511710000000  0.4815280000000 1.0
C      1  0.5396150000000  0.5059300000000  0.4261980000000 1.0
C      1  0.5721920000000  0.4928560000000  0.5312980000000 1.0
C      1  0.5317320000000  0.4704360000000  0.5515750000000 1.0
C      1  0.5032950000000  0.4716710000000  0.5554770000000 1.0
C      1  0.5631860000000  0.5182170000000  0.4645030000000 1.0
C      1  0.4397330000000  0.5471620000000  0.4852410000000 1.0
C      1  0.5490730000000  0.4929240000000  0.5474260000000 1.0
C      1  0.4568660000000  0.5568470000000  0.4666250000000 1.0
C      1  0.5430570000000  0.5486850000000  0.5103490000000 1.0
C      1  0.4961550000000  0.5926140000000  0.5172950000000 1.0
C      1  0.4756970000000  0.4884210000000  0.5019740000000 1.0
C      1  0.5098180000000  0.4751350000000  0.4527720000000 1.0
C      1  0.5377210000000  0.5191200000000  0.5528910000000 1.0
C      1  0.4518320000000  0.4340400000000  0.4825350000000 1.0
C      1  0.5837290000000  0.5041700000000  0.5098730000000 1.0
C      1  0.5222170000000  0.5377180000000  0.4912790000000 1.0
C      1  0.4182370000000  0.4726640000000  0.5078670000000 1.0
C      1  0.4433940000000  0.4572650000000  0.4681910000000 1.0
C      1  0.4635270000000  0.4717920000000  0.4524850000000 1.0
C      1  0.4876240000000  0.4374760000000  0.5194550000000 1.0
C      1  0.5463160000000  0.5406340000000  0.5361970000000 1.0
C      1  0.4826980000000  0.4577060000000  0.5404060000000 1.0
C      1  0.4682830000000  0.5013450000000  0.4570130000000 1.0
C      1  0.5053390000000  0.4199020000000  0.4776510000000 1.0
C      1  0.4834350000000  0.5486700000000  0.4610780000000 1.0
END
