TITL C-627112-676-1323 -955.699780580439 125000 -796.981279423269 0 0 132 (C1) n - 1
REM
REM in /home/nfs/bkarasulu/CARBON/AIRSS/Generating-Clusters/LCBOP/Only-C1/SD-CG/FIRE-CG
REM
REM
REM
REM
REM
REM ./C.cell (11c1c37f851c82e70ff6c80c92926a4b)
REM AIRSS Version 0.9.1 bugfix July 2018 build 013d7b7c2542+ Fri, 06 Jul 2018 19:26:36 +0100
REM compiler GCC version 9.2.1 20190827 (Red Hat 9.2.1-1)
REM options -cpp -mtune=generic -march=x86-64 -g -O0 -fpre-include=/usr/include/finclude/math-vector-fortran.h
REM seed -2108161556 383931500 -444466802 -35212629 -1857943113 1735480695 -340759196 -1227527777 1399920694 627237111 -529765830 -928417854 1686960660 -96075155 1091536260 -1830685631 139539179 1718917817 -1663724841 -1480891177 559590616 -1949877575 -1001345288 1575236965 -1323728093 996720845 304806496 -1233854272 734884559 -1550383871 -1388701964 728662686 1488413418
REM
CELL 1.54180   50.00000   50.00000   50.00000   90.00000   90.00000   90.00000
LATT -1
SFAC C  
C      1  0.3869130000000  0.5130700000000  0.5182690000000 1.0
C      1  0.5905110000000  0.4558540000000  0.4550110000000 1.0
C      1  0.5326630000000  0.5974040000000  0.4928310000000 1.0
C      1  0.3987680000000  0.4892740000000  0.5087140000000 1.0
C      1  0.4908430000000  0.5471120000000  0.6186690000000 1.0
C      1  0.5126940000000  0.5128980000000  0.5957120000000 1.0
C      1  0.6004810000000  0.4357180000000  0.4726000000000 1.0
C      1  0.4853960000000  0.5530170000000  0.5401830000000 1.0
C      1  0.5017170000000  0.5797510000000  0.5785760000000 1.0
C      1  0.4178440000000  0.5492620000000  0.5280600000000 1.0
C      1  0.4553760000000  0.5555610000000  0.5743230000000 1.0
C      1  0.5273830000000  0.5555110000000  0.5196600000000 1.0
C      1  0.5083340000000  0.4502400000000  0.5260110000000 1.0
C      1  0.4692940000000  0.5382350000000  0.5208440000000 1.0
C      1  0.5389830000000  0.5029390000000  0.5987280000000 1.0
C      1  0.5706850000000  0.4453260000000  0.4369100000000 1.0
C      1  0.4771910000000  0.4702430000000  0.6138640000000 1.0
C      1  0.5310200000000  0.3681500000000  0.4136690000000 1.0
C      1  0.5709210000000  0.4881630000000  0.4896570000000 1.0
C      1  0.5027080000000  0.4577740000000  0.6199370000000 1.0
C      1  0.5450190000000  0.5037070000000  0.5370400000000 1.0
C      1  0.5498370000000  0.4286540000000  0.4472080000000 1.0
C      1  0.5175780000000  0.4605490000000  0.6424110000000 1.0
C      1  0.4251340000000  0.5027950000000  0.4138380000000 1.0
C      1  0.4218920000000  0.5315750000000  0.5520440000000 1.0
C      1  0.5422340000000  0.4962150000000  0.4195780000000 1.0
C      1  0.5689640000000  0.5456310000000  0.4477260000000 1.0
C      1  0.5290140000000  0.3933170000000  0.4216990000000 1.0
C      1  0.4490920000000  0.5774430000000  0.5546610000000 1.0
C      1  0.5031230000000  0.5197690000000  0.5695400000000 1.0
C      1  0.5940930000000  0.5646270000000  0.5136080000000 1.0
C      1  0.4419380000000  0.4924870000000  0.5739020000000 1.0
C      1  0.4925850000000  0.5186250000000  0.6150960000000 1.0
C      1  0.4522860000000  0.4561760000000  0.4822270000000 1.0
C      1  0.5177400000000  0.4839360000000  0.4951640000000 1.0
C      1  0.4732780000000  0.4061760000000  0.4020690000000 1.0
C      1  0.4385160000000  0.5632670000000  0.4668040000000 1.0
C      1  0.5229660000000  0.4293770000000  0.5132580000000 1.0
C      1  0.5778700000000  0.4852960000000  0.5670700000000 1.0
C      1  0.5156370000000  0.4034020000000  0.5224960000000 1.0
C      1  0.4110430000000  0.4979850000000  0.4388980000000 1.0
C      1  0.5079730000000  0.4406280000000  0.5972970000000 1.0
C      1  0.5338970000000  0.5804480000000  0.4460530000000 1.0
C      1  0.3983730000000  0.5375200000000  0.5089990000000 1.0
C      1  0.5574120000000  0.5240830000000  0.5212120000000 1.0
C      1  0.5171460000000  0.4561320000000  0.5518220000000 1.0
C      1  0.4509110000000  0.5387860000000  0.4905440000000 1.0
C      1  0.5756890000000  0.5657030000000  0.5355720000000 1.0
C      1  0.5770910000000  0.5239260000000  0.4307710000000 1.0
C      1  0.4977300000000  0.5781600000000  0.5500180000000 1.0
C      1  0.5276140000000  0.4191980000000  0.4322620000000 1.0
C      1  0.5432230000000  0.4702270000000  0.4910350000000 1.0
C      1  0.4600910000000  0.4362810000000  0.4639110000000 1.0
C      1  0.4483870000000  0.5048880000000  0.5989910000000 1.0
C      1  0.3948580000000  0.4641420000000  0.5198620000000 1.0
C      1  0.5580950000000  0.5887900000000  0.4891530000000 1.0
C      1  0.4934530000000  0.5720010000000  0.4235290000000 1.0
C      1  0.5035650000000  0.5469070000000  0.4093420000000 1.0
C      1  0.4567660000000  0.5358710000000  0.4202220000000 1.0
C      1  0.4036070000000  0.5126080000000  0.4640400000000 1.0
C      1  0.5256040000000  0.3802360000000  0.5107250000000 1.0
C      1  0.6187330000000  0.5189080000000  0.5202370000000 1.0
C      1  0.4279310000000  0.4691720000000  0.4736240000000 1.0
C      1  0.4886790000000  0.5313970000000  0.4598310000000 1.0
C      1  0.4425250000000  0.5109430000000  0.4905000000000 1.0
C      1  0.5545140000000  0.4235820000000  0.4753590000000 1.0
C      1  0.6144700000000  0.5450350000000  0.5150360000000 1.0
C      1  0.4714590000000  0.4986130000000  0.6144820000000 1.0
C      1  0.4388280000000  0.5720060000000  0.5274350000000 1.0
C      1  0.5715190000000  0.5431240000000  0.4760680000000 1.0
C      1  0.4606170000000  0.5114890000000  0.5310940000000 1.0
C      1  0.4838650000000  0.4118200000000  0.5655810000000 1.0
C      1  0.3980640000000  0.4169690000000  0.5427370000000 1.0
C      1  0.5410720000000  0.4403880000000  0.4936810000000 1.0
C      1  0.4937750000000  0.5598740000000  0.4694480000000 1.0
C      1  0.4766380000000  0.4971780000000  0.4104260000000 1.0
C      1  0.4846540000000  0.5779150000000  0.4916560000000 1.0
C      1  0.5034120000000  0.5981690000000  0.5312150000000 1.0
C      1  0.4494860000000  0.4858290000000  0.4101250000000 1.0
C      1  0.5418190000000  0.4749380000000  0.4028040000000 1.0
C      1  0.5660920000000  0.5193450000000  0.4932840000000 1.0
C      1  0.4581520000000  0.5798720000000  0.5058700000000 1.0
C      1  0.4293070000000  0.5438500000000  0.5769430000000 1.0
C      1  0.4429200000000  0.4617260000000  0.4267910000000 1.0
C      1  0.4172450000000  0.4944550000000  0.4857910000000 1.0
C      1  0.5866640000000  0.4827280000000  0.4637520000000 1.0
C      1  0.5044080000000  0.5081240000000  0.4499680000000 1.0
C      1  0.5348360000000  0.3594500000000  0.4979980000000 1.0
C      1  0.4455730000000  0.5742550000000  0.4405240000000 1.0
C      1  0.4824110000000  0.4307580000000  0.5863260000000 1.0
C      1  0.4783350000000  0.4252050000000  0.4208280000000 1.0
C      1  0.5153930000000  0.5369720000000  0.5040780000000 1.0
C      1  0.4106340000000  0.5615610000000  0.4697370000000 1.0
C      1  0.5042890000000  0.4349470000000  0.4278080000000 1.0
C      1  0.4222400000000  0.4708160000000  0.4456830000000 1.0
C      1  0.3955110000000  0.4402300000000  0.5312480000000 1.0
C      1  0.5777210000000  0.5679150000000  0.4897990000000 1.0
C      1  0.4971900000000  0.4021310000000  0.5442610000000 1.0
C      1  0.4398260000000  0.5085790000000  0.5504880000000 1.0
C      1  0.4696540000000  0.4706130000000  0.5001440000000 1.0
C      1  0.5541200000000  0.5208520000000  0.4118010000000 1.0
C      1  0.5838560000000  0.4821660000000  0.5181870000000 1.0
C      1  0.5487820000000  0.5606060000000  0.4337750000000 1.0
C      1  0.5525470000000  0.5505950000000  0.5309880000000 1.0
C      1  0.6080850000000  0.4947260000000  0.5301770000000 1.0
C      1  0.4975840000000  0.5686710000000  0.6031660000000 1.0
C      1  0.5069550000000  0.5749510000000  0.4487820000000 1.0
C      1  0.4642650000000  0.4525060000000  0.5931650000000 1.0
C      1  0.4970510000000  0.4677680000000  0.5070190000000 1.0
C      1  0.5316670000000  0.5015990000000  0.4458630000000 1.0
C      1  0.4803550000000  0.5393050000000  0.5660690000000 1.0
C      1  0.5199450000000  0.5092070000000  0.5490810000000 1.0
C      1  0.3989310000000  0.5381110000000  0.4795300000000 1.0
C      1  0.5248980000000  0.4490120000000  0.5765160000000 1.0
C      1  0.6052000000000  0.4903860000000  0.5589970000000 1.0
C      1  0.5327110000000  0.3432900000000  0.4060080000000 1.0
C      1  0.5641500000000  0.4830860000000  0.5411740000000 1.0
C      1  0.4461420000000  0.4645910000000  0.5751200000000 1.0
C      1  0.4920120000000  0.4879460000000  0.4326730000000 1.0
C      1  0.5143170000000  0.5116250000000  0.4959300000000 1.0
C      1  0.4372600000000  0.5560080000000  0.4192620000000 1.0
C      1  0.4628710000000  0.5284660000000  0.4474700000000 1.0
C      1  0.4687030000000  0.5861210000000  0.4282970000000 1.0
C      1  0.5033820000000  0.4623210000000  0.4336380000000 1.0
C      1  0.5062000000000  0.5944780000000  0.5032210000000 1.0
C      1  0.5349410000000  0.5437820000000  0.4130000000000 1.0
C      1  0.5902950000000  0.5028740000000  0.4439850000000 1.0
C      1  0.4580170000000  0.4388140000000  0.4353930000000 1.0
C      1  0.5818730000000  0.4178580000000  0.4818300000000 1.0
C      1  0.5621460000000  0.4928740000000  0.5891940000000 1.0
C      1  0.4588080000000  0.4949710000000  0.5083520000000 1.0
C      1  0.4804220000000  0.5265020000000  0.4057550000000 1.0
END
