TITL C-627107-135-816 1.51121870493381e-07 125000 -189.70925883239 0 0 33 (C1) n - 1
REM
REM in /home/nfs/bkarasulu/CARBON/AIRSS/Generating-Clusters/LCBOP/Only-C1/SD-CG/FIRE-CG
REM
REM
REM
REM
REM
REM ./C.cell (11c1c37f851c82e70ff6c80c92926a4b)
REM AIRSS Version 0.9.1 bugfix July 2018 build 013d7b7c2542+ Fri, 06 Jul 2018 19:26:36 +0100
REM compiler GCC version 9.2.1 20190827 (Red Hat 9.2.1-1)
REM options -cpp -mtune=generic -march=x86-64 -g -O0 -fpre-include=/usr/include/finclude/math-vector-fortran.h
REM seed 1561714861 985660514 677867353 -494972867 -1040790189 1904506698 792668787 1374636610 1243854493 1652289895 -1478658343 -1739505820 1344279398 1442989001 -1156795837 151126280 1034065739 1975713889 -1323842887 2134482297 1470683030 290550336 -167758649 -948647755 -1700764558 430803174 -1076956343 497743799 1775966025 -264130262 -1381861816 -812525338 130227277
REM
CELL 1.54180   50.00000   50.00000   50.00000   90.00000   90.00000   90.00000
LATT -1
SFAC C  
C      1  0.5564640000000  0.5331680000000  0.4701970000000 1.0
C      1  0.5081810000000  0.5305980000000  0.4538710000000 1.0
C      1  0.5651530000000  0.5021170000000  0.5096900000000 1.0
C      1  0.4873890000000  0.5698460000000  0.4959780000000 1.0
C      1  0.4848070000000  0.4803150000000  0.5675200000000 1.0
C      1  0.4839880000000  0.4501810000000  0.4249990000000 1.0
C      1  0.4964010000000  0.4685630000000  0.4739960000000 1.0
C      1  0.4283600000000  0.5353020000000  0.5031660000000 1.0
C      1  0.5256140000000  0.5056220000000  0.5653350000000 1.0
C      1  0.5681590000000  0.5199000000000  0.4901120000000 1.0
C      1  0.5072590000000  0.5454560000000  0.5457540000000 1.0
C      1  0.4992480000000  0.5019230000000  0.5274550000000 1.0
C      1  0.5223830000000  0.5340450000000  0.5655590000000 1.0
C      1  0.5478730000000  0.4850050000000  0.5235990000000 1.0
C      1  0.4964420000000  0.4332910000000  0.4424590000000 1.0
C      1  0.5049150000000  0.4419480000000  0.4681680000000 1.0
C      1  0.4792890000000  0.4850650000000  0.5397990000000 1.0
C      1  0.5070580000000  0.4898650000000  0.5803550000000 1.0
C      1  0.5338410000000  0.5370660000000  0.4566980000000 1.0
C      1  0.4480470000000  0.5477530000000  0.5177840000000 1.0
C      1  0.4863910000000  0.5152260000000  0.4624710000000 1.0
C      1  0.4578730000000  0.4746240000000  0.5266440000000 1.0
C      1  0.5263060000000  0.4961320000000  0.5376110000000 1.0
C      1  0.5398470000000  0.4366740000000  0.5051420000000 1.0
C      1  0.4857990000000  0.4878010000000  0.4559450000000 1.0
C      1  0.4390450000000  0.5216250000000  0.4804200000000 1.0
C      1  0.4786460000000  0.4762930000000  0.4309040000000 1.0
C      1  0.4760000000000  0.5436030000000  0.5056070000000 1.0
C      1  0.4249060000000  0.5077710000000  0.4618790000000 1.0
C      1  0.5489580000000  0.4573410000000  0.5193060000000 1.0
C      1  0.4679720000000  0.5256940000000  0.4810350000000 1.0
C      1  0.4942870000000  0.5302890000000  0.5250650000000 1.0
C      1  0.5230970000000  0.4298950000000  0.4854770000000 1.0
END
