TITL C-627112-676-1953 -4.20422929338472e-07 125000 -716.955312806857 0 0 119 (C1) n - 1
REM
REM in /home/nfs/bkarasulu/CARBON/AIRSS/Generating-Clusters/LCBOP/Only-C1/SD-CG/FIRE-CG
REM
REM
REM
REM
REM
REM ./C.cell (11c1c37f851c82e70ff6c80c92926a4b)
REM AIRSS Version 0.9.1 bugfix July 2018 build 013d7b7c2542+ Fri, 06 Jul 2018 19:26:36 +0100
REM compiler GCC version 9.2.1 20190827 (Red Hat 9.2.1-1)
REM options -cpp -mtune=generic -march=x86-64 -g -O0 -fpre-include=/usr/include/finclude/math-vector-fortran.h
REM seed 492274585 258115335 1478871479 326102076 -970606479 -1468063120 242719907 580923072 463548922 -1868809077 -734505189 -370237589 1140520506 -1426504290 165520629 -1629081052 -843579821 -1273330167 870396097 2046535053 252282679 892431949 -365308272 -1582035603 1574128896 -1568663944 1156311302 -1372700528 -133401071 -1977224302 2066620114 1471473907 1931648224
REM
CELL 1.54180   50.00000   50.00000   50.00000   90.00000   90.00000   90.00000
LATT -1
SFAC C  
C      1  0.4824270000000  0.3934500000000  0.4225100000000 1.0
C      1  0.4803910000000  0.5122260000000  0.4095670000000 1.0
C      1  0.5388630000000  0.4592450000000  0.5775520000000 1.0
C      1  0.5073500000000  0.5422330000000  0.4633620000000 1.0
C      1  0.4796630000000  0.5710380000000  0.5364400000000 1.0
C      1  0.5212830000000  0.4533400000000  0.5132470000000 1.0
C      1  0.5385580000000  0.4408070000000  0.5326350000000 1.0
C      1  0.4895710000000  0.5137880000000  0.5754380000000 1.0
C      1  0.4313390000000  0.4920070000000  0.5919380000000 1.0
C      1  0.4009180000000  0.5079870000000  0.5270500000000 1.0
C      1  0.4468020000000  0.5006020000000  0.5074720000000 1.0
C      1  0.4296510000000  0.4909750000000  0.4867240000000 1.0
C      1  0.5093300000000  0.5835450000000  0.4972000000000 1.0
C      1  0.6138840000000  0.5465840000000  0.5317540000000 1.0
C      1  0.4694550000000  0.4403100000000  0.4271930000000 1.0
C      1  0.5938080000000  0.4969370000000  0.4650000000000 1.0
C      1  0.5350790000000  0.5040400000000  0.4567180000000 1.0
C      1  0.4747080000000  0.5385760000000  0.5747350000000 1.0
C      1  0.5394270000000  0.4800890000000  0.5968300000000 1.0
C      1  0.5513450000000  0.5823370000000  0.5376850000000 1.0
C      1  0.4679770000000  0.5183700000000  0.5012680000000 1.0
C      1  0.5834910000000  0.5099150000000  0.4404760000000 1.0
C      1  0.4957900000000  0.4595040000000  0.5230800000000 1.0
C      1  0.5273150000000  0.4724970000000  0.4085070000000 1.0
C      1  0.5239600000000  0.4285480000000  0.4681680000000 1.0
C      1  0.5342510000000  0.5484430000000  0.5812920000000 1.0
C      1  0.4273700000000  0.4332480000000  0.5538970000000 1.0
C      1  0.5251340000000  0.5711710000000  0.4336060000000 1.0
C      1  0.4467030000000  0.5359070000000  0.5785730000000 1.0
C      1  0.4240840000000  0.5060810000000  0.4640130000000 1.0
C      1  0.5155500000000  0.5681850000000  0.5703620000000 1.0
C      1  0.4096790000000  0.4559740000000  0.5140070000000 1.0
C      1  0.5059440000000  0.4095630000000  0.4804280000000 1.0
C      1  0.5308010000000  0.4488580000000  0.4871250000000 1.0
C      1  0.4389930000000  0.5477810000000  0.4419680000000 1.0
C      1  0.5514440000000  0.6099080000000  0.4464460000000 1.0
C      1  0.5583530000000  0.5435510000000  0.4627170000000 1.0
C      1  0.5547840000000  0.4613290000000  0.4800810000000 1.0
C      1  0.5636200000000  0.5008520000000  0.4202220000000 1.0
C      1  0.4539800000000  0.5439010000000  0.5049940000000 1.0
C      1  0.4821320000000  0.5093530000000  0.4379420000000 1.0
C      1  0.3937480000000  0.4793670000000  0.5220040000000 1.0
C      1  0.4167830000000  0.4804370000000  0.4175750000000 1.0
C      1  0.5351300000000  0.5861980000000  0.4855350000000 1.0
C      1  0.5176220000000  0.5466090000000  0.5286560000000 1.0
C      1  0.5031180000000  0.5688110000000  0.5200880000000 1.0
C      1  0.4268240000000  0.5437070000000  0.4918930000000 1.0
C      1  0.4430160000000  0.4949770000000  0.5345900000000 1.0
C      1  0.5785540000000  0.4468630000000  0.4827540000000 1.0
C      1  0.5504990000000  0.4604280000000  0.5509450000000 1.0
C      1  0.4214680000000  0.5081980000000  0.5478240000000 1.0
C      1  0.5403890000000  0.4304240000000  0.4442640000000 1.0
C      1  0.4468970000000  0.4681410000000  0.5908530000000 1.0
C      1  0.5162300000000  0.4019400000000  0.5069270000000 1.0
C      1  0.5175890000000  0.5477860000000  0.4150700000000 1.0
C      1  0.4615710000000  0.5541040000000  0.4225260000000 1.0
C      1  0.4768070000000  0.4145520000000  0.4394080000000 1.0
C      1  0.4660310000000  0.4620160000000  0.4695920000000 1.0
C      1  0.5817580000000  0.4875760000000  0.5176220000000 1.0
C      1  0.5355720000000  0.5444490000000  0.6088830000000 1.0
C      1  0.4550380000000  0.4065570000000  0.4876660000000 1.0
C      1  0.4784470000000  0.4090950000000  0.4692850000000 1.0
C      1  0.6176420000000  0.4122120000000  0.4886500000000 1.0
C      1  0.5443550000000  0.5178440000000  0.4997190000000 1.0
C      1  0.4912100000000  0.4946590000000  0.5969550000000 1.0
C      1  0.5402120000000  0.5254340000000  0.4113360000000 1.0
C      1  0.5005220000000  0.5036670000000  0.5508010000000 1.0
C      1  0.4919170000000  0.5027900000000  0.4924110000000 1.0
C      1  0.4359260000000  0.4460550000000  0.5761200000000 1.0
C      1  0.4916230000000  0.4466530000000  0.5913110000000 1.0
C      1  0.4736060000000  0.4586440000000  0.4038900000000 1.0
C      1  0.5649760000000  0.4856360000000  0.5418200000000 1.0
C      1  0.4868040000000  0.5416640000000  0.4083480000000 1.0
C      1  0.5546580000000  0.4732540000000  0.4164000000000 1.0
C      1  0.5552460000000  0.5822350000000  0.5072240000000 1.0
C      1  0.5173230000000  0.5086410000000  0.5054090000000 1.0
C      1  0.5881480000000  0.5541120000000  0.5284770000000 1.0
C      1  0.4842030000000  0.5316950000000  0.4549440000000 1.0
C      1  0.5295740000000  0.5885190000000  0.5551170000000 1.0
C      1  0.5573390000000  0.4472450000000  0.4299860000000 1.0
C      1  0.5089780000000  0.4719360000000  0.4280290000000 1.0
C      1  0.5922270000000  0.4931000000000  0.4925350000000 1.0
C      1  0.4056450000000  0.5293240000000  0.5066790000000 1.0
C      1  0.5554380000000  0.5386840000000  0.5635870000000 1.0
C      1  0.4529710000000  0.4552210000000  0.4452500000000 1.0
C      1  0.4871800000000  0.4810840000000  0.4729540000000 1.0
C      1  0.5130080000000  0.5193320000000  0.5316420000000 1.0
C      1  0.4264820000000  0.5216540000000  0.4401890000000 1.0
C      1  0.4751300000000  0.4860630000000  0.3972920000000 1.0
C      1  0.5606370000000  0.5109270000000  0.5563760000000 1.0
C      1  0.5499530000000  0.4841130000000  0.4655770000000 1.0
C      1  0.4212480000000  0.4314500000000  0.5260020000000 1.0
C      1  0.5796700000000  0.5379430000000  0.4453830000000 1.0
C      1  0.4949060000000  0.4865220000000  0.4466810000000 1.0
C      1  0.5327720000000  0.5318380000000  0.4579000000000 1.0
C      1  0.4890600000000  0.4790250000000  0.5423420000000 1.0
C      1  0.4282490000000  0.4626920000000  0.4342340000000 1.0
C      1  0.5175800000000  0.4920980000000  0.6077040000000 1.0
C      1  0.5621500000000  0.5383560000000  0.4903460000000 1.0
C      1  0.4281980000000  0.5145760000000  0.5747150000000 1.0
C      1  0.4541950000000  0.4527840000000  0.4928970000000 1.0
C      1  0.4729970000000  0.4463680000000  0.5126830000000 1.0
C      1  0.4614640000000  0.4790510000000  0.5471920000000 1.0
C      1  0.4180500000000  0.5074580000000  0.4174100000000 1.0
C      1  0.5737180000000  0.5594930000000  0.5042990000000 1.0
C      1  0.5379580000000  0.5449270000000  0.6348350000000 1.0
C      1  0.4315230000000  0.5607700000000  0.4673880000000 1.0
C      1  0.4389040000000  0.5870090000000  0.4763620000000 1.0
C      1  0.5166750000000  0.4417320000000  0.5822490000000 1.0
C      1  0.5326810000000  0.4124600000000  0.5270320000000 1.0
C      1  0.4754350000000  0.4698140000000  0.5957400000000 1.0
C      1  0.5681710000000  0.5597920000000  0.5483650000000 1.0
C      1  0.4871960000000  0.5621410000000  0.5635400000000 1.0
C      1  0.5983280000000  0.4294480000000  0.4856000000000 1.0
C      1  0.4361380000000  0.4130770000000  0.5073380000000 1.0
C      1  0.4489880000000  0.5908510000000  0.5016320000000 1.0
C      1  0.5366220000000  0.5881540000000  0.4556250000000 1.0
C      1  0.4582870000000  0.5692460000000  0.5180650000000 1.0
C      1  0.4276030000000  0.4632370000000  0.4932260000000 1.0
END
