TITL C-627111-6168-1050 -0.048446185550803 125000 -422.935425221877 0 0 71 (C1) n - 1
REM
REM in /home/nfs/bkarasulu/CARBON/AIRSS/Generating-Clusters/LCBOP/Only-C1/SD-CG/FIRE-CG
REM
REM
REM
REM
REM
REM ./C.cell (11c1c37f851c82e70ff6c80c92926a4b)
REM AIRSS Version 0.9.1 bugfix July 2018 build 013d7b7c2542+ Fri, 06 Jul 2018 19:26:36 +0100
REM compiler GCC version 9.2.1 20190827 (Red Hat 9.2.1-1)
REM options -cpp -mtune=generic -march=x86-64 -g -O0 -fpre-include=/usr/include/finclude/math-vector-fortran.h
REM seed -2100482795 -2006600835 -944485374 1191336800 1410204756 -304633691 -1805967085 2041897835 -2015841614 242415513 -824902108 -616534718 579617752 1759865874 872038775 1322633673 754242144 -1653315524 -23341246 -517922860 -486292968 -1096611650 724130416 -1103892859 1166361753 1667025548 1779268293 1606173529 907029566 1965669894 -2076336263 1542554746 -2094391956
REM
CELL 1.54180   50.00000   50.00000   50.00000   90.00000   90.00000   90.00000
LATT -1
SFAC C  
C      1  0.4588210000000  0.5336810000000  0.4875010000000 1.0
C      1  0.4413190000000  0.5142940000000  0.4778520000000 1.0
C      1  0.4462630000000  0.4901960000000  0.4902280000000 1.0
C      1  0.4974980000000  0.4311540000000  0.5181100000000 1.0
C      1  0.5451300000000  0.5713050000000  0.4729110000000 1.0
C      1  0.4479990000000  0.4417720000000  0.4926050000000 1.0
C      1  0.4712350000000  0.5277360000000  0.4299520000000 1.0
C      1  0.5366200000000  0.5412080000000  0.5417500000000 1.0
C      1  0.5183550000000  0.4229620000000  0.5355530000000 1.0
C      1  0.5250110000000  0.5662200000000  0.5492080000000 1.0
C      1  0.4615410000000  0.4314170000000  0.5686190000000 1.0
C      1  0.4779200000000  0.4799850000000  0.5039660000000 1.0
C      1  0.4827330000000  0.5819820000000  0.5119880000000 1.0
C      1  0.5210670000000  0.5236100000000  0.4300470000000 1.0
C      1  0.4189050000000  0.5185840000000  0.4629390000000 1.0
C      1  0.4439060000000  0.4688580000000  0.5426690000000 1.0
C      1  0.4612690000000  0.4581010000000  0.5627800000000 1.0
C      1  0.5475780000000  0.5316390000000  0.4416200000000 1.0
C      1  0.5584310000000  0.4391250000000  0.4673170000000 1.0
C      1  0.4378770000000  0.4974350000000  0.5471550000000 1.0
C      1  0.5257170000000  0.4645010000000  0.4981440000000 1.0
C      1  0.5547480000000  0.5449130000000  0.4676680000000 1.0
C      1  0.4361340000000  0.4562070000000  0.5163740000000 1.0
C      1  0.5747480000000  0.4949590000000  0.4232510000000 1.0
C      1  0.4555630000000  0.4551510000000  0.4663730000000 1.0
C      1  0.5483000000000  0.4638280000000  0.4559030000000 1.0
C      1  0.5091260000000  0.5903910000000  0.5055060000000 1.0
C      1  0.5654830000000  0.5318870000000  0.4922130000000 1.0
C      1  0.4845670000000  0.5016820000000  0.5875060000000 1.0
C      1  0.5108430000000  0.5052810000000  0.5289590000000 1.0
C      1  0.5794350000000  0.5067370000000  0.4938350000000 1.0
C      1  0.4439310000000  0.5242410000000  0.5486580000000 1.0
C      1  0.4238920000000  0.4780720000000  0.5022580000000 1.0
C      1  0.5021180000000  0.5213460000000  0.5744310000000 1.0
C      1  0.4772160000000  0.5671280000000  0.5369230000000 1.0
C      1  0.4575130000000  0.4158180000000  0.4968440000000 1.0
C      1  0.5725840000000  0.4827890000000  0.5050910000000 1.0
C      1  0.4773330000000  0.4987900000000  0.4345380000000 1.0
C      1  0.5424740000000  0.4113950000000  0.5322650000000 1.0
C      1  0.5695560000000  0.5210110000000  0.4270930000000 1.0
C      1  0.5236320000000  0.5059680000000  0.4815450000000 1.0
C      1  0.5295350000000  0.4791470000000  0.4727800000000 1.0
C      1  0.4960740000000  0.5497550000000  0.4615280000000 1.0
C      1  0.5089480000000  0.5289650000000  0.4754070000000 1.0
C      1  0.4539200000000  0.5474100000000  0.4431330000000 1.0
C      1  0.4673070000000  0.5562390000000  0.4696700000000 1.0
C      1  0.5106820000000  0.4694540000000  0.4200270000000 1.0
C      1  0.5193220000000  0.5190590000000  0.5524580000000 1.0
C      1  0.4617250000000  0.5424390000000  0.5347590000000 1.0
C      1  0.5627920000000  0.4357760000000  0.4953340000000 1.0
C      1  0.4985880000000  0.4578390000000  0.5062380000000 1.0
C      1  0.4689780000000  0.5182320000000  0.6057150000000 1.0
C      1  0.5302000000000  0.5100600000000  0.5092070000000 1.0
C      1  0.5075340000000  0.4975370000000  0.4257150000000 1.0
C      1  0.4707610000000  0.5275120000000  0.5122330000000 1.0
C      1  0.4769320000000  0.4766050000000  0.5776710000000 1.0
C      1  0.4852210000000  0.5036760000000  0.5178450000000 1.0
C      1  0.5299940000000  0.5865470000000  0.4890390000000 1.0
C      1  0.4983880000000  0.5413940000000  0.4336310000000 1.0
C      1  0.5475450000000  0.5328000000000  0.5156560000000 1.0
C      1  0.4903160000000  0.4540770000000  0.4306660000000 1.0
C      1  0.5628150000000  0.4737200000000  0.4341480000000 1.0
C      1  0.4698960000000  0.4699610000000  0.4449720000000 1.0
C      1  0.4662440000000  0.5793200000000  0.4885370000000 1.0
C      1  0.4732920000000  0.5452330000000  0.6010300000000 1.0
C      1  0.4973700000000  0.5667530000000  0.5578670000000 1.0
C      1  0.5539660000000  0.4610080000000  0.5069110000000 1.0
C      1  0.4923030000000  0.5491040000000  0.5797800000000 1.0
C      1  0.5610860000000  0.4140500000000  0.5128630000000 1.0
C      1  0.4915590000000  0.3836350000000  0.5074560000000 1.0
C      1  0.4823180000000  0.4093330000000  0.5075780000000 1.0
END
