TITL C-627110-360-1543 2.46676602200259e-07 125000 -682.999445419258 0 0 113 (C1) n - 1
REM
REM in /home/nfs/bkarasulu/CARBON/AIRSS/Generating-Clusters/LCBOP/Only-C1/SD-CG/FIRE-CG
REM
REM
REM
REM
REM
REM ./C.cell (11c1c37f851c82e70ff6c80c92926a4b)
REM AIRSS Version 0.9.1 bugfix July 2018 build 013d7b7c2542+ Fri, 06 Jul 2018 19:26:36 +0100
REM compiler GCC version 9.2.1 20190827 (Red Hat 9.2.1-1)
REM options -cpp -mtune=generic -march=x86-64 -g -O0 -fpre-include=/usr/include/finclude/math-vector-fortran.h
REM seed -1987918784 -1472107770 -927209638 51751981 1457628825 -313818365 -1137377064 1431861879 -1381272529 -328635500 -258724928 -701251225 -303352287 -1559503099 -356303019 -104259394 -1464076991 -2045856521 2010705694 -1209480530 1832690019 -1135766862 -2038846905 -1445951303 2010561883 -1049815331 1248818436 -1129243195 -245587033 -107898538 -576417284 287625534 456762941
REM
CELL 1.54180   50.00000   50.00000   50.00000   90.00000   90.00000   90.00000
LATT -1
SFAC C  
C      1  0.5678820000000  0.5817660000000  0.4735750000000 1.0
C      1  0.4808750000000  0.5298390000000  0.5074630000000 1.0
C      1  0.4663950000000  0.5427810000000  0.5617090000000 1.0
C      1  0.5446280000000  0.4923110000000  0.4352670000000 1.0
C      1  0.4130960000000  0.4613510000000  0.5596940000000 1.0
C      1  0.5644710000000  0.4547770000000  0.5694370000000 1.0
C      1  0.5411460000000  0.4645690000000  0.4326520000000 1.0
C      1  0.5195010000000  0.5263390000000  0.5386880000000 1.0
C      1  0.4615490000000  0.5459200000000  0.4473830000000 1.0
C      1  0.4216100000000  0.6457990000000  0.5088570000000 1.0
C      1  0.4860110000000  0.4765400000000  0.5274980000000 1.0
C      1  0.5155690000000  0.4102460000000  0.5493030000000 1.0
C      1  0.4630340000000  0.5169370000000  0.4520910000000 1.0
C      1  0.4407910000000  0.5498340000000  0.4918180000000 1.0
C      1  0.4504920000000  0.4926560000000  0.4971130000000 1.0
C      1  0.4540010000000  0.5565990000000  0.5394650000000 1.0
C      1  0.4695050000000  0.5225420000000  0.3948110000000 1.0
C      1  0.4831090000000  0.4787540000000  0.4247480000000 1.0
C      1  0.5332950000000  0.4595080000000  0.5197010000000 1.0
C      1  0.5044810000000  0.4093870000000  0.4432110000000 1.0
C      1  0.5268200000000  0.4219930000000  0.4564770000000 1.0
C      1  0.4316840000000  0.4823310000000  0.4469100000000 1.0
C      1  0.4937480000000  0.4734560000000  0.3991250000000 1.0
C      1  0.5015090000000  0.5778140000000  0.4300220000000 1.0
C      1  0.5238060000000  0.5332330000000  0.4514130000000 1.0
C      1  0.5128640000000  0.3989480000000  0.5252570000000 1.0
C      1  0.5601700000000  0.5607110000000  0.5595330000000 1.0
C      1  0.5296830000000  0.4506830000000  0.4546570000000 1.0
C      1  0.4904160000000  0.5570370000000  0.5687940000000 1.0
C      1  0.5814410000000  0.6089670000000  0.5128190000000 1.0
C      1  0.5935160000000  0.4962340000000  0.4497080000000 1.0
C      1  0.5965240000000  0.5380390000000  0.5276690000000 1.0
C      1  0.5980320000000  0.4698580000000  0.4543570000000 1.0
C      1  0.5217680000000  0.4994500000000  0.5457550000000 1.0
C      1  0.5850680000000  0.4923550000000  0.5369200000000 1.0
C      1  0.5161730000000  0.4610150000000  0.3908880000000 1.0
C      1  0.5296390000000  0.5783520000000  0.5232070000000 1.0
C      1  0.4289010000000  0.4958680000000  0.5902690000000 1.0
C      1  0.4574570000000  0.5446420000000  0.5144170000000 1.0
C      1  0.4676970000000  0.4906760000000  0.5444070000000 1.0
C      1  0.5818810000000  0.5833880000000  0.4983650000000 1.0
C      1  0.5127930000000  0.5562480000000  0.4766720000000 1.0
C      1  0.4594050000000  0.5850860000000  0.5448260000000 1.0
C      1  0.5489950000000  0.5851810000000  0.4542360000000 1.0
C      1  0.5651470000000  0.5312000000000  0.5652310000000 1.0
C      1  0.5887330000000  0.5643380000000  0.5207160000000 1.0
C      1  0.5140310000000  0.4773320000000  0.5302290000000 1.0
C      1  0.4814850000000  0.3995870000000  0.4575860000000 1.0
C      1  0.4581920000000  0.3472060000000  0.5030830000000 1.0
C      1  0.4339540000000  0.6266460000000  0.5215220000000 1.0
C      1  0.5728530000000  0.4673770000000  0.5458860000000 1.0
C      1  0.5258570000000  0.5587640000000  0.5021700000000 1.0
C      1  0.4162420000000  0.4886140000000  0.5661980000000 1.0
C      1  0.4730580000000  0.3660970000000  0.4930230000000 1.0
C      1  0.5141020000000  0.5483630000000  0.5566830000000 1.0
C      1  0.5375480000000  0.4550560000000  0.4062910000000 1.0
C      1  0.4966810000000  0.5142160000000  0.4918280000000 1.0
C      1  0.4882810000000  0.3871860000000  0.4829610000000 1.0
C      1  0.4035310000000  0.5106290000000  0.4918550000000 1.0
C      1  0.4550950000000  0.4089940000000  0.4518870000000 1.0
C      1  0.4443650000000  0.4990380000000  0.5277050000000 1.0
C      1  0.4949600000000  0.4488910000000  0.5710380000000 1.0
C      1  0.5744530000000  0.5097420000000  0.4913000000000 1.0
C      1  0.4694050000000  0.4406890000000  0.5580070000000 1.0
C      1  0.4557000000000  0.4979370000000  0.5922830000000 1.0
C      1  0.4276610000000  0.4541670000000  0.4495850000000 1.0
C      1  0.5115670000000  0.3969300000000  0.4972830000000 1.0
C      1  0.4992480000000  0.4868700000000  0.4844640000000 1.0
C      1  0.4849600000000  0.5041030000000  0.4386300000000 1.0
C      1  0.5046970000000  0.5237600000000  0.4302470000000 1.0
C      1  0.4587270000000  0.5601800000000  0.4719920000000 1.0
C      1  0.4016870000000  0.4844080000000  0.4994340000000 1.0
C      1  0.5263600000000  0.5848750000000  0.4389750000000 1.0
C      1  0.5090690000000  0.4643200000000  0.4690030000000 1.0
C      1  0.4466480000000  0.5094910000000  0.4023930000000 1.0
C      1  0.4754440000000  0.4748510000000  0.5000790000000 1.0
C      1  0.5318520000000  0.4090520000000  0.4812840000000 1.0
C      1  0.5176470000000  0.4315340000000  0.5677440000000 1.0
C      1  0.5802670000000  0.6051020000000  0.5402540000000 1.0
C      1  0.4838500000000  0.4489880000000  0.4651280000000 1.0
C      1  0.4103980000000  0.4618410000000  0.5121970000000 1.0
C      1  0.4949240000000  0.5296770000000  0.4033430000000 1.0
C      1  0.4362190000000  0.4284220000000  0.4501580000000 1.0
C      1  0.5483230000000  0.5163910000000  0.4505000000000 1.0
C      1  0.4324380000000  0.4946870000000  0.4204880000000 1.0
C      1  0.5799620000000  0.5769640000000  0.5465950000000 1.0
C      1  0.5431340000000  0.4399840000000  0.5765380000000 1.0
C      1  0.4995030000000  0.4776210000000  0.5790180000000 1.0
C      1  0.4705320000000  0.4472960000000  0.4901890000000 1.0
C      1  0.4231040000000  0.4503010000000  0.5355860000000 1.0
C      1  0.5242990000000  0.4945810000000  0.5742300000000 1.0
C      1  0.5337590000000  0.5681130000000  0.5504460000000 1.0
C      1  0.4780500000000  0.5634200000000  0.4303300000000 1.0
C      1  0.5897920000000  0.4541510000000  0.4748730000000 1.0
C      1  0.4816780000000  0.5846600000000  0.5635940000000 1.0
C      1  0.5797500000000  0.4623740000000  0.4996680000000 1.0
C      1  0.4168470000000  0.5343540000000  0.4889610000000 1.0
C      1  0.5745390000000  0.5127860000000  0.4631410000000 1.0
C      1  0.5844880000000  0.5193010000000  0.5461850000000 1.0
C      1  0.4746810000000  0.4916900000000  0.5725770000000 1.0
C      1  0.5315420000000  0.5337570000000  0.5142020000000 1.0
C      1  0.4596730000000  0.4309100000000  0.5102130000000 1.0
C      1  0.4057670000000  0.5285100000000  0.5413120000000 1.0
C      1  0.4456460000000  0.4986080000000  0.4675760000000 1.0
C      1  0.4497740000000  0.4381430000000  0.5361110000000 1.0
C      1  0.4211490000000  0.5060060000000  0.5436130000000 1.0
C      1  0.5613320000000  0.4557510000000  0.5210050000000 1.0
C      1  0.5471110000000  0.5127860000000  0.5808120000000 1.0
C      1  0.5871130000000  0.4897940000000  0.5072120000000 1.0
C      1  0.4464710000000  0.6069460000000  0.5340550000000 1.0
C      1  0.4750380000000  0.4560240000000  0.4393350000000 1.0
C      1  0.5518540000000  0.5195700000000  0.5033170000000 1.0
C      1  0.4863220000000  0.5680280000000  0.4774560000000 1.0
END
