TITL C-627108-131-691 -75.1703630300364 125000 -933.454393597945 0 0 152 (C1) n - 1
REM
REM in /home/nfs/bkarasulu/CARBON/AIRSS/Generating-Clusters/LCBOP/Only-C1/SD-CG/FIRE-CG
REM
REM
REM
REM
REM
REM ./C.cell (11c1c37f851c82e70ff6c80c92926a4b)
REM AIRSS Version 0.9.1 bugfix July 2018 build 013d7b7c2542+ Fri, 06 Jul 2018 19:26:36 +0100
REM compiler GCC version 9.2.1 20190827 (Red Hat 9.2.1-1)
REM options -cpp -mtune=generic -march=x86-64 -g -O0 -fpre-include=/usr/include/finclude/math-vector-fortran.h
REM seed 277233886 -1587831983 1295121549 -1007076029 -316894831 -634157704 -623268735 201354233 852596360 2015811485 -1683862637 -2041176076 -2034884161 -1521473676 2133234590 -382323520 -299114670 1110731328 -568788691 -1478561195 1498246391 1750982488 -1667927713 -775770370 6385566 103023921 -1435188316 -508154216 -845291275 -1976011181 1988816102 247167834 1796426459
REM
CELL 1.54180   50.00000   50.00000   50.00000   90.00000   90.00000   90.00000
LATT -1
SFAC C  
C      1  0.4727480000000  0.5938740000000  0.5377430000000 1.0
C      1  0.4197390000000  0.4326460000000  0.4824080000000 1.0
C      1  0.4292140000000  0.6154270000000  0.5435460000000 1.0
C      1  0.5809540000000  0.4606660000000  0.5616490000000 1.0
C      1  0.6117740000000  0.5465360000000  0.5207560000000 1.0
C      1  0.3960630000000  0.5357580000000  0.5072730000000 1.0
C      1  0.5317720000000  0.4199730000000  0.5370350000000 1.0
C      1  0.6244140000000  0.5221690000000  0.5296220000000 1.0
C      1  0.4221390000000  0.4793850000000  0.5889790000000 1.0
C      1  0.5312950000000  0.4991410000000  0.5977780000000 1.0
C      1  0.4159250000000  0.4638950000000  0.4200210000000 1.0
C      1  0.4500320000000  0.5412200000000  0.4425570000000 1.0
C      1  0.4126150000000  0.4694930000000  0.5662580000000 1.0
C      1  0.4759270000000  0.4653160000000  0.5403350000000 1.0
C      1  0.5840920000000  0.4915270000000  0.4291050000000 1.0
C      1  0.5071730000000  0.5632250000000  0.4489090000000 1.0
C      1  0.4749280000000  0.5933810000000  0.5866560000000 1.0
C      1  0.5593760000000  0.4584920000000  0.4508390000000 1.0
C      1  0.5052400000000  0.4077290000000  0.4070670000000 1.0
C      1  0.3985370000000  0.4515170000000  0.4851330000000 1.0
C      1  0.4826810000000  0.5353770000000  0.4069450000000 1.0
C      1  0.4509180000000  0.4775820000000  0.4693670000000 1.0
C      1  0.5335960000000  0.5499740000000  0.5837180000000 1.0
C      1  0.6053810000000  0.5713570000000  0.5334560000000 1.0
C      1  0.4761500000000  0.5363690000000  0.5650900000000 1.0
C      1  0.6033450000000  0.4267750000000  0.5353760000000 1.0
C      1  0.5530690000000  0.5342860000000  0.5159790000000 1.0
C      1  0.6262360000000  0.5879160000000  0.5419840000000 1.0
C      1  0.5996920000000  0.4536580000000  0.5420230000000 1.0
C      1  0.5505400000000  0.5477880000000  0.5604590000000 1.0
C      1  0.5244980000000  0.5277640000000  0.5998310000000 1.0
C      1  0.5979570000000  0.5079220000000  0.4935410000000 1.0
C      1  0.4972830000000  0.5305730000000  0.6076920000000 1.0
C      1  0.4869220000000  0.5102220000000  0.3908990000000 1.0
C      1  0.4827120000000  0.4552230000000  0.4416280000000 1.0
C      1  0.4422150000000  0.6035180000000  0.4539140000000 1.0
C      1  0.5956690000000  0.5373610000000  0.4980360000000 1.0
C      1  0.5516580000000  0.5294530000000  0.4591400000000 1.0
C      1  0.4522720000000  0.5477610000000  0.5070510000000 1.0
C      1  0.4543780000000  0.5321010000000  0.4164740000000 1.0
C      1  0.4490790000000  0.4295060000000  0.5517050000000 1.0
C      1  0.4280680000000  0.4367270000000  0.5326120000000 1.0
C      1  0.5629650000000  0.5709380000000  0.4835140000000 1.0
C      1  0.5188840000000  0.4742750000000  0.4944480000000 1.0
C      1  0.6458620000000  0.6031130000000  0.5499250000000 1.0
C      1  0.4630460000000  0.4525930000000  0.5614170000000 1.0
C      1  0.4285270000000  0.5458770000000  0.5641910000000 1.0
C      1  0.4610210000000  0.3539340000000  0.4464970000000 1.0
C      1  0.5454730000000  0.5792850000000  0.4225400000000 1.0
C      1  0.5431620000000  0.5866090000000  0.4715400000000 1.0
C      1  0.4353090000000  0.4973240000000  0.6315610000000 1.0
C      1  0.5041650000000  0.5413890000000  0.4275610000000 1.0
C      1  0.5153310000000  0.4319880000000  0.4716530000000 1.0
C      1  0.5382350000000  0.4328370000000  0.5145340000000 1.0
C      1  0.4306440000000  0.4917250000000  0.4554980000000 1.0
C      1  0.4155290000000  0.4635210000000  0.5387280000000 1.0
C      1  0.5335770000000  0.4657900000000  0.4392040000000 1.0
C      1  0.5634420000000  0.5205680000000  0.3950100000000 1.0
C      1  0.4600110000000  0.5070300000000  0.5316720000000 1.0
C      1  0.5612530000000  0.5009800000000  0.4147020000000 1.0
C      1  0.5014700000000  0.5362000000000  0.5147580000000 1.0
C      1  0.5317110000000  0.5782500000000  0.4467990000000 1.0
C      1  0.4654450000000  0.5357580000000  0.4651070000000 1.0
C      1  0.5020890000000  0.4067460000000  0.4778150000000 1.0
C      1  0.4559690000000  0.6140910000000  0.4344660000000 1.0
C      1  0.5286260000000  0.5005500000000  0.4893770000000 1.0
C      1  0.5711760000000  0.3645430000000  0.5018800000000 1.0
C      1  0.5161310000000  0.4483000000000  0.3750430000000 1.0
C      1  0.5987410000000  0.4025210000000  0.5257200000000 1.0
C      1  0.4338210000000  0.5953680000000  0.5031620000000 1.0
C      1  0.5048690000000  0.5876780000000  0.4996610000000 1.0
C      1  0.4723630000000  0.4102580000000  0.5493480000000 1.0
C      1  0.5004850000000  0.5889930000000  0.5939650000000 1.0
C      1  0.5282780000000  0.4471300000000  0.4927140000000 1.0
C      1  0.5236630000000  0.5838470000000  0.5491660000000 1.0
C      1  0.5269490000000  0.6023060000000  0.4888420000000 1.0
C      1  0.4977120000000  0.3961750000000  0.4298870000000 1.0
C      1  0.5521020000000  0.5738510000000  0.5461420000000 1.0
C      1  0.4913440000000  0.5710600000000  0.4796150000000 1.0
C      1  0.4491680000000  0.3821900000000  0.4836480000000 1.0
C      1  0.4890960000000  0.3924120000000  0.4564290000000 1.0
C      1  0.4942940000000  0.4221870000000  0.5693950000000 1.0
C      1  0.4681590000000  0.4937210000000  0.5962370000000 1.0
C      1  0.4261160000000  0.4896000000000  0.4272730000000 1.0
C      1  0.4686510000000  0.4355320000000  0.5013550000000 1.0
C      1  0.5874000000000  0.3815130000000  0.5141890000000 1.0
C      1  0.5696970000000  0.5481520000000  0.4980230000000 1.0
C      1  0.4729250000000  0.3980790000000  0.5228630000000 1.0
C      1  0.5783680000000  0.4950090000000  0.4771110000000 1.0
C      1  0.4719390000000  0.4897670000000  0.4832290000000 1.0
C      1  0.4290620000000  0.4208470000000  0.5076530000000 1.0
C      1  0.3951770000000  0.4753340000000  0.4973000000000 1.0
C      1  0.5804350000000  0.4778280000000  0.4540130000000 1.0
C      1  0.6144940000000  0.4987460000000  0.5157340000000 1.0
C      1  0.4415980000000  0.4902010000000  0.6059010000000 1.0
C      1  0.5007820000000  0.5891180000000  0.5289960000000 1.0
C      1  0.5394630000000  0.4412770000000  0.5780260000000 1.0
C      1  0.4296620000000  0.5905780000000  0.4748520000000 1.0
C      1  0.5067880000000  0.5204800000000  0.4907330000000 1.0
C      1  0.5119640000000  0.4256720000000  0.3885240000000 1.0
C      1  0.4819650000000  0.4805690000000  0.4286930000000 1.0
C      1  0.4503650000000  0.6066150000000  0.5247640000000 1.0
C      1  0.5160140000000  0.5140710000000  0.4324510000000 1.0
C      1  0.5486620000000  0.5260560000000  0.5423190000000 1.0
C      1  0.5563330000000  0.5677590000000  0.4011970000000 1.0
C      1  0.4681230000000  0.5555190000000  0.4849080000000 1.0
C      1  0.4473140000000  0.3977040000000  0.5073560000000 1.0
C      1  0.4059950000000  0.6005550000000  0.5397600000000 1.0
C      1  0.4810210000000  0.4918480000000  0.5424470000000 1.0
C      1  0.4661780000000  0.3759480000000  0.4619550000000 1.0
C      1  0.4644750000000  0.5822500000000  0.5629660000000 1.0
C      1  0.5432910000000  0.4896270000000  0.5736840000000 1.0
C      1  0.4581660000000  0.4517240000000  0.4574150000000 1.0
C      1  0.4084980000000  0.5708390000000  0.4729170000000 1.0
C      1  0.6125980000000  0.4736570000000  0.5273520000000 1.0
C      1  0.5050500000000  0.4987600000000  0.3730730000000 1.0
C      1  0.4191940000000  0.4400220000000  0.4329760000000 1.0
C      1  0.5222940000000  0.4244130000000  0.5631220000000 1.0
C      1  0.5554570000000  0.4640480000000  0.5726110000000 1.0
C      1  0.4939530000000  0.5010940000000  0.4448420000000 1.0
C      1  0.5316930000000  0.6285940000000  0.4941230000000 1.0
C      1  0.4961380000000  0.5329130000000  0.5431760000000 1.0
C      1  0.5127000000000  0.4797970000000  0.6082850000000 1.0
C      1  0.4956960000000  0.3982250000000  0.5048470000000 1.0
C      1  0.5639690000000  0.5465570000000  0.3844990000000 1.0
C      1  0.4795420000000  0.4558070000000  0.5146600000000 1.0
C      1  0.5716350000000  0.5510870000000  0.3586720000000 1.0
C      1  0.4696200000000  0.4910360000000  0.4052770000000 1.0
C      1  0.4875040000000  0.4712410000000  0.5978970000000 1.0
C      1  0.5336490000000  0.5033620000000  0.5508370000000 1.0
C      1  0.4421900000000  0.5235250000000  0.5180630000000 1.0
C      1  0.4821490000000  0.4469660000000  0.5822010000000 1.0
C      1  0.4906180000000  0.4747010000000  0.4978100000000 1.0
C      1  0.4075450000000  0.4854850000000  0.5206930000000 1.0
C      1  0.5521830000000  0.3509180000000  0.4893740000000 1.0
C      1  0.5104270000000  0.4483360000000  0.4480330000000 1.0
C      1  0.5325630000000  0.3389130000000  0.4771010000000 1.0
C      1  0.4776800000000  0.5205050000000  0.5897200000000 1.0
C      1  0.4551190000000  0.5555250000000  0.5639140000000 1.0
C      1  0.4343910000000  0.4352240000000  0.4568960000000 1.0
C      1  0.5526350000000  0.5080920000000  0.4765260000000 1.0
C      1  0.4841440000000  0.5134080000000  0.4702600000000 1.0
C      1  0.5054570000000  0.5052240000000  0.5471770000000 1.0
C      1  0.4444890000000  0.5046140000000  0.4113700000000 1.0
C      1  0.3983880000000  0.5626900000000  0.4990270000000 1.0
C      1  0.4129200000000  0.5167950000000  0.5239480000000 1.0
C      1  0.5783560000000  0.5800610000000  0.5377400000000 1.0
C      1  0.5356080000000  0.4934060000000  0.4260600000000 1.0
C      1  0.4082640000000  0.5840490000000  0.5162280000000 1.0
C      1  0.4113850000000  0.5283160000000  0.5525850000000 1.0
C      1  0.5147550000000  0.4741690000000  0.3685750000000 1.0
C      1  0.5187490000000  0.5751500000000  0.5778770000000 1.0
END
