TITL C-627106-156-334 1.36381836981975e-05 125000 -1065.15776134222 0 0 175 (C1) n - 1
REM
REM in /home/nfs/bkarasulu/CARBON/AIRSS/Generating-Clusters/LCBOP/Only-C1/SD-CG/FIRE-CG
REM
REM
REM
REM
REM
REM ./C.cell (11c1c37f851c82e70ff6c80c92926a4b)
REM AIRSS Version 0.9.1 bugfix July 2018 build 013d7b7c2542+ Fri, 06 Jul 2018 19:26:36 +0100
REM compiler GCC version 9.2.1 20190827 (Red Hat 9.2.1-1)
REM options -cpp -mtune=generic -march=x86-64 -g -O0 -fpre-include=/usr/include/finclude/math-vector-fortran.h
REM seed -719649552 117039270 -395058518 1055539185 -1996717518 -1453062007 1151386588 722897100 1959932304 -1704556572 -284458315 2095130715 1265722179 1251755896 1373716274 1747501786 -958933406 -108931177 1209837265 1574602368 345048063 759173370 -1218348546 377000255 -1294846013 948019580 -1612587010 -190909554 1398048345 -57002793 -821531021 787834536 -199483617
REM
CELL 1.54180   50.00000   50.00000   50.00000   90.00000   90.00000   90.00000
LATT -1
SFAC C  
C      1  0.6156910000000  0.5419680000000  0.4670200000000 1.0
C      1  0.4654100000000  0.6103530000000  0.5687020000000 1.0
C      1  0.4413060000000  0.4907400000000  0.5179010000000 1.0
C      1  0.5023680000000  0.5372060000000  0.5600740000000 1.0
C      1  0.4291620000000  0.5634940000000  0.4437520000000 1.0
C      1  0.5693130000000  0.5609240000000  0.4160540000000 1.0
C      1  0.4470210000000  0.4029490000000  0.5881130000000 1.0
C      1  0.5090710000000  0.4230450000000  0.5130820000000 1.0
C      1  0.5051170000000  0.5225380000000  0.4648120000000 1.0
C      1  0.5630740000000  0.5463540000000  0.4818800000000 1.0
C      1  0.5028990000000  0.5135020000000  0.4905740000000 1.0
C      1  0.4665110000000  0.5485070000000  0.4674610000000 1.0
C      1  0.5323440000000  0.5731200000000  0.5688970000000 1.0
C      1  0.4850400000000  0.4537820000000  0.4659480000000 1.0
C      1  0.4168770000000  0.4358290000000  0.5691300000000 1.0
C      1  0.4161680000000  0.4583350000000  0.5876600000000 1.0
C      1  0.6148000000000  0.4716470000000  0.5049480000000 1.0
C      1  0.4884890000000  0.4667090000000  0.4907710000000 1.0
C      1  0.5246770000000  0.4473500000000  0.4296190000000 1.0
C      1  0.4556290000000  0.5138250000000  0.5081520000000 1.0
C      1  0.4226820000000  0.5411730000000  0.4921480000000 1.0
C      1  0.5994100000000  0.4076950000000  0.4690350000000 1.0
C      1  0.5841020000000  0.4296220000000  0.5227160000000 1.0
C      1  0.5979660000000  0.4679380000000  0.4340330000000 1.0
C      1  0.4538380000000  0.4274540000000  0.4419290000000 1.0
C      1  0.4797730000000  0.3959520000000  0.4697750000000 1.0
C      1  0.5563310000000  0.4969060000000  0.3794350000000 1.0
C      1  0.4794890000000  0.6594030000000  0.4107420000000 1.0
C      1  0.4971850000000  0.5170670000000  0.6045690000000 1.0
C      1  0.5551120000000  0.5682090000000  0.4978450000000 1.0
C      1  0.4351120000000  0.4221010000000  0.5166810000000 1.0
C      1  0.4748860000000  0.5910410000000  0.3794010000000 1.0
C      1  0.5254910000000  0.5389000000000  0.3855200000000 1.0
C      1  0.4539720000000  0.3828330000000  0.4751820000000 1.0
C      1  0.5602650000000  0.4279350000000  0.5040820000000 1.0
C      1  0.6502750000000  0.4997220000000  0.4892330000000 1.0
C      1  0.5610640000000  0.4774880000000  0.4004230000000 1.0
C      1  0.4333190000000  0.4348380000000  0.4230820000000 1.0
C      1  0.5204420000000  0.4951420000000  0.5692840000000 1.0
C      1  0.3980510000000  0.4582350000000  0.4486380000000 1.0
C      1  0.4779740000000  0.5797180000000  0.6028300000000 1.0
C      1  0.5829380000000  0.5754110000000  0.5737890000000 1.0
C      1  0.4979680000000  0.4066200000000  0.4906670000000 1.0
C      1  0.4367520000000  0.4154300000000  0.5659120000000 1.0
C      1  0.3939200000000  0.4312570000000  0.4580320000000 1.0
C      1  0.5358670000000  0.4654470000000  0.4096070000000 1.0
C      1  0.4139120000000  0.6004220000000  0.4099190000000 1.0
C      1  0.4567330000000  0.4704980000000  0.5283760000000 1.0
C      1  0.4234830000000  0.5585680000000  0.5391180000000 1.0
C      1  0.5424940000000  0.5200190000000  0.3766730000000 1.0
C      1  0.4915900000000  0.5734000000000  0.3900340000000 1.0
C      1  0.5161490000000  0.5582100000000  0.4300590000000 1.0
C      1  0.4110790000000  0.4833670000000  0.5726110000000 1.0
C      1  0.3891890000000  0.4815810000000  0.4633350000000 1.0
C      1  0.4254480000000  0.4574940000000  0.6139020000000 1.0
C      1  0.4478890000000  0.5709260000000  0.4651100000000 1.0
C      1  0.5414910000000  0.3844360000000  0.5433970000000 1.0
C      1  0.4379500000000  0.4951150000000  0.4614590000000 1.0
C      1  0.6075620000000  0.4337860000000  0.4761060000000 1.0
C      1  0.5772990000000  0.5217100000000  0.4923030000000 1.0
C      1  0.4868580000000  0.3966400000000  0.4198520000000 1.0
C      1  0.4908710000000  0.4382570000000  0.5293050000000 1.0
C      1  0.5097880000000  0.5560350000000  0.4020670000000 1.0
C      1  0.4899580000000  0.6426280000000  0.4277310000000 1.0
C      1  0.4284710000000  0.6090670000000  0.3893060000000 1.0
C      1  0.6014780000000  0.5821310000000  0.4964100000000 1.0
C      1  0.4289710000000  0.5771580000000  0.5601610000000 1.0
C      1  0.4146720000000  0.5831520000000  0.4301730000000 1.0
C      1  0.5314400000000  0.4190770000000  0.5728310000000 1.0
C      1  0.6064030000000  0.5183090000000  0.4817190000000 1.0
C      1  0.5807120000000  0.5137450000000  0.4244160000000 1.0
C      1  0.4431120000000  0.5824920000000  0.4924610000000 1.0
C      1  0.4426680000000  0.6016630000000  0.5569000000000 1.0
C      1  0.5639890000000  0.4737820000000  0.5223980000000 1.0
C      1  0.5557170000000  0.5444870000000  0.4549580000000 1.0
C      1  0.4152620000000  0.5311410000000  0.5472480000000 1.0
C      1  0.4930280000000  0.5457570000000  0.4545380000000 1.0
C      1  0.4412500000000  0.4701660000000  0.4703710000000 1.0
C      1  0.4719010000000  0.5271460000000  0.5263100000000 1.0
C      1  0.4842540000000  0.6048950000000  0.5193360000000 1.0
C      1  0.5785450000000  0.3979810000000  0.4552270000000 1.0
C      1  0.4269650000000  0.5693100000000  0.5878020000000 1.0
C      1  0.5751500000000  0.5871800000000  0.5051830000000 1.0
C      1  0.4028550000000  0.5161910000000  0.5251000000000 1.0
C      1  0.4749860000000  0.4072260000000  0.4426990000000 1.0
C      1  0.5093590000000  0.5906920000000  0.5636470000000 1.0
C      1  0.5302150000000  0.4459890000000  0.5793030000000 1.0
C      1  0.4957150000000  0.5657640000000  0.6191150000000 1.0
C      1  0.4661470000000  0.4681810000000  0.5550400000000 1.0
C      1  0.4267350000000  0.5644910000000  0.5097410000000 1.0
C      1  0.5817450000000  0.5255180000000  0.5216360000000 1.0
C      1  0.3900990000000  0.5043890000000  0.4784600000000 1.0
C      1  0.4935910000000  0.5422310000000  0.5340910000000 1.0
C      1  0.6074950000000  0.4527310000000  0.4542470000000 1.0
C      1  0.5574360000000  0.5829780000000  0.5765740000000 1.0
C      1  0.6229440000000  0.4963860000000  0.4920670000000 1.0
C      1  0.5158510000000  0.3763480000000  0.5397930000000 1.0
C      1  0.4892130000000  0.3801980000000  0.5400610000000 1.0
C      1  0.5937580000000  0.5374920000000  0.5421440000000 1.0
C      1  0.4037140000000  0.4457920000000  0.5451820000000 1.0
C      1  0.4280270000000  0.5355760000000  0.4350810000000 1.0
C      1  0.4960410000000  0.3869850000000  0.3974570000000 1.0
C      1  0.5609410000000  0.5187920000000  0.4438040000000 1.0
C      1  0.4138960000000  0.4902520000000  0.5257210000000 1.0
C      1  0.4427440000000  0.4240570000000  0.4893010000000 1.0
C      1  0.5897700000000  0.4710540000000  0.5654310000000 1.0
C      1  0.4612250000000  0.3831960000000  0.5365610000000 1.0
C      1  0.4467200000000  0.3604260000000  0.5310850000000 1.0
C      1  0.5913340000000  0.5406600000000  0.4201070000000 1.0
C      1  0.5159160000000  0.4849870000000  0.4030890000000 1.0
C      1  0.5403140000000  0.4688180000000  0.6164200000000 1.0
C      1  0.5629290000000  0.4477030000000  0.4830640000000 1.0
C      1  0.5185340000000  0.4814870000000  0.5227140000000 1.0
C      1  0.4033600000000  0.5615380000000  0.5990900000000 1.0
C      1  0.4326360000000  0.4839760000000  0.4186260000000 1.0
C      1  0.4974330000000  0.4542420000000  0.4394080000000 1.0
C      1  0.4312140000000  0.4004950000000  0.4756650000000 1.0
C      1  0.4866850000000  0.5955820000000  0.5809560000000 1.0
C      1  0.4904240000000  0.4925840000000  0.6173590000000 1.0
C      1  0.5455150000000  0.5611030000000  0.4343070000000 1.0
C      1  0.5964110000000  0.5565420000000  0.5605430000000 1.0
C      1  0.4091090000000  0.4319720000000  0.5218550000000 1.0
C      1  0.4496650000000  0.5302280000000  0.4853570000000 1.0
C      1  0.5635950000000  0.6332650000000  0.5305540000000 1.0
C      1  0.4988240000000  0.5139310000000  0.5765450000000 1.0
C      1  0.5380970000000  0.4620780000000  0.5266840000000 1.0
C      1  0.5557630000000  0.4052740000000  0.4433350000000 1.0
C      1  0.5191000000000  0.5049130000000  0.4485450000000 1.0
C      1  0.5165400000000  0.5917250000000  0.4823520000000 1.0
C      1  0.5376570000000  0.4234800000000  0.4362860000000 1.0
C      1  0.6124740000000  0.5455170000000  0.4388050000000 1.0
C      1  0.5270420000000  0.5724890000000  0.4998920000000 1.0
C      1  0.4587030000000  0.4777360000000  0.4089420000000 1.0
C      1  0.5100320000000  0.5566490000000  0.5160190000000 1.0
C      1  0.6058440000000  0.4437490000000  0.5041960000000 1.0
C      1  0.5136490000000  0.4659360000000  0.5682230000000 1.0
C      1  0.5351290000000  0.4343230000000  0.5163800000000 1.0
C      1  0.5102560000000  0.6099310000000  0.4641420000000 1.0
C      1  0.5660690000000  0.4736720000000  0.4937930000000 1.0
C      1  0.4315070000000  0.5072140000000  0.4364360000000 1.0
C      1  0.4275710000000  0.4191070000000  0.4013830000000 1.0
C      1  0.4039330000000  0.4740380000000  0.5460260000000 1.0
C      1  0.4061870000000  0.4076160000000  0.4642400000000 1.0
C      1  0.5532920000000  0.4548090000000  0.5939390000000 1.0
C      1  0.5028640000000  0.5401130000000  0.6189200000000 1.0
C      1  0.4006970000000  0.5237050000000  0.4972010000000 1.0
C      1  0.5825570000000  0.4856640000000  0.4179970000000 1.0
C      1  0.4625740000000  0.5992730000000  0.5044420000000 1.0
C      1  0.5760300000000  0.4480890000000  0.5749840000000 1.0
C      1  0.5746600000000  0.4258840000000  0.5526060000000 1.0
C      1  0.5007060000000  0.6262320000000  0.4455650000000 1.0
C      1  0.5096090000000  0.5024960000000  0.4223830000000 1.0
C      1  0.4461090000000  0.4705100000000  0.6249720000000 1.0
C      1  0.4464960000000  0.5079920000000  0.5935040000000 1.0
C      1  0.4549490000000  0.4436940000000  0.4679640000000 1.0
C      1  0.5039580000000  0.4878720000000  0.5002070000000 1.0
C      1  0.4505740000000  0.5724670000000  0.6030200000000 1.0
C      1  0.4614240000000  0.4908610000000  0.6130200000000 1.0
C      1  0.5458110000000  0.4997450000000  0.4575600000000 1.0
C      1  0.4246710000000  0.5091850000000  0.5738960000000 1.0
C      1  0.5689810000000  0.6104040000000  0.5192580000000 1.0
C      1  0.5142890000000  0.4766720000000  0.6229650000000 1.0
C      1  0.5607530000000  0.4976640000000  0.4819660000000 1.0
C      1  0.5517280000000  0.4072040000000  0.5567370000000 1.0
C      1  0.5038930000000  0.6011740000000  0.5375490000000 1.0
C      1  0.5423390000000  0.5162540000000  0.5658310000000 1.0
C      1  0.4794740000000  0.4637050000000  0.4188890000000 1.0
C      1  0.4184180000000  0.4598110000000  0.4275630000000 1.0
C      1  0.5819780000000  0.4817530000000  0.5420370000000 1.0
C      1  0.4741400000000  0.4549980000000  0.5123960000000 1.0
C      1  0.4522110000000  0.6048520000000  0.3779370000000 1.0
C      1  0.5303540000000  0.5444760000000  0.5648140000000 1.0
C      1  0.4911760000000  0.4541210000000  0.5550740000000 1.0
C      1  0.4463990000000  0.4077720000000  0.5393400000000 1.0
C      1  0.6173350000000  0.5656100000000  0.4825360000000 1.0
END
