TITL C-627109-622-1877 8.4678397187866e-08 125000 -18.9723641415034 0 0 4 (D(inf)h) n - 1
REM
REM in /home/nfs/bkarasulu/CARBON/AIRSS/Generating-Clusters/LCBOP/Only-C1/SD-CG/FIRE-CG
REM
REM
REM
REM
REM
REM ./C.cell (11c1c37f851c82e70ff6c80c92926a4b)
REM AIRSS Version 0.9.1 bugfix July 2018 build 013d7b7c2542+ Fri, 06 Jul 2018 19:26:36 +0100
REM compiler GCC version 9.2.1 20190827 (Red Hat 9.2.1-1)
REM options -cpp -mtune=generic -march=x86-64 -g -O0 -fpre-include=/usr/include/finclude/math-vector-fortran.h
REM seed -1238847887 1053267619 1303292577 -963893265 1830431831 1673441631 1956648835 1497972070 841095008 -873616943 2146345859 -1692415696 1080397009 -15132679 1832707474 189835297 -727647953 -1805575807 2138110301 -906294784 -2019572417 -741732669 414415681 1040677361 686505960 1780547526 -1858796810 485670899 1237823975 -1381086762 -1511087900 524614274 -689958652
REM
CELL 1.54180   50.00000   50.00000   50.00000   90.00000   90.00000   90.00000
LATT -1
SFAC C  
C      1  0.4715360000000  0.4743520000000  0.4911350000000 1.0
C      1  0.5284640000000  0.5256480000000  0.5088650000000 1.0
C      1  0.5095950000000  0.5086460000000  0.5029880000000 1.0
C      1  0.4904050000000  0.4913540000000  0.4970120000000 1.0
END
