TITL C-627106-156-448 0.0035348823696164 125000 -383.031537010359 0 0 66 (C1) n - 1
REM
REM in /home/nfs/bkarasulu/CARBON/AIRSS/Generating-Clusters/LCBOP/Only-C1/SD-CG/FIRE-CG
REM
REM
REM
REM
REM
REM ./C.cell (11c1c37f851c82e70ff6c80c92926a4b)
REM AIRSS Version 0.9.1 bugfix July 2018 build 013d7b7c2542+ Fri, 06 Jul 2018 19:26:36 +0100
REM compiler GCC version 9.2.1 20190827 (Red Hat 9.2.1-1)
REM options -cpp -mtune=generic -march=x86-64 -g -O0 -fpre-include=/usr/include/finclude/math-vector-fortran.h
REM seed -1180916308 1468105114 222040774 -722648625 -1696497255 -1651657757 624658861 192578377 1584351975 -1827054502 -883781134 -2082116643 1718032181 1343217173 -1996903649 243814398 1090020896 1028195431 1333349718 1697810765 2013561253 -1530522901 -1518572728 1215022623 609071655 2141563253 -281616250 -1681262378 393045262 -1532545088 528507842 10535088 -462678026
REM
CELL 1.54180   50.00000   50.00000   50.00000   90.00000   90.00000   90.00000
LATT -1
SFAC C  
C      1  0.5197150000000  0.4207690000000  0.4622040000000 1.0
C      1  0.4989280000000  0.4329090000000  0.4470150000000 1.0
C      1  0.4739830000000  0.5464010000000  0.4977230000000 1.0
C      1  0.4951750000000  0.5573280000000  0.4860520000000 1.0
C      1  0.5372830000000  0.5817850000000  0.4930760000000 1.0
C      1  0.5344520000000  0.4338780000000  0.4828070000000 1.0
C      1  0.5204480000000  0.5074160000000  0.5362170000000 1.0
C      1  0.5222020000000  0.5613560000000  0.4807140000000 1.0
C      1  0.5564940000000  0.5965580000000  0.4769210000000 1.0
C      1  0.5186460000000  0.4740830000000  0.4612880000000 1.0
C      1  0.4491800000000  0.4368800000000  0.4648250000000 1.0
C      1  0.5781830000000  0.5863970000000  0.5150300000000 1.0
C      1  0.3803070000000  0.5174530000000  0.5060530000000 1.0
C      1  0.4693560000000  0.4177480000000  0.5316210000000 1.0
C      1  0.4291590000000  0.4533850000000  0.4758570000000 1.0
C      1  0.4964950000000  0.5148250000000  0.5454200000000 1.0
C      1  0.4626040000000  0.5314290000000  0.5165090000000 1.0
C      1  0.5835430000000  0.5929400000000  0.4871950000000 1.0
C      1  0.4038400000000  0.5385650000000  0.5475880000000 1.0
C      1  0.5439020000000  0.4887290000000  0.5948440000000 1.0
C      1  0.4717910000000  0.4283080000000  0.4533230000000 1.0
C      1  0.5384780000000  0.4950230000000  0.5208810000000 1.0
C      1  0.5380260000000  0.5746600000000  0.5442570000000 1.0
C      1  0.4538920000000  0.4897790000000  0.5431340000000 1.0
C      1  0.4755180000000  0.4768840000000  0.4013600000000 1.0
C      1  0.4866280000000  0.4810940000000  0.4961360000000 1.0
C      1  0.4266300000000  0.5401010000000  0.5611960000000 1.0
C      1  0.5142110000000  0.5865410000000  0.5506760000000 1.0
C      1  0.5860200000000  0.5374290000000  0.4443960000000 1.0
C      1  0.5340230000000  0.4236400000000  0.5089730000000 1.0
C      1  0.4057570000000  0.4598200000000  0.4607760000000 1.0
C      1  0.5502020000000  0.5798750000000  0.5195240000000 1.0
C      1  0.4649890000000  0.4754270000000  0.3775660000000 1.0
C      1  0.4862840000000  0.4599770000000  0.5125090000000 1.0
C      1  0.4860700000000  0.4776260000000  0.4268050000000 1.0
C      1  0.5081530000000  0.4548130000000  0.5788290000000 1.0
C      1  0.5502730000000  0.5572460000000  0.5624680000000 1.0
C      1  0.5279810000000  0.4678340000000  0.5908150000000 1.0
C      1  0.4682590000000  0.5422290000000  0.5863830000000 1.0
C      1  0.6076610000000  0.4997850000000  0.4116950000000 1.0
C      1  0.3810120000000  0.5004220000000  0.4856800000000 1.0
C      1  0.4538590000000  0.5339670000000  0.5646790000000 1.0
C      1  0.4655280000000  0.4711700000000  0.5609830000000 1.0
C      1  0.4804260000000  0.4963040000000  0.4482560000000 1.0
C      1  0.6019890000000  0.5797350000000  0.4710050000000 1.0
C      1  0.4371010000000  0.4802590000000  0.5226420000000 1.0
C      1  0.4875030000000  0.4534250000000  0.5600950000000 1.0
C      1  0.5533900000000  0.5131470000000  0.5904110000000 1.0
C      1  0.3879410000000  0.5305830000000  0.5278490000000 1.0
C      1  0.4316820000000  0.4650910000000  0.5013580000000 1.0
C      1  0.5554240000000  0.5369220000000  0.5787420000000 1.0
C      1  0.4903190000000  0.4386750000000  0.5339040000000 1.0
C      1  0.5972630000000  0.5182860000000  0.4275550000000 1.0
C      1  0.4502990000000  0.4002790000000  0.5284570000000 1.0
C      1  0.5459470000000  0.4789140000000  0.5008440000000 1.0
C      1  0.6016090000000  0.5582660000000  0.4550440000000 1.0
C      1  0.5364150000000  0.5443150000000  0.4633660000000 1.0
C      1  0.3896060000000  0.4809000000000  0.4698520000000 1.0
C      1  0.6178690000000  0.4815550000000  0.3961020000000 1.0
C      1  0.5368390000000  0.4625150000000  0.4798020000000 1.0
C      1  0.4662020000000  0.5174000000000  0.5428770000000 1.0
C      1  0.5172510000000  0.4265910000000  0.5297300000000 1.0
C      1  0.5587780000000  0.5363810000000  0.4512670000000 1.0
C      1  0.3991180000000  0.4458380000000  0.4382360000000 1.0
C      1  0.4962960000000  0.4904930000000  0.4716430000000 1.0
C      1  0.5055930000000  0.4596400000000  0.4389570000000 1.0
END
