TITL C-627106-156-795 29.1078058088095 125000 -176.240679430337 0 0 32 (C1) n - 1
REM
REM in /home/nfs/bkarasulu/CARBON/AIRSS/Generating-Clusters/LCBOP/Only-C1/SD-CG/FIRE-CG
REM
REM
REM
REM
REM
REM ./C.cell (11c1c37f851c82e70ff6c80c92926a4b)
REM AIRSS Version 0.9.1 bugfix July 2018 build 013d7b7c2542+ Fri, 06 Jul 2018 19:26:36 +0100
REM compiler GCC version 9.2.1 20190827 (Red Hat 9.2.1-1)
REM options -cpp -mtune=generic -march=x86-64 -g -O0 -fpre-include=/usr/include/finclude/math-vector-fortran.h
REM seed 1599503505 -1745328442 1552713525 -1761577467 -925573362 -562470258 -1811410128 540800450 2116224491 -1334116619 -1592709498 -27222260 -769688111 1779578758 1526911379 -1590493295 -1836957757 1532049995 -2040247326 -1302129270 -1591448869 2051501014 -509584668 -2039456661 -619771447 1465734623 1587118818 -2101473044 -403151191 -1470369950 -881366285 599096724 -1165108649
REM
CELL 1.54180   50.00000   50.00000   50.00000   90.00000   90.00000   90.00000
LATT -1
SFAC C  
C      1  0.4955920000000  0.5048720000000  0.4209830000000 1.0
C      1  0.5166270000000  0.4884290000000  0.4675810000000 1.0
C      1  0.5062600000000  0.4964520000000  0.4432180000000 1.0
C      1  0.4977500000000  0.5131150000000  0.6405530000000 1.0
C      1  0.5613740000000  0.4501780000000  0.5124290000000 1.0
C      1  0.5113080000000  0.4992120000000  0.5917000000000 1.0
C      1  0.5424270000000  0.4668290000000  0.5001030000000 1.0
C      1  0.4606590000000  0.5444980000000  0.5585070000000 1.0
C      1  0.4405170000000  0.5576780000000  0.4649630000000 1.0
C      1  0.5047040000000  0.5060110000000  0.6164530000000 1.0
C      1  0.5217280000000  0.4880180000000  0.5410030000000 1.0
C      1  0.5538930000000  0.4236700000000  0.5195180000000 1.0
C      1  0.4073580000000  0.5857530000000  0.4436730000000 1.0
C      1  0.4372230000000  0.5588610000000  0.4167150000000 1.0
C      1  0.4636880000000  0.5403370000000  0.5325170000000 1.0
C      1  0.4283630000000  0.5674340000000  0.4417850000000 1.0
C      1  0.5866920000000  0.4592110000000  0.5175430000000 1.0
C      1  0.5514700000000  0.4555240000000  0.4517890000000 1.0
C      1  0.5439040000000  0.4183730000000  0.5444320000000 1.0
C      1  0.4455230000000  0.5508430000000  0.3933470000000 1.0
C      1  0.5645400000000  0.4419130000000  0.4338160000000 1.0
C      1  0.4532100000000  0.5473020000000  0.4857530000000 1.0
C      1  0.4880850000000  0.5163330000000  0.4983910000000 1.0
C      1  0.5239530000000  0.4844820000000  0.5136650000000 1.0
C      1  0.5171640000000  0.4930840000000  0.5665940000000 1.0
C      1  0.5080330000000  0.4978290000000  0.4935440000000 1.0
C      1  0.4683100000000  0.5346760000000  0.5055620000000 1.0
C      1  0.5568280000000  0.4032410000000  0.5006590000000 1.0
C      1  0.4576400000000  0.5486380000000  0.5840680000000 1.0
C      1  0.5595250000000  0.3851330000000  0.4821120000000 1.0
C      1  0.3877580000000  0.6028420000000  0.4454140000000 1.0
C      1  0.5378940000000  0.4692320000000  0.4716110000000 1.0
END
