TITL C-627113-6568-1210 -6.85950680953116e-07 125000 -1140.51325557117 0 0 184 (C1) n - 1
REM
REM in /home/nfs/bkarasulu/CARBON/AIRSS/Generating-Clusters/LCBOP/Only-C1/SD-CG/FIRE-CG
REM
REM
REM
REM
REM
REM ./C.cell (11c1c37f851c82e70ff6c80c92926a4b)
REM AIRSS Version 0.9.1 bugfix July 2018 build 013d7b7c2542+ Fri, 06 Jul 2018 19:26:36 +0100
REM compiler GCC version 9.2.1 20190827 (Red Hat 9.2.1-1)
REM options -cpp -mtune=generic -march=x86-64 -g -O0 -fpre-include=/usr/include/finclude/math-vector-fortran.h
REM seed -374438555 987290789 29939602 -1107386985 231476601 -58067695 -1837398793 -844429418 -1870454070 448170266 -1790127942 155250176 -681505517 -756824055 92479248 -159690632 1122820780 -1838832074 851456199 1131174576 -1818831800 456555724 -1720241716 1868173550 1651481122 -1088804939 2025037723 1180801710 -1710477030 -281078834 1639062705 1110758726 -1008584129
REM
CELL 1.54180   50.00000   50.00000   50.00000   90.00000   90.00000   90.00000
LATT -1
SFAC C  
C      1  0.5536720000000  0.4350320000000  0.5355710000000 1.0
C      1  0.4546590000000  0.4671290000000  0.4566710000000 1.0
C      1  0.3919270000000  0.5613700000000  0.4957140000000 1.0
C      1  0.4252820000000  0.5153990000000  0.4036700000000 1.0
C      1  0.6085550000000  0.4515210000000  0.4534630000000 1.0
C      1  0.3991390000000  0.4531360000000  0.5069160000000 1.0
C      1  0.5727550000000  0.4673400000000  0.4016360000000 1.0
C      1  0.4904230000000  0.5914410000000  0.5513400000000 1.0
C      1  0.4481480000000  0.4860790000000  0.6206940000000 1.0
C      1  0.5201980000000  0.4669360000000  0.5400460000000 1.0
C      1  0.5667740000000  0.4912820000000  0.5313480000000 1.0
C      1  0.4333810000000  0.4967450000000  0.5089690000000 1.0
C      1  0.5250140000000  0.4120060000000  0.5645200000000 1.0
C      1  0.5369530000000  0.4920430000000  0.4462790000000 1.0
C      1  0.5183720000000  0.5557800000000  0.4741260000000 1.0
C      1  0.5045150000000  0.4305830000000  0.6045660000000 1.0
C      1  0.4985530000000  0.5440320000000  0.6656840000000 1.0
C      1  0.5140660000000  0.5637760000000  0.3975880000000 1.0
C      1  0.4698700000000  0.5618560000000  0.4428340000000 1.0
C      1  0.4718910000000  0.4122020000000  0.5651520000000 1.0
C      1  0.3867410000000  0.4919560000000  0.4684160000000 1.0
C      1  0.6026040000000  0.5024980000000  0.4567900000000 1.0
C      1  0.3627610000000  0.5340820000000  0.5232690000000 1.0
C      1  0.4200700000000  0.5306330000000  0.4483750000000 1.0
C      1  0.5934710000000  0.5852200000000  0.4372060000000 1.0
C      1  0.4464290000000  0.6353570000000  0.4953950000000 1.0
C      1  0.4324010000000  0.5903280000000  0.5145220000000 1.0
C      1  0.5214180000000  0.5457430000000  0.5673010000000 1.0
C      1  0.5607530000000  0.5456180000000  0.4101200000000 1.0
C      1  0.5564960000000  0.4582310000000  0.5848560000000 1.0
C      1  0.4268360000000  0.4181580000000  0.5295040000000 1.0
C      1  0.4721880000000  0.4819140000000  0.6367080000000 1.0
C      1  0.5282750000000  0.5081270000000  0.5147210000000 1.0
C      1  0.4492170000000  0.4111080000000  0.4722730000000 1.0
C      1  0.6094220000000  0.4661330000000  0.4962340000000 1.0
C      1  0.5022750000000  0.5380900000000  0.3878420000000 1.0
C      1  0.5123490000000  0.5268620000000  0.5249360000000 1.0
C      1  0.4101290000000  0.5564080000000  0.4505480000000 1.0
C      1  0.4852460000000  0.5112660000000  0.4295730000000 1.0
C      1  0.5168320000000  0.5934140000000  0.5373960000000 1.0
C      1  0.4911180000000  0.6388310000000  0.4736990000000 1.0
C      1  0.5918940000000  0.4440280000000  0.5051440000000 1.0
C      1  0.4723640000000  0.4297830000000  0.5144700000000 1.0
C      1  0.5894650000000  0.4315410000000  0.4595620000000 1.0
C      1  0.4097600000000  0.5131490000000  0.4278280000000 1.0
C      1  0.5192980000000  0.5310790000000  0.6551900000000 1.0
C      1  0.4582000000000  0.5779580000000  0.5163760000000 1.0
C      1  0.4465800000000  0.4927040000000  0.4511670000000 1.0
C      1  0.4980590000000  0.4067390000000  0.4684200000000 1.0
C      1  0.5219120000000  0.4495070000000  0.4922750000000 1.0
C      1  0.4971620000000  0.5852220000000  0.4081580000000 1.0
C      1  0.4454110000000  0.4731420000000  0.5951090000000 1.0
C      1  0.4725620000000  0.5497480000000  0.6665950000000 1.0
C      1  0.5809710000000  0.5115510000000  0.5192620000000 1.0
C      1  0.5222190000000  0.5169170000000  0.3901860000000 1.0
C      1  0.5422290000000  0.5689400000000  0.4111770000000 1.0
C      1  0.5136700000000  0.6037140000000  0.4225070000000 1.0
C      1  0.5384450000000  0.4888780000000  0.5320330000000 1.0
C      1  0.5160070000000  0.4324870000000  0.4656680000000 1.0
C      1  0.4945270000000  0.4709000000000  0.4978470000000 1.0
C      1  0.4533630000000  0.4095990000000  0.5252010000000 1.0
C      1  0.6031100000000  0.5247410000000  0.4751830000000 1.0
C      1  0.5374190000000  0.5235220000000  0.6083560000000 1.0
C      1  0.4659630000000  0.5778930000000  0.4662480000000 1.0
C      1  0.4753700000000  0.5154370000000  0.4960580000000 1.0
C      1  0.4846130000000  0.5265210000000  0.5199360000000 1.0
C      1  0.4648070000000  0.6293400000000  0.4749260000000 1.0
C      1  0.4490490000000  0.4281740000000  0.5733270000000 1.0
C      1  0.5033830000000  0.5670750000000  0.4955400000000 1.0
C      1  0.5998250000000  0.5513060000000  0.4667330000000 1.0
C      1  0.3791220000000  0.5158590000000  0.4816250000000 1.0
C      1  0.4979420000000  0.4238560000000  0.5547050000000 1.0
C      1  0.5775140000000  0.4762000000000  0.5716500000000 1.0
C      1  0.5453110000000  0.5995860000000  0.5313520000000 1.0
C      1  0.3944890000000  0.4645950000000  0.4293590000000 1.0
C      1  0.3971110000000  0.4389470000000  0.4368990000000 1.0
C      1  0.4317380000000  0.5289430000000  0.6440900000000 1.0
C      1  0.5177130000000  0.5267250000000  0.5879390000000 1.0
C      1  0.5704300000000  0.4451890000000  0.4185160000000 1.0
C      1  0.5670550000000  0.4322270000000  0.4428250000000 1.0
C      1  0.4673580000000  0.5729840000000  0.5438110000000 1.0
C      1  0.4381810000000  0.5162050000000  0.4646100000000 1.0
C      1  0.5297010000000  0.4182910000000  0.4043130000000 1.0
C      1  0.4249630000000  0.4309950000000  0.5556190000000 1.0
C      1  0.5933590000000  0.5096670000000  0.4293510000000 1.0
C      1  0.3950390000000  0.5687960000000  0.4687460000000 1.0
C      1  0.4672620000000  0.4130080000000  0.4259310000000 1.0
C      1  0.6081820000000  0.4758670000000  0.4683290000000 1.0
C      1  0.5205590000000  0.5485730000000  0.5393160000000 1.0
C      1  0.4714040000000  0.4051400000000  0.4538540000000 1.0
C      1  0.4995600000000  0.4252430000000  0.5250880000000 1.0
C      1  0.4089530000000  0.5748620000000  0.5135190000000 1.0
C      1  0.4726950000000  0.5771410000000  0.4190140000000 1.0
C      1  0.4668720000000  0.4310200000000  0.4029340000000 1.0
C      1  0.4311980000000  0.5066540000000  0.6293830000000 1.0
C      1  0.5226840000000  0.5034020000000  0.4881450000000 1.0
C      1  0.5302670000000  0.5151620000000  0.6353460000000 1.0
C      1  0.5476140000000  0.6136670000000  0.5057610000000 1.0
C      1  0.4898970000000  0.4531910000000  0.5908060000000 1.0
C      1  0.5158250000000  0.4378470000000  0.3889100000000 1.0
C      1  0.4592370000000  0.4481500000000  0.5920090000000 1.0
C      1  0.5425890000000  0.4193410000000  0.4542290000000 1.0
C      1  0.5365550000000  0.3959000000000  0.5040800000000 1.0
C      1  0.5842860000000  0.5314300000000  0.5673670000000 1.0
C      1  0.4963590000000  0.4553350000000  0.5607150000000 1.0
C      1  0.4540470000000  0.4805920000000  0.3899270000000 1.0
C      1  0.3895190000000  0.4685810000000  0.4849230000000 1.0
C      1  0.4520740000000  0.4550660000000  0.3987870000000 1.0
C      1  0.4607670000000  0.4322420000000  0.4875550000000 1.0
C      1  0.4595160000000  0.6050680000000  0.4615350000000 1.0
C      1  0.5813570000000  0.4709290000000  0.5441240000000 1.0
C      1  0.4476810000000  0.5448270000000  0.6584160000000 1.0
C      1  0.6303390000000  0.4741400000000  0.5122840000000 1.0
C      1  0.5170300000000  0.6325020000000  0.4733480000000 1.0
C      1  0.6122870000000  0.5354350000000  0.5702950000000 1.0
C      1  0.3872760000000  0.4541390000000  0.5771240000000 1.0
C      1  0.5187740000000  0.4095830000000  0.5938070000000 1.0
C      1  0.5040850000000  0.4528120000000  0.4468800000000 1.0
C      1  0.5416960000000  0.4895160000000  0.4732190000000 1.0
C      1  0.5253510000000  0.4651550000000  0.3838340000000 1.0
C      1  0.4771910000000  0.5346340000000  0.4403470000000 1.0
C      1  0.4160030000000  0.4939690000000  0.5315440000000 1.0
C      1  0.4322660000000  0.6182770000000  0.5106720000000 1.0
C      1  0.5475300000000  0.4342150000000  0.5652110000000 1.0
C      1  0.5877750000000  0.4893360000000  0.4104980000000 1.0
C      1  0.5365430000000  0.5187430000000  0.4374760000000 1.0
C      1  0.6381960000000  0.5380890000000  0.5711490000000 1.0
C      1  0.5422600000000  0.5235090000000  0.4098210000000 1.0
C      1  0.5819200000000  0.4244160000000  0.4864550000000 1.0
C      1  0.4574850000000  0.5465280000000  0.5540210000000 1.0
C      1  0.4202380000000  0.4147900000000  0.4779000000000 1.0
C      1  0.4046540000000  0.4513140000000  0.5562560000000 1.0
C      1  0.5003380000000  0.5038770000000  0.5830120000000 1.0
C      1  0.5865340000000  0.5730170000000  0.4815840000000 1.0
C      1  0.5118880000000  0.3904190000000  0.4886690000000 1.0
C      1  0.5781010000000  0.5922600000000  0.4606750000000 1.0
C      1  0.4751030000000  0.5727220000000  0.4929570000000 1.0
C      1  0.4736990000000  0.5279490000000  0.3859320000000 1.0
C      1  0.5120800000000  0.4897280000000  0.3919240000000 1.0
C      1  0.4491660000000  0.4572760000000  0.4819880000000 1.0
C      1  0.4466820000000  0.5157580000000  0.4916690000000 1.0
C      1  0.5260140000000  0.4416040000000  0.5211840000000 1.0
C      1  0.4123830000000  0.4265470000000  0.5049340000000 1.0
C      1  0.5166170000000  0.4753780000000  0.4361900000000 1.0
C      1  0.5863910000000  0.5378000000000  0.4223090000000 1.0
C      1  0.5808840000000  0.5737980000000  0.5091200000000 1.0
C      1  0.5276100000000  0.4854690000000  0.6319110000000 1.0
C      1  0.4472350000000  0.4724290000000  0.5053700000000 1.0
C      1  0.3946870000000  0.4908630000000  0.4399530000000 1.0
C      1  0.4855060000000  0.5028360000000  0.5589420000000 1.0
C      1  0.5573230000000  0.5043520000000  0.6007230000000 1.0
C      1  0.4329080000000  0.5319880000000  0.5606330000000 1.0
C      1  0.4725240000000  0.4755970000000  0.5509670000000 1.0
C      1  0.4743010000000  0.5250060000000  0.5457310000000 1.0
C      1  0.5659380000000  0.5767260000000  0.5339150000000 1.0
C      1  0.5472890000000  0.4767400000000  0.6089840000000 1.0
C      1  0.3777730000000  0.5369930000000  0.5005620000000 1.0
C      1  0.4277890000000  0.5034660000000  0.5560950000000 1.0
C      1  0.4444960000000  0.4827500000000  0.5677630000000 1.0
C      1  0.4028130000000  0.4675570000000  0.5323450000000 1.0
C      1  0.5392870000000  0.5924780000000  0.4308570000000 1.0
C      1  0.4947370000000  0.4961100000000  0.4865640000000 1.0
C      1  0.5996070000000  0.5572970000000  0.4380380000000 1.0
C      1  0.4999800000000  0.4896510000000  0.4180640000000 1.0
C      1  0.4974510000000  0.4806180000000  0.5994620000000 1.0
C      1  0.5324680000000  0.4062210000000  0.4285010000000 1.0
C      1  0.4992320000000  0.4811650000000  0.6278850000000 1.0
C      1  0.4762850000000  0.4548370000000  0.4446360000000 1.0
C      1  0.4040690000000  0.4207170000000  0.4553020000000 1.0
C      1  0.5708580000000  0.5545800000000  0.5536870000000 1.0
C      1  0.5393170000000  0.6159740000000  0.4781930000000 1.0
C      1  0.5990750000000  0.5201180000000  0.5021880000000 1.0
C      1  0.5514560000000  0.6009650000000  0.4563090000000 1.0
C      1  0.4890130000000  0.4302890000000  0.3852980000000 1.0
C      1  0.4709620000000  0.4648570000000  0.5213230000000 1.0
C      1  0.5788320000000  0.4466800000000  0.5299730000000 1.0
C      1  0.5294760000000  0.5399230000000  0.4553910000000 1.0
C      1  0.5464360000000  0.4644230000000  0.4839220000000 1.0
C      1  0.5568760000000  0.4091600000000  0.4869250000000 1.0
C      1  0.4508200000000  0.5091280000000  0.3915190000000 1.0
C      1  0.5344220000000  0.3947950000000  0.5342930000000 1.0
C      1  0.5752690000000  0.5052540000000  0.5787500000000 1.0
C      1  0.5147910000000  0.5700000000000  0.5212580000000 1.0
C      1  0.5535060000000  0.4681980000000  0.3811090000000 1.0
END
