TITL C-627106-156-1173 -107838.350335814 125000 -1196.83401605433 0 0 198 (C1) n - 1
REM
REM in /home/nfs/bkarasulu/CARBON/AIRSS/Generating-Clusters/LCBOP/Only-C1/SD-CG/FIRE-CG
REM
REM
REM
REM
REM
REM ./C.cell (11c1c37f851c82e70ff6c80c92926a4b)
REM AIRSS Version 0.9.1 bugfix July 2018 build 013d7b7c2542+ Fri, 06 Jul 2018 19:26:36 +0100
REM compiler GCC version 9.2.1 20190827 (Red Hat 9.2.1-1)
REM options -cpp -mtune=generic -march=x86-64 -g -O0 -fpre-include=/usr/include/finclude/math-vector-fortran.h
REM seed 92267067 -60352835 1571843080 -1127668340 -1802295121 -1777667099 562132797 -132579818 -1287216331 357088572 -756572518 1107680239 1893538781 -2001731547 1542794762 137126928 1153181536 -904649097 758687603 1043476932 -171232452 -1515736495 -490561735 -891839486 362742087 109391619 -357217986 -1332872883 -2117499863 -663113106 -1654487728 -1466875570 -1857162417
REM
CELL 1.54180   50.00000   50.00000   50.00000   90.00000   90.00000   90.00000
LATT -1
SFAC C  
C      1  0.5168540000000  0.5152820000000  0.5183800000000 1.0
C      1  0.4508820000000  0.4810420000000  0.4163120000000 1.0
C      1  0.6185930000000  0.4077760000000  0.4827960000000 1.0
C      1  0.3625270000000  0.5309530000000  0.4688490000000 1.0
C      1  0.3927680000000  0.5016250000000  0.5631680000000 1.0
C      1  0.5649670000000  0.4973170000000  0.4080260000000 1.0
C      1  0.4760880000000  0.5757040000000  0.5379390000000 1.0
C      1  0.5459720000000  0.4620860000000  0.4992190000000 1.0
C      1  0.5142840000000  0.6111030000000  0.4841930000000 1.0
C      1  0.4852990000000  0.4475310000000  0.4065590000000 1.0
C      1  0.3827310000000  0.5714550000000  0.4515750000000 1.0
C      1  0.5604510000000  0.4863880000000  0.4333920000000 1.0
C      1  0.5034750000000  0.3937490000000  0.5081270000000 1.0
C      1  0.3809430000000  0.5079480000000  0.5360160000000 1.0
C      1  0.5239660000000  0.4760510000000  0.4613290000000 1.0
C      1  0.5666780000000  0.5738520000000  0.4429050000000 1.0
C      1  0.3975850000000  0.5254470000000  0.4377860000000 1.0
C      1  0.4170970000000  0.4061180000000  0.5515120000000 1.0
C      1  0.4803840000000  0.5466020000000  0.6136190000000 1.0
C      1  0.5644180000000  0.5526770000000  0.5477420000000 1.0
C      1  0.5956010000000  0.4756220000000  0.5763600000000 1.0
C      1  0.6209800000000  0.5686950000000  0.4715240000000 1.0
C      1  0.5418220000000  0.5002340000000  0.4526440000000 1.0
C      1  0.4519660000000  0.5826310000000  0.5520010000000 1.0
C      1  0.5250850000000  0.5515670000000  0.3719990000000 1.0
C      1  0.5206670000000  0.5153650000000  0.4353510000000 1.0
C      1  0.3882300000000  0.5668670000000  0.5218470000000 1.0
C      1  0.5017800000000  0.5036700000000  0.3845150000000 1.0
C      1  0.4261960000000  0.5369440000000  0.5351860000000 1.0
C      1  0.5949130000000  0.4108070000000  0.4932350000000 1.0
C      1  0.5672250000000  0.5018800000000  0.5291370000000 1.0
C      1  0.5418060000000  0.4300820000000  0.5915130000000 1.0
C      1  0.4781780000000  0.4504140000000  0.4737460000000 1.0
C      1  0.5141400000000  0.5718640000000  0.3565820000000 1.0
C      1  0.5200940000000  0.5275390000000  0.5719490000000 1.0
C      1  0.4849480000000  0.4808690000000  0.5762720000000 1.0
C      1  0.5090980000000  0.3836000000000  0.5661710000000 1.0
C      1  0.4561930000000  0.3880340000000  0.4900650000000 1.0
C      1  0.5510320000000  0.5555680000000  0.4823950000000 1.0
C      1  0.4631920000000  0.6111460000000  0.4802040000000 1.0
C      1  0.4300710000000  0.6086750000000  0.5186360000000 1.0
C      1  0.5479080000000  0.3968410000000  0.4990980000000 1.0
C      1  0.4564370000000  0.4410370000000  0.6104170000000 1.0
C      1  0.4800290000000  0.5277150000000  0.4747230000000 1.0
C      1  0.6159300000000  0.4642320000000  0.4455490000000 1.0
C      1  0.6169990000000  0.5217780000000  0.4996950000000 1.0
C      1  0.4877360000000  0.5854160000000  0.5828950000000 1.0
C      1  0.4328490000000  0.4640340000000  0.4729450000000 1.0
C      1  0.4935450000000  0.3666270000000  0.5783500000000 1.0
C      1  0.4957130000000  0.4904430000000  0.4314350000000 1.0
C      1  0.5424550000000  0.5856700000000  0.5950520000000 1.0
C      1  0.5036210000000  0.3906480000000  0.4790080000000 1.0
C      1  0.5660740000000  0.4306440000000  0.5281930000000 1.0
C      1  0.6228270000000  0.5014220000000  0.4830470000000 1.0
C      1  0.5229410000000  0.5873020000000  0.4449220000000 1.0
C      1  0.4873260000000  0.4367880000000  0.4948100000000 1.0
C      1  0.4957260000000  0.4203590000000  0.5159740000000 1.0
C      1  0.6037300000000  0.5255880000000  0.4196060000000 1.0
C      1  0.4569860000000  0.4555300000000  0.4061460000000 1.0
C      1  0.5275000000000  0.5542170000000  0.4937050000000 1.0
C      1  0.4285620000000  0.4468640000000  0.5272780000000 1.0
C      1  0.6280940000000  0.5557530000000  0.4493270000000 1.0
C      1  0.5806110000000  0.5319490000000  0.3783750000000 1.0
C      1  0.3919010000000  0.4523610000000  0.5527200000000 1.0
C      1  0.5241360000000  0.4730270000000  0.6194650000000 1.0
C      1  0.3825020000000  0.4579770000000  0.5256590000000 1.0
C      1  0.5618250000000  0.4993850000000  0.4774200000000 1.0
C      1  0.5635920000000  0.5075100000000  0.5565730000000 1.0
C      1  0.5546940000000  0.3925530000000  0.4305770000000 1.0
C      1  0.4819170000000  0.5177620000000  0.3974270000000 1.0
C      1  0.4453720000000  0.5475810000000  0.4187330000000 1.0
C      1  0.4052680000000  0.4746620000000  0.4329680000000 1.0
C      1  0.6046050000000  0.5691140000000  0.4943750000000 1.0
C      1  0.4336720000000  0.4978930000000  0.5943850000000 1.0
C      1  0.4239290000000  0.4877060000000  0.4146320000000 1.0
C      1  0.5657010000000  0.5094960000000  0.5033340000000 1.0
C      1  0.4686440000000  0.5332610000000  0.5627820000000 1.0
C      1  0.4199170000000  0.5365230000000  0.4242010000000 1.0
C      1  0.4249080000000  0.4368840000000  0.4778480000000 1.0
C      1  0.4839880000000  0.5033390000000  0.4886620000000 1.0
C      1  0.5964860000000  0.4241190000000  0.5665400000000 1.0
C      1  0.4413680000000  0.4947750000000  0.5519730000000 1.0
C      1  0.4684440000000  0.5476710000000  0.4919000000000 1.0
C      1  0.6134750000000  0.4031380000000  0.5702790000000 1.0
C      1  0.4171400000000  0.4803450000000  0.4895720000000 1.0
C      1  0.4395380000000  0.4345520000000  0.4177910000000 1.0
C      1  0.5006100000000  0.4013610000000  0.3945650000000 1.0
C      1  0.3915320000000  0.5860020000000  0.4738760000000 1.0
C      1  0.5224550000000  0.4748650000000  0.4891640000000 1.0
C      1  0.6009750000000  0.5381620000000  0.6100180000000 1.0
C      1  0.3929300000000  0.4976130000000  0.4491770000000 1.0
C      1  0.4673990000000  0.4344910000000  0.5612120000000 1.0
C      1  0.4957000000000  0.5761640000000  0.3990790000000 1.0
C      1  0.5148220000000  0.5526290000000  0.3992790000000 1.0
C      1  0.5474300000000  0.4146340000000  0.5681790000000 1.0
C      1  0.5071230000000  0.4714060000000  0.5615870000000 1.0
C      1  0.4800880000000  0.5846820000000  0.4213620000000 1.0
C      1  0.4643220000000  0.4904840000000  0.5037440000000 1.0
C      1  0.4532350000000  0.5749160000000  0.4213470000000 1.0
C      1  0.5406840000000  0.5220420000000  0.6314490000000 1.0
C      1  0.5301440000000  0.3895600000000  0.5214350000000 1.0
C      1  0.4656830000000  0.4985250000000  0.5936160000000 1.0
C      1  0.4318670000000  0.4770240000000  0.5319580000000 1.0
C      1  0.5869840000000  0.4485450000000  0.4049680000000 1.0
C      1  0.4738500000000  0.4709640000000  0.5225420000000 1.0
C      1  0.4350750000000  0.4953920000000  0.5071830000000 1.0
C      1  0.4301300000000  0.4512890000000  0.6086810000000 1.0
C      1  0.5094670000000  0.4971450000000  0.4991560000000 1.0
C      1  0.5091000000000  0.5714060000000  0.5048950000000 1.0
C      1  0.4612160000000  0.5521670000000  0.6324020000000 1.0
C      1  0.4588510000000  0.5879500000000  0.5791450000000 1.0
C      1  0.4788090000000  0.5304190000000  0.4468430000000 1.0
C      1  0.4977400000000  0.5679450000000  0.6034480000000 1.0
C      1  0.4295970000000  0.5858680000000  0.5360910000000 1.0
C      1  0.5651240000000  0.3773450000000  0.4121650000000 1.0
C      1  0.5932830000000  0.4525640000000  0.4329360000000 1.0
C      1  0.4288980000000  0.5250820000000  0.5091180000000 1.0
C      1  0.4651990000000  0.3955000000000  0.4440420000000 1.0
C      1  0.4973090000000  0.5889950000000  0.5547920000000 1.0
C      1  0.4760890000000  0.3893670000000  0.4693100000000 1.0
C      1  0.4854020000000  0.5574110000000  0.5153320000000 1.0
C      1  0.5713360000000  0.4211190000000  0.5541950000000 1.0
C      1  0.4704550000000  0.4515980000000  0.5408710000000 1.0
C      1  0.5099420000000  0.4273130000000  0.5401890000000 1.0
C      1  0.4143520000000  0.4442000000000  0.4319180000000 1.0
C      1  0.4393360000000  0.4011010000000  0.5083990000000 1.0
C      1  0.5254840000000  0.4904410000000  0.3804320000000 1.0
C      1  0.6236050000000  0.4821850000000  0.4642170000000 1.0
C      1  0.6027440000000  0.4501830000000  0.5744990000000 1.0
C      1  0.5256600000000  0.4025450000000  0.5503330000000 1.0
C      1  0.4685160000000  0.5304910000000  0.4200320000000 1.0
C      1  0.4119800000000  0.5158370000000  0.5821540000000 1.0
C      1  0.3738700000000  0.5073140000000  0.4785540000000 1.0
C      1  0.5828790000000  0.5184750000000  0.4021530000000 1.0
C      1  0.5038740000000  0.4629450000000  0.4219160000000 1.0
C      1  0.6279290000000  0.5366870000000  0.4286910000000 1.0
C      1  0.5884490000000  0.5446610000000  0.5337680000000 1.0
C      1  0.5219790000000  0.4546600000000  0.4422750000000 1.0
C      1  0.5283380000000  0.5014480000000  0.6160530000000 1.0
C      1  0.4189180000000  0.4717830000000  0.5930160000000 1.0
C      1  0.4372450000000  0.6068080000000  0.4907830000000 1.0
C      1  0.5708780000000  0.5930420000000  0.5222410000000 1.0
C      1  0.4157300000000  0.6002030000000  0.4737890000000 1.0
C      1  0.5533840000000  0.5923060000000  0.5714060000000 1.0
C      1  0.5365920000000  0.6005840000000  0.4683650000000 1.0
C      1  0.6047930000000  0.5451390000000  0.5105960000000 1.0
C      1  0.4761210000000  0.4514210000000  0.6277720000000 1.0
C      1  0.3781810000000  0.5440340000000  0.4489070000000 1.0
C      1  0.4404990000000  0.5441020000000  0.4917900000000 1.0
C      1  0.4443000000000  0.5233720000000  0.5528690000000 1.0
C      1  0.5816880000000  0.5869790000000  0.4959000000000 1.0
C      1  0.5622690000000  0.5822400000000  0.4728600000000 1.0
C      1  0.5452060000000  0.4379610000000  0.4446280000000 1.0
C      1  0.5614360000000  0.5811240000000  0.5468700000000 1.0
C      1  0.5703300000000  0.4128750000000  0.5060260000000 1.0
C      1  0.4232860000000  0.6332600000000  0.5288460000000 1.0
C      1  0.5824960000000  0.5002110000000  0.5765370000000 1.0
C      1  0.4948350000000  0.5943690000000  0.4437310000000 1.0
C      1  0.5904270000000  0.5192060000000  0.5955650000000 1.0
C      1  0.5224160000000  0.4533760000000  0.5435800000000 1.0
C      1  0.4995920000000  0.4640960000000  0.6308600000000 1.0
C      1  0.4650860000000  0.4280920000000  0.5869860000000 1.0
C      1  0.5372360000000  0.5488410000000  0.6275940000000 1.0
C      1  0.4843090000000  0.5196240000000  0.6042010000000 1.0
C      1  0.5258470000000  0.5687170000000  0.6105360000000 1.0
C      1  0.4999760000000  0.5345100000000  0.5292720000000 1.0
C      1  0.4962800000000  0.5333190000000  0.5566410000000 1.0
C      1  0.4130390000000  0.5627030000000  0.5344480000000 1.0
C      1  0.3807440000000  0.5787950000000  0.4990060000000 1.0
C      1  0.5862460000000  0.5819190000000  0.4261020000000 1.0
C      1  0.5122440000000  0.5144950000000  0.5963990000000 1.0
C      1  0.4132840000000  0.4337950000000  0.5488420000000 1.0
C      1  0.4095690000000  0.4286300000000  0.4557530000000 1.0
C      1  0.5438210000000  0.4098490000000  0.4497560000000 1.0
C      1  0.4966790000000  0.5868120000000  0.3720770000000 1.0
C      1  0.5678430000000  0.4572840000000  0.3870160000000 1.0
C      1  0.4295770000000  0.3907450000000  0.5328910000000 1.0
C      1  0.4596320000000  0.4122410000000  0.4221280000000 1.0
C      1  0.5259420000000  0.5422560000000  0.4237710000000 1.0
C      1  0.5323570000000  0.3979740000000  0.4733260000000 1.0
C      1  0.3916800000000  0.4746640000000  0.5041770000000 1.0
C      1  0.5387470000000  0.4525310000000  0.6061310000000 1.0
C      1  0.5132060000000  0.5992440000000  0.5099180000000 1.0
C      1  0.5664720000000  0.4690830000000  0.4785050000000 1.0
C      1  0.5519170000000  0.4816190000000  0.3874470000000 1.0
C      1  0.4593690000000  0.4681800000000  0.4620680000000 1.0
C      1  0.3971170000000  0.4730270000000  0.5720150000000 1.0
C      1  0.5124880000000  0.6057020000000  0.5374560000000 1.0
C      1  0.4838670000000  0.4188000000000  0.4068540000000 1.0
C      1  0.4672870000000  0.4854210000000  0.4395980000000 1.0
C      1  0.5466130000000  0.4519440000000  0.5254770000000 1.0
C      1  0.5680060000000  0.4586100000000  0.4483550000000 1.0
C      1  0.5393300000000  0.5653110000000  0.4353250000000 1.0
C      1  0.3784010000000  0.5005970000000  0.5064500000000 1.0
C      1  0.4888510000000  0.6087500000000  0.4685510000000 1.0
C      1  0.6515430000000  0.5289030000000  0.4172200000000 1.0
C      1  0.4316430000000  0.4285740000000  0.5039770000000 1.0
C      1  0.5474840000000  0.5315670000000  0.5609020000000 1.0
END
