TITL C-627107-135-774 3.85162620788309e-07 125000 -1094.73460263029 0 0 179 (C1) n - 1
REM
REM in /home/nfs/bkarasulu/CARBON/AIRSS/Generating-Clusters/LCBOP/Only-C1/SD-CG/FIRE-CG
REM
REM
REM
REM
REM
REM ./C.cell (11c1c37f851c82e70ff6c80c92926a4b)
REM AIRSS Version 0.9.1 bugfix July 2018 build 013d7b7c2542+ Fri, 06 Jul 2018 19:26:36 +0100
REM compiler GCC version 9.2.1 20190827 (Red Hat 9.2.1-1)
REM options -cpp -mtune=generic -march=x86-64 -g -O0 -fpre-include=/usr/include/finclude/math-vector-fortran.h
REM seed -1855313064 945277060 1199165336 1481867734 1119562512 -705477558 -1370995068 1974185525 1640466325 704344571 -315285212 -124192707 -1909695641 -939065165 614191736 286615694 1734191183 426144499 -497533499 1939280848 1926778238 -2145606463 240596641 2001274235 1638358724 1333638462 -823261360 -252878043 -2045714604 -1019194208 -1617868199 -2062492727 -607713547
REM
CELL 1.54180   50.00000   50.00000   50.00000   90.00000   90.00000   90.00000
LATT -1
SFAC C  
C      1  0.4431010000000  0.3970410000000  0.4954680000000 1.0
C      1  0.4464210000000  0.4124220000000  0.4711410000000 1.0
C      1  0.5377330000000  0.4253250000000  0.4230470000000 1.0
C      1  0.5054900000000  0.4589500000000  0.5479790000000 1.0
C      1  0.4093250000000  0.5989620000000  0.4625320000000 1.0
C      1  0.4203630000000  0.5023100000000  0.4791690000000 1.0
C      1  0.5556470000000  0.3972810000000  0.4630570000000 1.0
C      1  0.4540220000000  0.4419510000000  0.4755000000000 1.0
C      1  0.4345000000000  0.4002660000000  0.5514530000000 1.0
C      1  0.5655070000000  0.5366870000000  0.4934450000000 1.0
C      1  0.5166610000000  0.5043260000000  0.5297190000000 1.0
C      1  0.4742770000000  0.4854610000000  0.4051640000000 1.0
C      1  0.6108910000000  0.5121200000000  0.5041770000000 1.0
C      1  0.4979730000000  0.5452170000000  0.6125300000000 1.0
C      1  0.6437210000000  0.4909270000000  0.5342590000000 1.0
C      1  0.5711720000000  0.5124900000000  0.5937440000000 1.0
C      1  0.4854490000000  0.4419060000000  0.4769950000000 1.0
C      1  0.4573780000000  0.4929680000000  0.5789960000000 1.0
C      1  0.4498750000000  0.5027440000000  0.6044920000000 1.0
C      1  0.4753030000000  0.5715300000000  0.5710480000000 1.0
C      1  0.4937020000000  0.4317300000000  0.5026530000000 1.0
C      1  0.4904100000000  0.4847230000000  0.4288280000000 1.0
C      1  0.5008710000000  0.4513530000000  0.5203430000000 1.0
C      1  0.4670960000000  0.4102000000000  0.4237950000000 1.0
C      1  0.5521080000000  0.5236880000000  0.3911940000000 1.0
C      1  0.5299030000000  0.4587660000000  0.5881130000000 1.0
C      1  0.4938640000000  0.5610570000000  0.5270750000000 1.0
C      1  0.4634380000000  0.5384870000000  0.4045610000000 1.0
C      1  0.4086080000000  0.4122330000000  0.5572230000000 1.0
C      1  0.5481720000000  0.4439350000000  0.4903590000000 1.0
C      1  0.5230520000000  0.5298590000000  0.4676360000000 1.0
C      1  0.4756490000000  0.5643500000000  0.4025140000000 1.0
C      1  0.5906270000000  0.5332080000000  0.5069610000000 1.0
C      1  0.4373260000000  0.4054270000000  0.5222620000000 1.0
C      1  0.4026790000000  0.4485900000000  0.4199490000000 1.0
C      1  0.5609350000000  0.4970010000000  0.3896220000000 1.0
C      1  0.5666110000000  0.5373000000000  0.5755870000000 1.0
C      1  0.5523880000000  0.4104360000000  0.4398230000000 1.0
C      1  0.4664880000000  0.5934560000000  0.4711110000000 1.0
C      1  0.4649850000000  0.4329510000000  0.4063870000000 1.0
C      1  0.5077700000000  0.4523260000000  0.4603710000000 1.0
C      1  0.3843970000000  0.4421820000000  0.4025090000000 1.0
C      1  0.5431220000000  0.5381440000000  0.5543830000000 1.0
C      1  0.5900840000000  0.5769810000000  0.5225910000000 1.0
C      1  0.5576590000000  0.5420280000000  0.4104670000000 1.0
C      1  0.6279750000000  0.5102640000000  0.4009670000000 1.0
C      1  0.4904350000000  0.3946240000000  0.4281560000000 1.0
C      1  0.5944280000000  0.4582030000000  0.5666890000000 1.0
C      1  0.5211050000000  0.4026410000000  0.5308450000000 1.0
C      1  0.5661490000000  0.4753260000000  0.4307950000000 1.0
C      1  0.3852990000000  0.4704570000000  0.4887510000000 1.0
C      1  0.4976980000000  0.4055610000000  0.5128470000000 1.0
C      1  0.5788720000000  0.4914530000000  0.4116190000000 1.0
C      1  0.5534340000000  0.4760530000000  0.4554810000000 1.0
C      1  0.5491150000000  0.5985060000000  0.5082520000000 1.0
C      1  0.5508330000000  0.5550660000000  0.5980670000000 1.0
C      1  0.4962340000000  0.6050000000000  0.4233070000000 1.0
C      1  0.3860650000000  0.5007040000000  0.5401490000000 1.0
C      1  0.3686670000000  0.5104150000000  0.4138630000000 1.0
C      1  0.4646020000000  0.6354870000000  0.5321000000000 1.0
C      1  0.5041500000000  0.3820050000000  0.4476480000000 1.0
C      1  0.4746960000000  0.5871510000000  0.4203490000000 1.0
C      1  0.5904780000000  0.5091820000000  0.4617130000000 1.0
C      1  0.3845170000000  0.5556890000000  0.5075720000000 1.0
C      1  0.4480220000000  0.5553300000000  0.6043860000000 1.0
C      1  0.4520470000000  0.4755280000000  0.5565170000000 1.0
C      1  0.4858780000000  0.5036280000000  0.4495060000000 1.0
C      1  0.4232790000000  0.5308670000000  0.5740330000000 1.0
C      1  0.3736570000000  0.5242840000000  0.5434650000000 1.0
C      1  0.4905350000000  0.5191860000000  0.6246030000000 1.0
C      1  0.5051240000000  0.5043610000000  0.5786750000000 1.0
C      1  0.5706740000000  0.4563860000000  0.5019960000000 1.0
C      1  0.4269830000000  0.5531110000000  0.4687500000000 1.0
C      1  0.4569770000000  0.6077080000000  0.4936670000000 1.0
C      1  0.4967240000000  0.5684790000000  0.5020080000000 1.0
C      1  0.5929040000000  0.5498990000000  0.5306440000000 1.0
C      1  0.4792130000000  0.5090690000000  0.5687850000000 1.0
C      1  0.4400550000000  0.4483270000000  0.5024810000000 1.0
C      1  0.5223740000000  0.5248890000000  0.5718110000000 1.0
C      1  0.5049570000000  0.4606300000000  0.4331370000000 1.0
C      1  0.4854970000000  0.4693330000000  0.6070240000000 1.0
C      1  0.4090600000000  0.4908260000000  0.5266960000000 1.0
C      1  0.5229820000000  0.4408330000000  0.5655790000000 1.0
C      1  0.5257230000000  0.4812040000000  0.5447540000000 1.0
C      1  0.5345660000000  0.6126620000000  0.4888480000000 1.0
C      1  0.5669770000000  0.4882490000000  0.6043030000000 1.0
C      1  0.4775970000000  0.5483250000000  0.4611710000000 1.0
C      1  0.5677980000000  0.4939500000000  0.4725010000000 1.0
C      1  0.4399330000000  0.5946870000000  0.5399850000000 1.0
C      1  0.6220910000000  0.4628550000000  0.4433040000000 1.0
C      1  0.5931500000000  0.5332060000000  0.4460720000000 1.0
C      1  0.3866660000000  0.5359640000000  0.4875580000000 1.0
C      1  0.4567870000000  0.5851850000000  0.4435130000000 1.0
C      1  0.5398520000000  0.5668690000000  0.5458390000000 1.0
C      1  0.4337490000000  0.4932870000000  0.5408840000000 1.0
C      1  0.4371360000000  0.5279890000000  0.6007430000000 1.0
C      1  0.5195410000000  0.4129260000000  0.5583570000000 1.0
C      1  0.4428110000000  0.5394580000000  0.4243170000000 1.0
C      1  0.4758340000000  0.4163470000000  0.5840310000000 1.0
C      1  0.5986120000000  0.4464490000000  0.3983980000000 1.0
C      1  0.4761590000000  0.4458660000000  0.5879480000000 1.0
C      1  0.5685150000000  0.4852910000000  0.4997240000000 1.0
C      1  0.6050510000000  0.5007490000000  0.4090030000000 1.0
C      1  0.4397990000000  0.4615940000000  0.4573390000000 1.0
C      1  0.4766800000000  0.5595340000000  0.5986120000000 1.0
C      1  0.6010880000000  0.4350360000000  0.5549720000000 1.0
C      1  0.6191540000000  0.5019560000000  0.5297880000000 1.0
C      1  0.6211310000000  0.4726550000000  0.4702050000000 1.0
C      1  0.4671660000000  0.5285590000000  0.5517440000000 1.0
C      1  0.5353310000000  0.4567660000000  0.4685870000000 1.0
C      1  0.6064840000000  0.5757710000000  0.4644900000000 1.0
C      1  0.5212400000000  0.5069560000000  0.4841030000000 1.0
C      1  0.4049670000000  0.5765780000000  0.5050190000000 1.0
C      1  0.3803590000000  0.5502340000000  0.5354270000000 1.0
C      1  0.5303200000000  0.4591420000000  0.3895020000000 1.0
C      1  0.5906130000000  0.5339710000000  0.5552560000000 1.0
C      1  0.5392340000000  0.5929440000000  0.5346740000000 1.0
C      1  0.4538040000000  0.6123920000000  0.5217560000000 1.0
C      1  0.5779840000000  0.4526020000000  0.3816880000000 1.0
C      1  0.4157040000000  0.5779250000000  0.4788660000000 1.0
C      1  0.4974030000000  0.5297260000000  0.4536890000000 1.0
C      1  0.5457340000000  0.5457750000000  0.4742120000000 1.0
C      1  0.4650510000000  0.4590810000000  0.3983270000000 1.0
C      1  0.5548590000000  0.4701020000000  0.3804100000000 1.0
C      1  0.6169960000000  0.4528130000000  0.4898640000000 1.0
C      1  0.4057430000000  0.4869330000000  0.4985760000000 1.0
C      1  0.5598840000000  0.5641600000000  0.4572770000000 1.0
C      1  0.4800690000000  0.5534180000000  0.5495720000000 1.0
C      1  0.5098420000000  0.4793250000000  0.5929900000000 1.0
C      1  0.5124910000000  0.3800200000000  0.4745960000000 1.0
C      1  0.5827010000000  0.4821300000000  0.5577690000000 1.0
C      1  0.4678000000000  0.4971510000000  0.4708970000000 1.0
C      1  0.3662720000000  0.4580510000000  0.4759610000000 1.0
C      1  0.5222720000000  0.4474590000000  0.4140390000000 1.0
C      1  0.5250410000000  0.6184210000000  0.4646230000000 1.0
C      1  0.4934530000000  0.3838120000000  0.4952010000000 1.0
C      1  0.3515150000000  0.4494330000000  0.5396510000000 1.0
C      1  0.5413740000000  0.5205450000000  0.5296270000000 1.0
C      1  0.4737640000000  0.4952190000000  0.6197560000000 1.0
C      1  0.4021500000000  0.4328980000000  0.5381200000000 1.0
C      1  0.5958600000000  0.4439040000000  0.5060600000000 1.0
C      1  0.5005500000000  0.4031630000000  0.5775340000000 1.0
C      1  0.4498220000000  0.5547710000000  0.4490560000000 1.0
C      1  0.6129840000000  0.4996100000000  0.4777730000000 1.0
C      1  0.4474340000000  0.4052350000000  0.4438210000000 1.0
C      1  0.5794760000000  0.5805850000000  0.4728040000000 1.0
C      1  0.4755460000000  0.4577500000000  0.5596790000000 1.0
C      1  0.6007510000000  0.4285310000000  0.5289510000000 1.0
C      1  0.4416260000000  0.4886760000000  0.4662560000000 1.0
C      1  0.6136980000000  0.5519980000000  0.4530500000000 1.0
C      1  0.5257750000000  0.5537110000000  0.6096650000000 1.0
C      1  0.4502070000000  0.5867250000000  0.5665490000000 1.0
C      1  0.5135230000000  0.6155730000000  0.4407350000000 1.0
C      1  0.5542100000000  0.4647440000000  0.6008870000000 1.0
C      1  0.5037270000000  0.5023280000000  0.5053840000000 1.0
C      1  0.4247740000000  0.4324720000000  0.5199370000000 1.0
C      1  0.4150440000000  0.5830880000000  0.5313660000000 1.0
C      1  0.4695430000000  0.5120110000000  0.3954810000000 1.0
C      1  0.5745040000000  0.5877230000000  0.5007710000000 1.0
C      1  0.3991700000000  0.5666720000000  0.5499710000000 1.0
C      1  0.4218860000000  0.4542470000000  0.4373040000000 1.0
C      1  0.5392690000000  0.3871830000000  0.4836840000000 1.0
C      1  0.5416540000000  0.3924050000000  0.5124470000000 1.0
C      1  0.3768990000000  0.4440060000000  0.5371330000000 1.0
C      1  0.6136770000000  0.4507470000000  0.4205610000000 1.0
C      1  0.4386490000000  0.5212680000000  0.5506790000000 1.0
C      1  0.5561420000000  0.4817270000000  0.5456740000000 1.0
C      1  0.4174530000000  0.5290090000000  0.4193550000000 1.0
C      1  0.4774050000000  0.4985350000000  0.4973960000000 1.0
C      1  0.5604530000000  0.4997140000000  0.5224370000000 1.0
C      1  0.4120920000000  0.5293780000000  0.4758390000000 1.0
C      1  0.4535300000000  0.4035680000000  0.5718710000000 1.0
C      1  0.5700830000000  0.5476940000000  0.4351090000000 1.0
C      1  0.4837520000000  0.5709620000000  0.4779270000000 1.0
C      1  0.4121050000000  0.5576110000000  0.5728350000000 1.0
C      1  0.4321950000000  0.5738030000000  0.5861210000000 1.0
C      1  0.5995970000000  0.5055450000000  0.5511640000000 1.0
C      1  0.3931090000000  0.5193570000000  0.4153370000000 1.0
C      1  0.5293630000000  0.6136040000000  0.5497960000000 1.0
END
