TITL C-627106-156-999 1.75887210281474e-08 125000 -594.143052336092 0 0 97 (C1) n - 1
REM
REM in /home/nfs/bkarasulu/CARBON/AIRSS/Generating-Clusters/LCBOP/Only-C1/SD-CG/FIRE-CG
REM
REM
REM
REM
REM
REM ./C.cell (11c1c37f851c82e70ff6c80c92926a4b)
REM AIRSS Version 0.9.1 bugfix July 2018 build 013d7b7c2542+ Fri, 06 Jul 2018 19:26:36 +0100
REM compiler GCC version 9.2.1 20190827 (Red Hat 9.2.1-1)
REM options -cpp -mtune=generic -march=x86-64 -g -O0 -fpre-include=/usr/include/finclude/math-vector-fortran.h
REM seed 1006689793 -624901606 1376066714 1053804167 716644462 57145561 1034691036 -512758943 -756875946 686403570 -155369177 114926313 941793353 -359875746 485320574 -103341510 -1089570385 -1791062976 -1000097884 353090424 868151470 -388630487 303580427 -2077059665 1034144597 -2134838682 -1830455161 1555241430 1287221421 -375441568 -248842557 675141734 -894815654
REM
CELL 1.54180   50.00000   50.00000   50.00000   90.00000   90.00000   90.00000
LATT -1
SFAC C  
C      1  0.4992150000000  0.4387210000000  0.5834180000000 1.0
C      1  0.5478640000000  0.5462870000000  0.4241720000000 1.0
C      1  0.4537110000000  0.5489360000000  0.4753140000000 1.0
C      1  0.5118820000000  0.5125930000000  0.4641640000000 1.0
C      1  0.4205980000000  0.4674470000000  0.5168590000000 1.0
C      1  0.5164450000000  0.5771400000000  0.4817550000000 1.0
C      1  0.4592520000000  0.5244010000000  0.4914060000000 1.0
C      1  0.5455920000000  0.5106580000000  0.5290770000000 1.0
C      1  0.4289770000000  0.5664650000000  0.5187880000000 1.0
C      1  0.4677240000000  0.5031850000000  0.5317810000000 1.0
C      1  0.4891480000000  0.4409580000000  0.5558570000000 1.0
C      1  0.4888040000000  0.5185770000000  0.5883890000000 1.0
C      1  0.5240370000000  0.5349020000000  0.4107750000000 1.0
C      1  0.4056200000000  0.5045210000000  0.4850900000000 1.0
C      1  0.5834680000000  0.5110030000000  0.4742510000000 1.0
C      1  0.4517610000000  0.5806300000000  0.5154260000000 1.0
C      1  0.5298940000000  0.4804020000000  0.5948940000000 1.0
C      1  0.5392420000000  0.5697660000000  0.4397620000000 1.0
C      1  0.4116890000000  0.4946720000000  0.5113220000000 1.0
C      1  0.5111000000000  0.4682250000000  0.4922740000000 1.0
C      1  0.4767070000000  0.4335580000000  0.4435380000000 1.0
C      1  0.5691680000000  0.5638550000000  0.5251740000000 1.0
C      1  0.4558110000000  0.5158720000000  0.4192980000000 1.0
C      1  0.4756300000000  0.4152030000000  0.5059420000000 1.0
C      1  0.4576770000000  0.5023840000000  0.4701660000000 1.0
C      1  0.4310180000000  0.5310990000000  0.5712140000000 1.0
C      1  0.4905390000000  0.5290530000000  0.4537610000000 1.0
C      1  0.5411340000000  0.5687380000000  0.4685850000000 1.0
C      1  0.3989940000000  0.4943250000000  0.5728150000000 1.0
C      1  0.4659640000000  0.4624520000000  0.4940490000000 1.0
C      1  0.4969420000000  0.5761270000000  0.4591860000000 1.0
C      1  0.5465390000000  0.4080910000000  0.4780700000000 1.0
C      1  0.4132970000000  0.5128840000000  0.5589780000000 1.0
C      1  0.4591820000000  0.4907910000000  0.4071840000000 1.0
C      1  0.5170240000000  0.5071780000000  0.4085920000000 1.0
C      1  0.4996080000000  0.5546120000000  0.5563570000000 1.0
C      1  0.5066730000000  0.4805530000000  0.4130460000000 1.0
C      1  0.4557050000000  0.4243800000000  0.5250890000000 1.0
C      1  0.5733400000000  0.5043970000000  0.5195190000000 1.0
C      1  0.5026780000000  0.5360340000000  0.5096680000000 1.0
C      1  0.5876050000000  0.5223900000000  0.4487920000000 1.0
C      1  0.5580450000000  0.4696490000000  0.4923720000000 1.0
C      1  0.5382280000000  0.5004970000000  0.5769280000000 1.0
C      1  0.5070260000000  0.4850920000000  0.4700840000000 1.0
C      1  0.5498360000000  0.5439060000000  0.4771270000000 1.0
C      1  0.4895950000000  0.4635210000000  0.5099060000000 1.0
C      1  0.4514420000000  0.5461320000000  0.5625400000000 1.0
C      1  0.4664410000000  0.5150830000000  0.4455210000000 1.0
C      1  0.5346630000000  0.5290510000000  0.5790790000000 1.0
C      1  0.5592560000000  0.4173360000000  0.5627540000000 1.0
C      1  0.4743720000000  0.5285840000000  0.5185980000000 1.0
C      1  0.5594830000000  0.4426320000000  0.5548810000000 1.0
C      1  0.5287920000000  0.4244720000000  0.4924460000000 1.0
C      1  0.5021460000000  0.4151850000000  0.4991220000000 1.0
C      1  0.5583270000000  0.4947590000000  0.4764950000000 1.0
C      1  0.5345870000000  0.4528020000000  0.4927210000000 1.0
C      1  0.4574510000000  0.5394970000000  0.4043600000000 1.0
C      1  0.5040520000000  0.5569870000000  0.4116910000000 1.0
C      1  0.4660940000000  0.4227810000000  0.5515560000000 1.0
C      1  0.4092070000000  0.5269870000000  0.4702050000000 1.0
C      1  0.4786540000000  0.5554330000000  0.4001370000000 1.0
C      1  0.4826300000000  0.4178460000000  0.5947970000000 1.0
C      1  0.5477720000000  0.5636710000000  0.5439220000000 1.0
C      1  0.5073550000000  0.5374900000000  0.5784380000000 1.0
C      1  0.4797040000000  0.4959030000000  0.5769830000000 1.0
C      1  0.4735070000000  0.5473070000000  0.5451010000000 1.0
C      1  0.5227990000000  0.4309890000000  0.4218410000000 1.0
C      1  0.4151360000000  0.5434990000000  0.5221070000000 1.0
C      1  0.5568440000000  0.3924820000000  0.5702380000000 1.0
C      1  0.5266420000000  0.5197390000000  0.5094110000000 1.0
C      1  0.5522030000000  0.5483030000000  0.5678320000000 1.0
C      1  0.5195150000000  0.5685410000000  0.5383390000000 1.0
C      1  0.5456490000000  0.4165720000000  0.4293010000000 1.0
C      1  0.4338850000000  0.4435250000000  0.5204390000000 1.0
C      1  0.4605290000000  0.4740200000000  0.4689610000000 1.0
C      1  0.5543170000000  0.4061880000000  0.4524740000000 1.0
C      1  0.5725010000000  0.5338470000000  0.4295950000000 1.0
C      1  0.5580890000000  0.4674040000000  0.5427640000000 1.0
C      1  0.5065040000000  0.5674840000000  0.5098220000000 1.0
C      1  0.4266030000000  0.5477200000000  0.4664980000000 1.0
C      1  0.5164300000000  0.4571410000000  0.5953970000000 1.0
C      1  0.5108570000000  0.5754720000000  0.4332070000000 1.0
C      1  0.5868190000000  0.5217150000000  0.5013680000000 1.0
C      1  0.4785940000000  0.5817570000000  0.5124160000000 1.0
C      1  0.5435460000000  0.4914060000000  0.5507740000000 1.0
C      1  0.4978730000000  0.4218250000000  0.4317660000000 1.0
C      1  0.4896380000000  0.4632750000000  0.5388430000000 1.0
C      1  0.4699880000000  0.4610090000000  0.4442490000000 1.0
C      1  0.5231810000000  0.4575470000000  0.4122160000000 1.0
C      1  0.4787810000000  0.5548620000000  0.4621970000000 1.0
C      1  0.4788400000000  0.4750940000000  0.4201180000000 1.0
C      1  0.4635810000000  0.4090530000000  0.5766520000000 1.0
C      1  0.5369370000000  0.5174070000000  0.4804570000000 1.0
C      1  0.5860780000000  0.5488520000000  0.5100610000000 1.0
C      1  0.4117960000000  0.5162230000000  0.5307570000000 1.0
C      1  0.5712740000000  0.4745820000000  0.5177110000000 1.0
C      1  0.4786460000000  0.4863970000000  0.5506290000000 1.0
END
