TITL C-627107-135-1552 -0.926891544522958 125000 -867.669478523534 0 0 143 (C1) n - 1
REM
REM in /home/nfs/bkarasulu/CARBON/AIRSS/Generating-Clusters/LCBOP/Only-C1/SD-CG/FIRE-CG
REM
REM
REM
REM
REM
REM ./C.cell (11c1c37f851c82e70ff6c80c92926a4b)
REM AIRSS Version 0.9.1 bugfix July 2018 build 013d7b7c2542+ Fri, 06 Jul 2018 19:26:36 +0100
REM compiler GCC version 9.2.1 20190827 (Red Hat 9.2.1-1)
REM options -cpp -mtune=generic -march=x86-64 -g -O0 -fpre-include=/usr/include/finclude/math-vector-fortran.h
REM seed 1061947970 1558651796 -467704609 -879512942 -1068738921 682977985 655869792 1440740915 -632551270 1894314222 311802487 223345546 885242474 1509276290 -1365964597 -1964231325 -1266329843 2137186484 1686309517 624301506 1906840527 -290962871 1384599680 1404897439 -46658957 1182465595 -1030488263 1894786628 650406780 -334314108 -1824405725 1717769774 -1890161111
REM
CELL 1.54180   50.00000   50.00000   50.00000   90.00000   90.00000   90.00000
LATT -1
SFAC C  
C      1  0.5233940000000  0.4708330000000  0.4059570000000 1.0
C      1  0.4756490000000  0.5308090000000  0.4788970000000 1.0
C      1  0.5114530000000  0.5230270000000  0.5390320000000 1.0
C      1  0.5494590000000  0.4167200000000  0.4495220000000 1.0
C      1  0.3891270000000  0.5138370000000  0.4825820000000 1.0
C      1  0.5339180000000  0.5470710000000  0.4345840000000 1.0
C      1  0.5363900000000  0.4641640000000  0.5516800000000 1.0
C      1  0.4790440000000  0.4624760000000  0.5035660000000 1.0
C      1  0.4506570000000  0.4434500000000  0.5894060000000 1.0
C      1  0.4182920000000  0.5072430000000  0.4449970000000 1.0
C      1  0.4644850000000  0.4748140000000  0.4530510000000 1.0
C      1  0.4901400000000  0.5137520000000  0.5200470000000 1.0
C      1  0.4182730000000  0.5088980000000  0.5675330000000 1.0
C      1  0.5954240000000  0.4778370000000  0.5676490000000 1.0
C      1  0.5799210000000  0.5231660000000  0.5587250000000 1.0
C      1  0.5987390000000  0.4930080000000  0.4754970000000 1.0
C      1  0.3722740000000  0.4969550000000  0.4971120000000 1.0
C      1  0.5230190000000  0.4706430000000  0.4870860000000 1.0
C      1  0.5358080000000  0.5485120000000  0.5009800000000 1.0
C      1  0.5421220000000  0.5099100000000  0.5241740000000 1.0
C      1  0.4169940000000  0.4576570000000  0.4763380000000 1.0
C      1  0.4451810000000  0.5595870000000  0.5092900000000 1.0
C      1  0.4768810000000  0.4083180000000  0.4322570000000 1.0
C      1  0.5363490000000  0.4561230000000  0.5070120000000 1.0
C      1  0.5795660000000  0.3937130000000  0.6053010000000 1.0
C      1  0.5205670000000  0.5422720000000  0.4808240000000 1.0
C      1  0.4803100000000  0.4491000000000  0.5502740000000 1.0
C      1  0.5240540000000  0.5510110000000  0.6304790000000 1.0
C      1  0.3835030000000  0.4772870000000  0.5403220000000 1.0
C      1  0.5391540000000  0.3967030000000  0.4668820000000 1.0
C      1  0.4970280000000  0.4804680000000  0.4904770000000 1.0
C      1  0.4658240000000  0.5883850000000  0.4780310000000 1.0
C      1  0.3889780000000  0.5425480000000  0.4831940000000 1.0
C      1  0.3972650000000  0.4571950000000  0.4951120000000 1.0
C      1  0.4472890000000  0.5114590000000  0.5786240000000 1.0
C      1  0.4652850000000  0.5988170000000  0.5279560000000 1.0
C      1  0.5659650000000  0.5264490000000  0.4715090000000 1.0
C      1  0.4756590000000  0.4690120000000  0.5309970000000 1.0
C      1  0.4022970000000  0.5481350000000  0.5348610000000 1.0
C      1  0.5969770000000  0.5182940000000  0.4322110000000 1.0
C      1  0.6040990000000  0.5230630000000  0.4076030000000 1.0
C      1  0.4888210000000  0.6159810000000  0.5276640000000 1.0
C      1  0.6074120000000  0.5112300000000  0.5216140000000 1.0
C      1  0.5323200000000  0.5633810000000  0.6518710000000 1.0
C      1  0.4560750000000  0.5854720000000  0.5045690000000 1.0
C      1  0.5433490000000  0.5955320000000  0.4769960000000 1.0
C      1  0.5608030000000  0.5663000000000  0.5627800000000 1.0
C      1  0.5011200000000  0.4316180000000  0.5397320000000 1.0
C      1  0.4955370000000  0.5527510000000  0.4776390000000 1.0
C      1  0.4267540000000  0.4870550000000  0.4255950000000 1.0
C      1  0.4904870000000  0.5081120000000  0.4922640000000 1.0
C      1  0.5376900000000  0.4939370000000  0.4216590000000 1.0
C      1  0.4581570000000  0.4375680000000  0.5639950000000 1.0
C      1  0.5620930000000  0.4263060000000  0.5657200000000 1.0
C      1  0.4783650000000  0.4009120000000  0.4818670000000 1.0
C      1  0.4400580000000  0.5567600000000  0.3974730000000 1.0
C      1  0.4690530000000  0.4556800000000  0.4065060000000 1.0
C      1  0.5283690000000  0.4294960000000  0.4327030000000 1.0
C      1  0.4982290000000  0.5124400000000  0.5645870000000 1.0
C      1  0.5389450000000  0.5255850000000  0.5916500000000 1.0
C      1  0.4086030000000  0.4850810000000  0.5526540000000 1.0
C      1  0.5460820000000  0.3948000000000  0.4945300000000 1.0
C      1  0.5039550000000  0.5201340000000  0.4057420000000 1.0
C      1  0.5485500000000  0.4512730000000  0.5738980000000 1.0
C      1  0.5628570000000  0.5748450000000  0.4795280000000 1.0
C      1  0.5671010000000  0.4174270000000  0.5377080000000 1.0
C      1  0.4680270000000  0.4977090000000  0.5332480000000 1.0
C      1  0.5914950000000  0.4410870000000  0.4701260000000 1.0
C      1  0.5147100000000  0.3857380000000  0.4565830000000 1.0
C      1  0.4675760000000  0.5275950000000  0.4503820000000 1.0
C      1  0.4352340000000  0.5118530000000  0.4955380000000 1.0
C      1  0.3864690000000  0.5512210000000  0.5108120000000 1.0
C      1  0.4203920000000  0.5450950000000  0.4120020000000 1.0
C      1  0.4617660000000  0.5214970000000  0.6023120000000 1.0
C      1  0.5347280000000  0.5611210000000  0.5248580000000 1.0
C      1  0.4597860000000  0.4109960000000  0.5240770000000 1.0
C      1  0.5505330000000  0.4009510000000  0.5206930000000 1.0
C      1  0.4657400000000  0.5661600000000  0.3982040000000 1.0
C      1  0.5094400000000  0.6027070000000  0.5407850000000 1.0
C      1  0.4895910000000  0.4079080000000  0.5282300000000 1.0
C      1  0.4696880000000  0.5060610000000  0.5612240000000 1.0
C      1  0.4851560000000  0.5397010000000  0.6034830000000 1.0
C      1  0.5768840000000  0.5726230000000  0.5123320000000 1.0
C      1  0.4107050000000  0.5343490000000  0.4366420000000 1.0
C      1  0.4420020000000  0.4969550000000  0.5185670000000 1.0
C      1  0.4862820000000  0.4559440000000  0.4494990000000 1.0
C      1  0.6038310000000  0.4665520000000  0.4686900000000 1.0
C      1  0.5942990000000  0.4283730000000  0.4953280000000 1.0
C      1  0.5129910000000  0.4484190000000  0.4482670000000 1.0
C      1  0.5164000000000  0.5969430000000  0.4755010000000 1.0
C      1  0.3807710000000  0.4741080000000  0.5115400000000 1.0
C      1  0.4828870000000  0.5647500000000  0.4212290000000 1.0
C      1  0.4589900000000  0.4181570000000  0.4954600000000 1.0
C      1  0.5618670000000  0.4680860000000  0.5143130000000 1.0
C      1  0.4454550000000  0.4185640000000  0.5470880000000 1.0
C      1  0.4269410000000  0.4778770000000  0.5324020000000 1.0
C      1  0.4504900000000  0.5361100000000  0.4940560000000 1.0
C      1  0.5289340000000  0.5211310000000  0.4210040000000 1.0
C      1  0.4603970000000  0.4460240000000  0.4901870000000 1.0
C      1  0.4932470000000  0.4732140000000  0.4054740000000 1.0
C      1  0.5875820000000  0.5125620000000  0.4576220000000 1.0
C      1  0.4965900000000  0.3941410000000  0.5040320000000 1.0
C      1  0.5113680000000  0.5648390000000  0.4273850000000 1.0
C      1  0.4499560000000  0.5756040000000  0.4574360000000 1.0
C      1  0.4618420000000  0.5781510000000  0.5779810000000 1.0
C      1  0.4930950000000  0.5811360000000  0.4762010000000 1.0
C      1  0.5503500000000  0.4789310000000  0.4432850000000 1.0
C      1  0.4217640000000  0.5745440000000  0.4600810000000 1.0
C      1  0.5764860000000  0.4946280000000  0.5570420000000 1.0
C      1  0.5575530000000  0.5516170000000  0.4605040000000 1.0
C      1  0.5894280000000  0.4259510000000  0.5218680000000 1.0
C      1  0.4705430000000  0.5013030000000  0.4396270000000 1.0
C      1  0.5020790000000  0.5309170000000  0.3806730000000 1.0
C      1  0.4157370000000  0.5057470000000  0.4744490000000 1.0
C      1  0.4025680000000  0.5317140000000  0.5582930000000 1.0
C      1  0.4862460000000  0.4998540000000  0.4151630000000 1.0
C      1  0.5901740000000  0.5014460000000  0.5017670000000 1.0
C      1  0.5235700000000  0.4471030000000  0.5316120000000 1.0
C      1  0.4277020000000  0.5587830000000  0.5306580000000 1.0
C      1  0.5545220000000  0.4851470000000  0.5389460000000 1.0
C      1  0.5985630000000  0.5574920000000  0.5230300000000 1.0
C      1  0.4881750000000  0.3965160000000  0.4557350000000 1.0
C      1  0.4034460000000  0.5528130000000  0.4591170000000 1.0
C      1  0.5985250000000  0.5329120000000  0.5378780000000 1.0
C      1  0.5134390000000  0.5531990000000  0.5411250000000 1.0
C      1  0.5710660000000  0.4092740000000  0.5862050000000 1.0
C      1  0.5484870000000  0.4703510000000  0.5955700000000 1.0
C      1  0.5725220000000  0.4349070000000  0.4494350000000 1.0
C      1  0.5438930000000  0.4972950000000  0.5980880000000 1.0
C      1  0.4710320000000  0.5813540000000  0.5518220000000 1.0
C      1  0.4447920000000  0.4605780000000  0.4708340000000 1.0
C      1  0.5152930000000  0.5378010000000  0.6066530000000 1.0
C      1  0.4646870000000  0.5554250000000  0.4418760000000 1.0
C      1  0.4712670000000  0.4280280000000  0.4143740000000 1.0
C      1  0.5306310000000  0.4676610000000  0.4608780000000 1.0
C      1  0.4747410000000  0.5659680000000  0.5982980000000 1.0
C      1  0.5627890000000  0.5144770000000  0.4996480000000 1.0
C      1  0.5409010000000  0.4470450000000  0.4125820000000 1.0
C      1  0.4998630000000  0.5762680000000  0.5497200000000 1.0
C      1  0.5577780000000  0.5731100000000  0.5348460000000 1.0
C      1  0.5599890000000  0.5391920000000  0.5734600000000 1.0
C      1  0.4432330000000  0.4698850000000  0.4113390000000 1.0
C      1  0.5644240000000  0.4563580000000  0.4301530000000 1.0
END
