TITL C-627107-135-896 6.0766557450265 125000 -610.704750158259 0 0 101 (C1) n - 1
REM
REM in /home/nfs/bkarasulu/CARBON/AIRSS/Generating-Clusters/LCBOP/Only-C1/SD-CG/FIRE-CG
REM
REM
REM
REM
REM
REM ./C.cell (11c1c37f851c82e70ff6c80c92926a4b)
REM AIRSS Version 0.9.1 bugfix July 2018 build 013d7b7c2542+ Fri, 06 Jul 2018 19:26:36 +0100
REM compiler GCC version 9.2.1 20190827 (Red Hat 9.2.1-1)
REM options -cpp -mtune=generic -march=x86-64 -g -O0 -fpre-include=/usr/include/finclude/math-vector-fortran.h
REM seed 1892064919 -1210927543 -1050872865 -406003136 440281812 1811050500 655598069 803954893 -1505508237 1983979350 -782713741 1969373723 2139579320 -1296599178 1609269726 957864025 -1203347800 -55012338 -1771339103 -1147213025 -862403427 1420450667 -1353257746 519581014 -1640769911 396113776 821467009 804899286 -1628740975 1332039848 -212970103 -1181684231 1195684419
REM
CELL 1.54180   50.00000   50.00000   50.00000   90.00000   90.00000   90.00000
LATT -1
SFAC C  
C      1  0.5556320000000  0.5812660000000  0.4590720000000 1.0
C      1  0.4847750000000  0.4975910000000  0.4498110000000 1.0
C      1  0.5174870000000  0.3960420000000  0.5486910000000 1.0
C      1  0.4527720000000  0.4250850000000  0.3426640000000 1.0
C      1  0.4451920000000  0.6741180000000  0.5089110000000 1.0
C      1  0.5150090000000  0.4734730000000  0.6100850000000 1.0
C      1  0.4650680000000  0.4866650000000  0.5541240000000 1.0
C      1  0.4724210000000  0.5754410000000  0.4526150000000 1.0
C      1  0.4585720000000  0.6409200000000  0.5415800000000 1.0
C      1  0.4560900000000  0.4091610000000  0.4547990000000 1.0
C      1  0.4374050000000  0.4252120000000  0.5203310000000 1.0
C      1  0.4778880000000  0.4516970000000  0.5233110000000 1.0
C      1  0.4571860000000  0.5284510000000  0.6106110000000 1.0
C      1  0.5984900000000  0.5127200000000  0.4735070000000 1.0
C      1  0.4805760000000  0.6458510000000  0.4711380000000 1.0
C      1  0.4492340000000  0.3893800000000  0.4383070000000 1.0
C      1  0.5459440000000  0.5866150000000  0.5062470000000 1.0
C      1  0.4287340000000  0.4575780000000  0.3756400000000 1.0
C      1  0.5647140000000  0.4341020000000  0.5319330000000 1.0
C      1  0.5596830000000  0.3928660000000  0.4129490000000 1.0
C      1  0.5493260000000  0.5047700000000  0.5818800000000 1.0
C      1  0.5149170000000  0.3972520000000  0.3938100000000 1.0
C      1  0.4980530000000  0.5146480000000  0.6317620000000 1.0
C      1  0.5185450000000  0.4997660000000  0.6196370000000 1.0
C      1  0.4747120000000  0.5494760000000  0.4527360000000 1.0
C      1  0.4999630000000  0.5904400000000  0.5771470000000 1.0
C      1  0.4641730000000  0.5322950000000  0.5439090000000 1.0
C      1  0.4274230000000  0.4840740000000  0.4783760000000 1.0
C      1  0.5503390000000  0.5990300000000  0.4399850000000 1.0
C      1  0.5078250000000  0.4229740000000  0.5522550000000 1.0
C      1  0.5103310000000  0.4494820000000  0.3983200000000 1.0
C      1  0.5713640000000  0.5160360000000  0.5687690000000 1.0
C      1  0.4835020000000  0.4769080000000  0.5350960000000 1.0
C      1  0.5866020000000  0.5072730000000  0.4960520000000 1.0
C      1  0.4153660000000  0.5338340000000  0.4954350000000 1.0
C      1  0.4854590000000  0.3881430000000  0.3561210000000 1.0
C      1  0.5037620000000  0.5192800000000  0.5174920000000 1.0
C      1  0.5348860000000  0.4840420000000  0.5680640000000 1.0
C      1  0.5549260000000  0.4805900000000  0.5232060000000 1.0
C      1  0.4898820000000  0.4712930000000  0.4421140000000 1.0
C      1  0.4563730000000  0.5121660000000  0.5617340000000 1.0
C      1  0.4956750000000  0.4300560000000  0.5262900000000 1.0
C      1  0.4209150000000  0.4721280000000  0.4258230000000 1.0
C      1  0.5015120000000  0.4658740000000  0.4172440000000 1.0
C      1  0.5130550000000  0.4403290000000  0.5731520000000 1.0
C      1  0.5391300000000  0.5148330000000  0.6064200000000 1.0
C      1  0.4975880000000  0.4075950000000  0.4791400000000 1.0
C      1  0.4573900000000  0.3733400000000  0.4186590000000 1.0
C      1  0.5384910000000  0.5440520000000  0.4857160000000 1.0
C      1  0.4698510000000  0.4046850000000  0.3422140000000 1.0
C      1  0.4743620000000  0.6367790000000  0.4967690000000 1.0
C      1  0.4402310000000  0.4661510000000  0.4955570000000 1.0
C      1  0.4385150000000  0.4436410000000  0.3552630000000 1.0
C      1  0.5232210000000  0.5600550000000  0.6055700000000 1.0
C      1  0.4855600000000  0.5393160000000  0.5272470000000 1.0
C      1  0.4895430000000  0.5665920000000  0.5223620000000 1.0
C      1  0.4220400000000  0.4768670000000  0.4518930000000 1.0
C      1  0.5677740000000  0.4502390000000  0.4870160000000 1.0
C      1  0.5274940000000  0.5962230000000  0.5230210000000 1.0
C      1  0.5785630000000  0.4410940000000  0.4645680000000 1.0
C      1  0.5321550000000  0.3875280000000  0.4142280000000 1.0
C      1  0.5781780000000  0.4082460000000  0.4244540000000 1.0
C      1  0.5646050000000  0.5498100000000  0.6286320000000 1.0
C      1  0.5215900000000  0.3815810000000  0.4395520000000 1.0
C      1  0.5810740000000  0.5153420000000  0.5438630000000 1.0
C      1  0.4588750000000  0.6514900000000  0.5155630000000 1.0
C      1  0.4479910000000  0.5185270000000  0.5875710000000 1.0
C      1  0.5353950000000  0.6190420000000  0.4308120000000 1.0
C      1  0.5218330000000  0.5269080000000  0.4973790000000 1.0
C      1  0.4893110000000  0.6038640000000  0.5545120000000 1.0
C      1  0.4203750000000  0.5094880000000  0.4876020000000 1.0
C      1  0.4852380000000  0.6126280000000  0.5060060000000 1.0
C      1  0.5744400000000  0.5014160000000  0.5203960000000 1.0
C      1  0.4657200000000  0.6201140000000  0.5586880000000 1.0
C      1  0.4936130000000  0.3822770000000  0.3823290000000 1.0
C      1  0.4752810000000  0.3694800000000  0.3992890000000 1.0
C      1  0.4819920000000  0.5355800000000  0.6217340000000 1.0
C      1  0.5488150000000  0.5700200000000  0.4837140000000 1.0
C      1  0.5123630000000  0.3899090000000  0.4630690000000 1.0
C      1  0.5063830000000  0.4931730000000  0.5292880000000 1.0
C      1  0.4815780000000  0.5804210000000  0.5981690000000 1.0
C      1  0.4952240000000  0.6455510000000  0.4489590000000 1.0
C      1  0.5319070000000  0.4851960000000  0.5396220000000 1.0
C      1  0.4499420000000  0.6124990000000  0.5809710000000 1.0
C      1  0.5153180000000  0.4250010000000  0.3893050000000 1.0
C      1  0.4231760000000  0.4666270000000  0.3999650000000 1.0
C      1  0.5253800000000  0.5791200000000  0.5840510000000 1.0
C      1  0.4946830000000  0.5592760000000  0.6127560000000 1.0
C      1  0.4778900000000  0.4231280000000  0.4656190000000 1.0
C      1  0.5013380000000  0.4086980000000  0.5068200000000 1.0
C      1  0.4786870000000  0.5232830000000  0.4519620000000 1.0
C      1  0.5211430000000  0.4646410000000  0.5839840000000 1.0
C      1  0.5430200000000  0.5419610000000  0.6138950000000 1.0
C      1  0.4830070000000  0.4496520000000  0.4584980000000 1.0
C      1  0.5151500000000  0.6359730000000  0.4341740000000 1.0
C      1  0.4977330000000  0.5951830000000  0.5266800000000 1.0
C      1  0.5139700000000  0.3878630000000  0.5225580000000 1.0
C      1  0.5839050000000  0.4261390000000  0.4432810000000 1.0
C      1  0.5616740000000  0.4545580000000  0.5139830000000 1.0
C      1  0.4516870000000  0.4473440000000  0.5128040000000 1.0
C      1  0.4568460000000  0.5936050000000  0.5991100000000 1.0
END
