TITL C-627106-156-57 0.0247833085255627 125000 -697.775612512327 0 0 114 (C1) n - 1
REM
REM in /home/nfs/bkarasulu/CARBON/AIRSS/Generating-Clusters/LCBOP/Only-C1/SD-CG/FIRE-CG
REM
REM
REM
REM
REM
REM ./C.cell (11c1c37f851c82e70ff6c80c92926a4b)
REM AIRSS Version 0.9.1 bugfix July 2018 build 013d7b7c2542+ Fri, 06 Jul 2018 19:26:36 +0100
REM compiler GCC version 9.2.1 20190827 (Red Hat 9.2.1-1)
REM options -cpp -mtune=generic -march=x86-64 -g -O0 -fpre-include=/usr/include/finclude/math-vector-fortran.h
REM seed 1363988501 1020765498 -1106002627 681718398 309098655 1749245515 -987360269 1640381210 813364786 1779505774 836851474 -1410229921 1840088211 1836797176 112239068 192597092 185347360 1444150255 -414109176 1084728664 2025036336 -886104923 -662886835 -1048203250 -557008135 -1054593184 1707752860 -824825281 -1580656839 1269120780 -278950430 993557350 -1009395249
REM
CELL 1.54180   50.00000   50.00000   50.00000   90.00000   90.00000   90.00000
LATT -1
SFAC C  
C      1  0.5102130000000  0.4769630000000  0.5278540000000 1.0
C      1  0.5945830000000  0.4237910000000  0.5188480000000 1.0
C      1  0.4613510000000  0.5475110000000  0.3599800000000 1.0
C      1  0.5043960000000  0.4201290000000  0.4940180000000 1.0
C      1  0.5103320000000  0.5647000000000  0.3636000000000 1.0
C      1  0.3899730000000  0.5106790000000  0.5529170000000 1.0
C      1  0.5401710000000  0.4862420000000  0.4347070000000 1.0
C      1  0.5620740000000  0.4406470000000  0.5501630000000 1.0
C      1  0.5600580000000  0.5849890000000  0.5433480000000 1.0
C      1  0.5481940000000  0.5907950000000  0.5942850000000 1.0
C      1  0.5563120000000  0.4997790000000  0.4157820000000 1.0
C      1  0.4591590000000  0.5352240000000  0.5180430000000 1.0
C      1  0.4419850000000  0.5587060000000  0.6231410000000 1.0
C      1  0.5023390000000  0.4299720000000  0.5685300000000 1.0
C      1  0.5612060000000  0.5751660000000  0.5172850000000 1.0
C      1  0.5235900000000  0.4956050000000  0.3805450000000 1.0
C      1  0.4330760000000  0.4758670000000  0.4211270000000 1.0
C      1  0.5453330000000  0.4606740000000  0.6424530000000 1.0
C      1  0.4107350000000  0.5139170000000  0.5731420000000 1.0
C      1  0.4487710000000  0.5830780000000  0.5197440000000 1.0
C      1  0.5264880000000  0.4765840000000  0.4609790000000 1.0
C      1  0.6012460000000  0.5636250000000  0.4832270000000 1.0
C      1  0.5210690000000  0.5344710000000  0.5386780000000 1.0
C      1  0.4437180000000  0.5286180000000  0.3661650000000 1.0
C      1  0.5852140000000  0.5749750000000  0.5030520000000 1.0
C      1  0.3616790000000  0.5229590000000  0.3979650000000 1.0
C      1  0.4335780000000  0.5070330000000  0.4587250000000 1.0
C      1  0.5341120000000  0.5564480000000  0.3723140000000 1.0
C      1  0.5121810000000  0.5851430000000  0.6317810000000 1.0
C      1  0.4769820000000  0.4890260000000  0.4383580000000 1.0
C      1  0.3951200000000  0.4971240000000  0.4881210000000 1.0
C      1  0.6470160000000  0.5870640000000  0.4670090000000 1.0
C      1  0.6076090000000  0.4503720000000  0.4486980000000 1.0
C      1  0.5651760000000  0.5017130000000  0.4872600000000 1.0
C      1  0.4844610000000  0.4685970000000  0.5272970000000 1.0
C      1  0.5311820000000  0.4282620000000  0.4894150000000 1.0
C      1  0.5138350000000  0.4229140000000  0.5435210000000 1.0
C      1  0.5772100000000  0.5101840000000  0.5811950000000 1.0
C      1  0.5481270000000  0.5363960000000  0.3829830000000 1.0
C      1  0.4930470000000  0.5245020000000  0.4841990000000 1.0
C      1  0.4865970000000  0.4243480000000  0.4729090000000 1.0
C      1  0.5855180000000  0.4353560000000  0.4475110000000 1.0
C      1  0.5384720000000  0.4470990000000  0.4687400000000 1.0
C      1  0.5487600000000  0.4183090000000  0.5092750000000 1.0
C      1  0.4749540000000  0.4413160000000  0.5237050000000 1.0
C      1  0.4048700000000  0.4247760000000  0.4677450000000 1.0
C      1  0.5358330000000  0.4610010000000  0.6168950000000 1.0
C      1  0.4173860000000  0.4749720000000  0.5494180000000 1.0
C      1  0.4843920000000  0.5607440000000  0.3592280000000 1.0
C      1  0.5938400000000  0.4987740000000  0.4466320000000 1.0
C      1  0.5449090000000  0.5099970000000  0.3918410000000 1.0
C      1  0.3946620000000  0.4876470000000  0.5363120000000 1.0
C      1  0.4218220000000  0.4510010000000  0.4269450000000 1.0
C      1  0.5861190000000  0.5197660000000  0.5578380000000 1.0
C      1  0.5769230000000  0.4964220000000  0.5128120000000 1.0
C      1  0.5282920000000  0.5388210000000  0.5119670000000 1.0
C      1  0.3894710000000  0.4800030000000  0.5096600000000 1.0
C      1  0.5100900000000  0.4521050000000  0.6102890000000 1.0
C      1  0.4293250000000  0.4885720000000  0.3964490000000 1.0
C      1  0.4671510000000  0.4597160000000  0.5894940000000 1.0
C      1  0.4615790000000  0.4843680000000  0.5324500000000 1.0
C      1  0.4054310000000  0.5048130000000  0.4631550000000 1.0
C      1  0.4628750000000  0.5689790000000  0.6358730000000 1.0
C      1  0.3878620000000  0.4524100000000  0.5036770000000 1.0
C      1  0.4048450000000  0.4316650000000  0.4948390000000 1.0
C      1  0.4330500000000  0.5529740000000  0.5547950000000 1.0
C      1  0.4115790000000  0.4326950000000  0.4432460000000 1.0
C      1  0.5849620000000  0.4463410000000  0.5333380000000 1.0
C      1  0.5331150000000  0.5893800000000  0.6160530000000 1.0
C      1  0.6010790000000  0.5118970000000  0.4007090000000 1.0
C      1  0.4468830000000  0.5575040000000  0.5306360000000 1.0
C      1  0.4281560000000  0.5485670000000  0.6029080000000 1.0
C      1  0.5594540000000  0.4379550000000  0.4523170000000 1.0
C      1  0.4921890000000  0.4464320000000  0.5893570000000 1.0
C      1  0.5926420000000  0.5395210000000  0.4720770000000 1.0
C      1  0.6248730000000  0.5758180000000  0.4749100000000 1.0
C      1  0.4518730000000  0.6064460000000  0.5086310000000 1.0
C      1  0.4859250000000  0.4960840000000  0.4127830000000 1.0
C      1  0.4481610000000  0.4898110000000  0.4412600000000 1.0
C      1  0.3877450000000  0.5114870000000  0.4425540000000 1.0
C      1  0.5533170000000  0.4981390000000  0.5898440000000 1.0
C      1  0.5840210000000  0.5038330000000  0.4205150000000 1.0
C      1  0.5568350000000  0.5894920000000  0.5692560000000 1.0
C      1  0.4955940000000  0.4227100000000  0.5209860000000 1.0
C      1  0.6109520000000  0.4768860000000  0.4503240000000 1.0
C      1  0.4463500000000  0.4405610000000  0.5244720000000 1.0
C      1  0.3510060000000  0.5281290000000  0.3747490000000 1.0
C      1  0.5415660000000  0.4254200000000  0.5367620000000 1.0
C      1  0.5299180000000  0.5126610000000  0.5841920000000 1.0
C      1  0.4327960000000  0.5076250000000  0.3782530000000 1.0
C      1  0.4245100000000  0.4880090000000  0.5747000000000 1.0
C      1  0.4471400000000  0.5276350000000  0.4717590000000 1.0
C      1  0.5515260000000  0.4703270000000  0.5950860000000 1.0
C      1  0.3734920000000  0.5175150000000  0.4210580000000 1.0
C      1  0.4612620000000  0.5117850000000  0.5330440000000 1.0
C      1  0.5381010000000  0.5644980000000  0.5045550000000 1.0
C      1  0.4875920000000  0.5781480000000  0.6388780000000 1.0
C      1  0.4390500000000  0.4666480000000  0.5342850000000 1.0
C      1  0.5598320000000  0.4520590000000  0.5754760000000 1.0
C      1  0.4232920000000  0.5388840000000  0.5772070000000 1.0
C      1  0.5196020000000  0.5201460000000  0.4919080000000 1.0
C      1  0.4459390000000  0.4762900000000  0.5886860000000 1.0
C      1  0.4272180000000  0.4256440000000  0.5109080000000 1.0
C      1  0.4947310000000  0.4729540000000  0.4545130000000 1.0
C      1  0.5193730000000  0.5262840000000  0.5638660000000 1.0
C      1  0.5754670000000  0.4097590000000  0.5054610000000 1.0
C      1  0.5825710000000  0.5166210000000  0.5315320000000 1.0
C      1  0.4668940000000  0.5323300000000  0.4907850000000 1.0
C      1  0.5250350000000  0.5793600000000  0.4855960000000 1.0
C      1  0.5857990000000  0.4710440000000  0.5203800000000 1.0
C      1  0.5831910000000  0.5135020000000  0.4682790000000 1.0
C      1  0.4842530000000  0.4472870000000  0.4595300000000 1.0
C      1  0.5364250000000  0.4989960000000  0.4816220000000 1.0
C      1  0.4987830000000  0.4924820000000  0.3898470000000 1.0
END
