TITL C-627111-6168-983 1.43133504725205 125000 -160.512657818386 0 0 29 (C1) n - 1
REM
REM in /home/nfs/bkarasulu/CARBON/AIRSS/Generating-Clusters/LCBOP/Only-C1/SD-CG/FIRE-CG
REM
REM
REM
REM
REM
REM ./C.cell (11c1c37f851c82e70ff6c80c92926a4b)
REM AIRSS Version 0.9.1 bugfix July 2018 build 013d7b7c2542+ Fri, 06 Jul 2018 19:26:36 +0100
REM compiler GCC version 9.2.1 20190827 (Red Hat 9.2.1-1)
REM options -cpp -mtune=generic -march=x86-64 -g -O0 -fpre-include=/usr/include/finclude/math-vector-fortran.h
REM seed 546718459 -1705764958 -163580329 1951355909 -1067996334 57002309 970300609 -1499313345 -1009412250 1262500890 517571 1889848322 -1394300325 134521880 977548197 -1842481398 1925123851 -1689064169 -908412275 -1133567390 1752695263 1020005126 -1600715309 947217393 -103433210 -1266043444 1197382998 870788201 513684647 734158079 -2009555946 -1141959392 -2096223255
REM
CELL 1.54180   50.00000   50.00000   50.00000   90.00000   90.00000   90.00000
LATT -1
SFAC C  
C      1  0.4845550000000  0.5119340000000  0.6041480000000 1.0
C      1  0.5311390000000  0.4651340000000  0.3701020000000 1.0
C      1  0.5039150000000  0.5356330000000  0.4801140000000 1.0
C      1  0.4882830000000  0.5351640000000  0.5038370000000 1.0
C      1  0.5287190000000  0.4560070000000  0.3964530000000 1.0
C      1  0.5260570000000  0.4491170000000  0.4218890000000 1.0
C      1  0.4879500000000  0.4882030000000  0.5897830000000 1.0
C      1  0.4917890000000  0.5538820000000  0.5241020000000 1.0
C      1  0.4868630000000  0.5363690000000  0.5907860000000 1.0
C      1  0.4524850000000  0.5106930000000  0.5272590000000 1.0
C      1  0.4685690000000  0.5142120000000  0.5055110000000 1.0
C      1  0.5173930000000  0.4420180000000  0.4735960000000 1.0
C      1  0.5115100000000  0.4809400000000  0.3593970000000 1.0
C      1  0.4976920000000  0.5954460000000  0.5474720000000 1.0
C      1  0.5224690000000  0.4441980000000  0.4476780000000 1.0
C      1  0.4931980000000  0.5684870000000  0.5479060000000 1.0
C      1  0.5026310000000  0.5185730000000  0.4574830000000 1.0
C      1  0.5531190000000  0.4581800000000  0.3553290000000 1.0
C      1  0.4924240000000  0.4701660000000  0.5708970000000 1.0
C      1  0.4736770000000  0.5105860000000  0.6569950000000 1.0
C      1  0.4824510000000  0.4988690000000  0.4603990000000 1.0
C      1  0.5041610000000  0.4480940000000  0.5244210000000 1.0
C      1  0.5191170000000  0.5208370000000  0.4353320000000 1.0
C      1  0.5349880000000  0.5236170000000  0.4148480000000 1.0
C      1  0.5109920000000  0.4432380000000  0.4992810000000 1.0
C      1  0.4789300000000  0.5112380000000  0.6314760000000 1.0
C      1  0.4978640000000  0.4568860000000  0.5486150000000 1.0
C      1  0.4671470000000  0.4973240000000  0.4827280000000 1.0
C      1  0.4899140000000  0.5549550000000  0.5721630000000 1.0
END
