TITL C-627111-6168-951 -30369.7563488352 125000 -471.033803513748 0 0 80 (C1) n - 1
REM
REM in /home/nfs/bkarasulu/CARBON/AIRSS/Generating-Clusters/LCBOP/Only-C1/SD-CG/FIRE-CG
REM
REM
REM
REM
REM
REM ./C.cell (11c1c37f851c82e70ff6c80c92926a4b)
REM AIRSS Version 0.9.1 bugfix July 2018 build 013d7b7c2542+ Fri, 06 Jul 2018 19:26:36 +0100
REM compiler GCC version 9.2.1 20190827 (Red Hat 9.2.1-1)
REM options -cpp -mtune=generic -march=x86-64 -g -O0 -fpre-include=/usr/include/finclude/math-vector-fortran.h
REM seed -653737086 -1558821154 166244665 -850738429 -368633704 1261591708 -1483789894 1074745235 978683004 -471941906 828544579 8999539 1314852826 1503153977 707650625 676195556 -727628637 -2079720794 -416421046 -416141910 535304353 -955037436 -2136739455 617705919 -1312969614 -1746475608 -1293212698 -761929392 1605893707 -1788171049 256415931 -1887377162 1226473846
REM
CELL 1.54180   50.00000   50.00000   50.00000   90.00000   90.00000   90.00000
LATT -1
SFAC C  
C      1  0.4289940000000  0.5251180000000  0.5509670000000 1.0
C      1  0.5666560000000  0.5209950000000  0.5206920000000 1.0
C      1  0.4595400000000  0.5313160000000  0.4838820000000 1.0
C      1  0.5031370000000  0.4695560000000  0.5514780000000 1.0
C      1  0.4180300000000  0.5460910000000  0.4446520000000 1.0
C      1  0.5880270000000  0.4738000000000  0.4471550000000 1.0
C      1  0.5062650000000  0.4467850000000  0.4614880000000 1.0
C      1  0.4393480000000  0.4983520000000  0.5050620000000 1.0
C      1  0.4150070000000  0.5279140000000  0.4662660000000 1.0
C      1  0.4995800000000  0.4738980000000  0.4588090000000 1.0
C      1  0.5734420000000  0.4884930000000  0.5553570000000 1.0
C      1  0.3885750000000  0.4713590000000  0.4938900000000 1.0
C      1  0.5309610000000  0.4312500000000  0.5300970000000 1.0
C      1  0.4725550000000  0.4981950000000  0.5404410000000 1.0
C      1  0.4153950000000  0.4656000000000  0.4487240000000 1.0
C      1  0.5248630000000  0.5163770000000  0.4905620000000 1.0
C      1  0.5788940000000  0.5289770000000  0.4962800000000 1.0
C      1  0.5079690000000  0.4179060000000  0.5182930000000 1.0
C      1  0.5534710000000  0.5629360000000  0.4243170000000 1.0
C      1  0.4402250000000  0.5216420000000  0.5251660000000 1.0
C      1  0.4417690000000  0.4936600000000  0.4135900000000 1.0
C      1  0.4032270000000  0.5141430000000  0.5536020000000 1.0
C      1  0.5155070000000  0.4880400000000  0.4391150000000 1.0
C      1  0.4468570000000  0.5334140000000  0.5716090000000 1.0
C      1  0.4891780000000  0.5666120000000  0.4486300000000 1.0
C      1  0.5435160000000  0.4928350000000  0.4423910000000 1.0
C      1  0.5000300000000  0.4961650000000  0.3884750000000 1.0
C      1  0.3834890000000  0.4826150000000  0.5175690000000 1.0
C      1  0.4985670000000  0.5233330000000  0.5668900000000 1.0
C      1  0.4416320000000  0.5216050000000  0.4106350000000 1.0
C      1  0.5414570000000  0.4795870000000  0.5178850000000 1.0
C      1  0.5630710000000  0.4169420000000  0.6304870000000 1.0
C      1  0.4647810000000  0.4784950000000  0.5011150000000 1.0
C      1  0.4566540000000  0.4847970000000  0.5586090000000 1.0
C      1  0.5527070000000  0.5414170000000  0.4390030000000 1.0
C      1  0.4822800000000  0.5488330000000  0.5278700000000 1.0
C      1  0.5197820000000  0.4976350000000  0.5111410000000 1.0
C      1  0.5291300000000  0.5705760000000  0.5135370000000 1.0
C      1  0.4834550000000  0.4312490000000  0.5225710000000 1.0
C      1  0.5415900000000  0.4244970000000  0.5548370000000 1.0
C      1  0.5498410000000  0.4211760000000  0.5797840000000 1.0
C      1  0.4170990000000  0.5340620000000  0.4188160000000 1.0
C      1  0.5201050000000  0.5737610000000  0.4883560000000 1.0
C      1  0.5567490000000  0.4190050000000  0.6052800000000 1.0
C      1  0.5642620000000  0.5335480000000  0.5669510000000 1.0
C      1  0.5125160000000  0.4094640000000  0.4914920000000 1.0
C      1  0.5551080000000  0.5390830000000  0.5404960000000 1.0
C      1  0.5937370000000  0.5527030000000  0.4957380000000 1.0
C      1  0.4731210000000  0.5321100000000  0.5787500000000 1.0
C      1  0.3875810000000  0.4976910000000  0.5392670000000 1.0
C      1  0.4654170000000  0.5595540000000  0.4351650000000 1.0
C      1  0.5630410000000  0.4729310000000  0.4362990000000 1.0
C      1  0.4817100000000  0.5169960000000  0.4737340000000 1.0
C      1  0.5052230000000  0.5417580000000  0.5445610000000 1.0
C      1  0.4819120000000  0.4588090000000  0.5249230000000 1.0
C      1  0.5767300000000  0.5138270000000  0.4722660000000 1.0
C      1  0.5726780000000  0.4346530000000  0.4781090000000 1.0
C      1  0.5639460000000  0.4931930000000  0.5289220000000 1.0
C      1  0.5304230000000  0.5520260000000  0.5350590000000 1.0
C      1  0.4641200000000  0.5388480000000  0.4151710000000 1.0
C      1  0.6059160000000  0.5757260000000  0.4949360000000 1.0
C      1  0.4351300000000  0.5151940000000  0.4809670000000 1.0
C      1  0.5238540000000  0.4294740000000  0.4746970000000 1.0
C      1  0.5068940000000  0.5581360000000  0.4689490000000 1.0
C      1  0.4307830000000  0.4745210000000  0.4287940000000 1.0
C      1  0.5475180000000  0.4409280000000  0.4864770000000 1.0
C      1  0.4394660000000  0.5652800000000  0.4462880000000 1.0
C      1  0.4945260000000  0.5018940000000  0.5240660000000 1.0
C      1  0.5043800000000  0.4937410000000  0.4140690000000 1.0
C      1  0.5422420000000  0.4515330000000  0.5127270000000 1.0
C      1  0.5065210000000  0.5302190000000  0.4746640000000 1.0
C      1  0.5040580000000  0.4932080000000  0.5716310000000 1.0
C      1  0.4001450000000  0.4651810000000  0.4706340000000 1.0
C      1  0.4616310000000  0.4776930000000  0.5845650000000 1.0
C      1  0.5557080000000  0.5171790000000  0.4524870000000 1.0
C      1  0.5946340000000  0.4926820000000  0.4656370000000 1.0
C      1  0.4602050000000  0.5399600000000  0.5124250000000 1.0
C      1  0.4871690000000  0.4829430000000  0.5933830000000 1.0
C      1  0.4811860000000  0.4876680000000  0.4765310000000 1.0
C      1  0.5731000000000  0.5086330000000  0.5737950000000 1.0
END
