TITL C-627107-135-588 6573.67242766873 125000 -590.327966984047 0 0 98 (C1) n - 1
REM
REM in /home/nfs/bkarasulu/CARBON/AIRSS/Generating-Clusters/LCBOP/Only-C1/SD-CG/FIRE-CG
REM
REM
REM
REM
REM
REM ./C.cell (11c1c37f851c82e70ff6c80c92926a4b)
REM AIRSS Version 0.9.1 bugfix July 2018 build 013d7b7c2542+ Fri, 06 Jul 2018 19:26:36 +0100
REM compiler GCC version 9.2.1 20190827 (Red Hat 9.2.1-1)
REM options -cpp -mtune=generic -march=x86-64 -g -O0 -fpre-include=/usr/include/finclude/math-vector-fortran.h
REM seed -843847319 -2121608766 -365276670 1319054959 -298607299 286505866 -417234724 -458473225 -221619389 -779450501 -1039034547 -446596128 275275901 1496804770 620723713 503425730 -784173216 -1148287634 543424851 462722978 1426990182 -1877515593 -6385244 -1221836936 -1553488003 -1238122404 638758154 1013492732 891825199 447751789 -80457877 -1380530379 1089846945
REM
CELL 1.54180   50.00000   50.00000   50.00000   90.00000   90.00000   90.00000
LATT -1
SFAC C  
C      1  0.5895800000000  0.4665330000000  0.4961790000000 1.0
C      1  0.3141450000000  0.6454680000000  0.4763430000000 1.0
C      1  0.4946020000000  0.4712930000000  0.4912430000000 1.0
C      1  0.5220930000000  0.5137050000000  0.5330610000000 1.0
C      1  0.5221400000000  0.4824550000000  0.4083050000000 1.0
C      1  0.5398250000000  0.5330860000000  0.5218180000000 1.0
C      1  0.5414220000000  0.4722890000000  0.5090390000000 1.0
C      1  0.5628490000000  0.4513880000000  0.4977000000000 1.0
C      1  0.3560680000000  0.5823390000000  0.4721580000000 1.0
C      1  0.5213530000000  0.4703280000000  0.4337710000000 1.0
C      1  0.4780660000000  0.5198200000000  0.5046810000000 1.0
C      1  0.4840920000000  0.5391040000000  0.4108920000000 1.0
C      1  0.4327630000000  0.5331780000000  0.5128710000000 1.0
C      1  0.5010340000000  0.4927170000000  0.4731170000000 1.0
C      1  0.4943940000000  0.3714880000000  0.4990000000000 1.0
C      1  0.5445160000000  0.5517530000000  0.5869100000000 1.0
C      1  0.4465270000000  0.4862850000000  0.4933670000000 1.0
C      1  0.5220460000000  0.4898000000000  0.4548780000000 1.0
C      1  0.4809730000000  0.2650680000000  0.4998650000000 1.0
C      1  0.4445720000000  0.5523430000000  0.4373100000000 1.0
C      1  0.5764550000000  0.4870770000000  0.4265930000000 1.0
C      1  0.4360590000000  0.4787620000000  0.4681220000000 1.0
C      1  0.6072560000000  0.5205490000000  0.4604780000000 1.0
C      1  0.5329820000000  0.5732580000000  0.5457640000000 1.0
C      1  0.4038850000000  0.5541990000000  0.4720350000000 1.0
C      1  0.5696480000000  0.4747450000000  0.4526210000000 1.0
C      1  0.4680240000000  0.4689240000000  0.5004870000000 1.0
C      1  0.4983840000000  0.3861720000000  0.4753050000000 1.0
C      1  0.6137390000000  0.4926790000000  0.4581220000000 1.0
C      1  0.5340400000000  0.4871250000000  0.5362290000000 1.0
C      1  0.4419110000000  0.5491650000000  0.5342750000000 1.0
C      1  0.5503470000000  0.4968280000000  0.4923070000000 1.0
C      1  0.5934580000000  0.4835530000000  0.5441090000000 1.0
C      1  0.5040020000000  0.5265380000000  0.3983770000000 1.0
C      1  0.5313610000000  0.4456050000000  0.4457290000000 1.0
C      1  0.4711370000000  0.5439110000000  0.4352380000000 1.0
C      1  0.5556610000000  0.4495980000000  0.4592690000000 1.0
C      1  0.4464690000000  0.4614440000000  0.4500300000000 1.0
C      1  0.3787220000000  0.5660800000000  0.4705130000000 1.0
C      1  0.3378530000000  0.5597750000000  0.5111390000000 1.0
C      1  0.5518170000000  0.5217470000000  0.4065290000000 1.0
C      1  0.5859640000000  0.5317540000000  0.4440010000000 1.0
C      1  0.4825290000000  0.5788330000000  0.5549250000000 1.0
C      1  0.5379260000000  0.5613790000000  0.5207370000000 1.0
C      1  0.3235290000000  0.6417370000000  0.4513790000000 1.0
C      1  0.5135800000000  0.4249400000000  0.4527090000000 1.0
C      1  0.5560120000000  0.5262750000000  0.6790660000000 1.0
C      1  0.4950560000000  0.3867560000000  0.5226090000000 1.0
C      1  0.5005800000000  0.4118810000000  0.5297630000000 1.0
C      1  0.4870750000000  0.3177120000000  0.4991980000000 1.0
C      1  0.5862370000000  0.4962290000000  0.5665110000000 1.0
C      1  0.3404130000000  0.5825480000000  0.4961450000000 1.0
C      1  0.5750590000000  0.5136770000000  0.5833050000000 1.0
C      1  0.4814940000000  0.5301100000000  0.6202220000000 1.0
C      1  0.4903440000000  0.3439970000000  0.4990830000000 1.0
C      1  0.4844580000000  0.4234120000000  0.4480570000000 1.0
C      1  0.5486040000000  0.4939100000000  0.4646450000000 1.0
C      1  0.5320130000000  0.4604500000000  0.5828850000000 1.0
C      1  0.3382080000000  0.6215580000000  0.4414120000000 1.0
C      1  0.5993020000000  0.4849300000000  0.5166490000000 1.0
C      1  0.5264310000000  0.5099510000000  0.4012880000000 1.0
C      1  0.4773960000000  0.3974550000000  0.4590910000000 1.0
C      1  0.5738250000000  0.5153370000000  0.4230730000000 1.0
C      1  0.5462090000000  0.5728360000000  0.4962980000000 1.0
C      1  0.4609110000000  0.5623600000000  0.5476010000000 1.0
C      1  0.5149820000000  0.4577010000000  0.5051600000000 1.0
C      1  0.5601670000000  0.5317230000000  0.5989850000000 1.0
C      1  0.5721030000000  0.5542410000000  0.4544100000000 1.0
C      1  0.4215290000000  0.5551360000000  0.4502670000000 1.0
C      1  0.4652590000000  0.4433260000000  0.4435190000000 1.0
C      1  0.4898950000000  0.5181620000000  0.4788030000000 1.0
C      1  0.4975390000000  0.5425140000000  0.6031820000000 1.0
C      1  0.4125420000000  0.5420730000000  0.4957850000000 1.0
C      1  0.6115470000000  0.5278020000000  0.4876940000000 1.0
C      1  0.4845850000000  0.5366950000000  0.4587920000000 1.0
C      1  0.3494460000000  0.5991110000000  0.4506110000000 1.0
C      1  0.5085580000000  0.4359830000000  0.5218480000000 1.0
C      1  0.5608110000000  0.5295750000000  0.6268320000000 1.0
C      1  0.5585920000000  0.5683170000000  0.4728450000000 1.0
C      1  0.5081100000000  0.5684240000000  0.5609690000000 1.0
C      1  0.4840050000000  0.2913920000000  0.4994800000000 1.0
C      1  0.5951410000000  0.4740760000000  0.4687270000000 1.0
C      1  0.5587080000000  0.5278410000000  0.6531840000000 1.0
C      1  0.5537440000000  0.5691310000000  0.5657840000000 1.0
C      1  0.5153560000000  0.5535960000000  0.5851040000000 1.0
C      1  0.4659920000000  0.5175520000000  0.6370030000000 1.0
C      1  0.5589210000000  0.4231180000000  0.5019660000000 1.0
C      1  0.5437260000000  0.4054340000000  0.4882460000000 1.0
C      1  0.4785890000000  0.6059420000000  0.5563790000000 1.0
C      1  0.5575360000000  0.5208010000000  0.5041720000000 1.0
C      1  0.5215630000000  0.4033730000000  0.4710790000000 1.0
C      1  0.4779840000000  0.2391700000000  0.5002760000000 1.0
C      1  0.6103320000000  0.5099350000000  0.5080690000000 1.0
C      1  0.3272880000000  0.6061170000000  0.5040830000000 1.0
C      1  0.3164760000000  0.6298070000000  0.4980530000000 1.0
C      1  0.4501670000000  0.5125240000000  0.5044520000000 1.0
C      1  0.5346010000000  0.4736410000000  0.5605550000000 1.0
C      1  0.4947800000000  0.5175680000000  0.5272600000000 1.0
END
