TITL C-627107-135-797 -0.564389446267742 125000 -712.382733667141 0 0 117 (C1) n - 1
REM
REM in /home/nfs/bkarasulu/CARBON/AIRSS/Generating-Clusters/LCBOP/Only-C1/SD-CG/FIRE-CG
REM
REM
REM
REM
REM
REM ./C.cell (11c1c37f851c82e70ff6c80c92926a4b)
REM AIRSS Version 0.9.1 bugfix July 2018 build 013d7b7c2542+ Fri, 06 Jul 2018 19:26:36 +0100
REM compiler GCC version 9.2.1 20190827 (Red Hat 9.2.1-1)
REM options -cpp -mtune=generic -march=x86-64 -g -O0 -fpre-include=/usr/include/finclude/math-vector-fortran.h
REM seed -1279680174 321680329 1666368304 -1756539110 -118187255 -113384477 1437205599 -2059583634 1054547239 1746720863 1553791682 -1480715566 1668858299 -517831312 404253538 1254276062 1839919356 -2116202567 -1632182267 -1457387243 1129345174 884329811 1971538165 -1745601277 1847402875 1837838227 2121396429 -375456056 1793625765 1749930262 -147271242 -1832313271 17280520
REM
CELL 1.54180   50.00000   50.00000   50.00000   90.00000   90.00000   90.00000
LATT -1
SFAC C  
C      1  0.5361270000000  0.5829240000000  0.5562250000000 1.0
C      1  0.4775020000000  0.5317870000000  0.4729400000000 1.0
C      1  0.5539020000000  0.5209080000000  0.5139330000000 1.0
C      1  0.5181140000000  0.5374300000000  0.5406520000000 1.0
C      1  0.4879520000000  0.4668290000000  0.4896440000000 1.0
C      1  0.5428040000000  0.4861810000000  0.4621300000000 1.0
C      1  0.3892180000000  0.5283170000000  0.4938240000000 1.0
C      1  0.4326540000000  0.5508080000000  0.4964750000000 1.0
C      1  0.5074820000000  0.4086010000000  0.4639160000000 1.0
C      1  0.5764100000000  0.4984190000000  0.5510640000000 1.0
C      1  0.5042780000000  0.4900850000000  0.4912230000000 1.0
C      1  0.4923670000000  0.4610140000000  0.5647940000000 1.0
C      1  0.4348450000000  0.5365640000000  0.4510330000000 1.0
C      1  0.5566030000000  0.4692310000000  0.3837170000000 1.0
C      1  0.4502690000000  0.4536650000000  0.5085740000000 1.0
C      1  0.5848860000000  0.5076820000000  0.4480520000000 1.0
C      1  0.5637040000000  0.4402740000000  0.4656530000000 1.0
C      1  0.5335620000000  0.4547590000000  0.4992850000000 1.0
C      1  0.4559940000000  0.4818850000000  0.4100370000000 1.0
C      1  0.5473160000000  0.4561090000000  0.5232200000000 1.0
C      1  0.5842130000000  0.4267680000000  0.5259650000000 1.0
C      1  0.5689300000000  0.5176090000000  0.5707640000000 1.0
C      1  0.4739990000000  0.5231570000000  0.5377790000000 1.0
C      1  0.4044840000000  0.5088360000000  0.5419160000000 1.0
C      1  0.6186500000000  0.5106000000000  0.4881440000000 1.0
C      1  0.5150280000000  0.5947290000000  0.4882960000000 1.0
C      1  0.4968970000000  0.4968410000000  0.4464600000000 1.0
C      1  0.6073360000000  0.4169430000000  0.5380620000000 1.0
C      1  0.5085530000000  0.4983530000000  0.5175000000000 1.0
C      1  0.4688560000000  0.4318970000000  0.4470710000000 1.0
C      1  0.4594330000000  0.4679310000000  0.4865900000000 1.0
C      1  0.5586450000000  0.5001500000000  0.4429170000000 1.0
C      1  0.4986920000000  0.4878470000000  0.4202520000000 1.0
C      1  0.5716830000000  0.4508580000000  0.5356800000000 1.0
C      1  0.5312930000000  0.5282120000000  0.4123420000000 1.0
C      1  0.4976390000000  0.4210000000000  0.5098570000000 1.0
C      1  0.4234140000000  0.5243540000000  0.5566530000000 1.0
C      1  0.5733370000000  0.4616940000000  0.5828690000000 1.0
C      1  0.4942110000000  0.5016550000000  0.5934880000000 1.0
C      1  0.4790270000000  0.5521920000000  0.5885290000000 1.0
C      1  0.5465280000000  0.5044070000000  0.4172660000000 1.0
C      1  0.4970790000000  0.4257870000000  0.4425540000000 1.0
C      1  0.5774240000000  0.5084360000000  0.5241740000000 1.0
C      1  0.5102180000000  0.5949530000000  0.5532440000000 1.0
C      1  0.5062050000000  0.4466770000000  0.5002970000000 1.0
C      1  0.4881700000000  0.4075220000000  0.4861310000000 1.0
C      1  0.4920690000000  0.5771900000000  0.4888720000000 1.0
C      1  0.5118880000000  0.4416980000000  0.4241480000000 1.0
C      1  0.5483250000000  0.4617520000000  0.4752690000000 1.0
C      1  0.4061430000000  0.5481810000000  0.5001650000000 1.0
C      1  0.6013840000000  0.5081470000000  0.5100050000000 1.0
C      1  0.5571840000000  0.5404160000000  0.5789100000000 1.0
C      1  0.4888420000000  0.5606270000000  0.5111450000000 1.0
C      1  0.5259180000000  0.4654970000000  0.5999190000000 1.0
C      1  0.4924310000000  0.6039240000000  0.5321500000000 1.0
C      1  0.5520380000000  0.4602390000000  0.5989850000000 1.0
C      1  0.5032310000000  0.4756470000000  0.5868660000000 1.0
C      1  0.4804940000000  0.5348860000000  0.4091030000000 1.0
C      1  0.5348710000000  0.4027950000000  0.4696980000000 1.0
C      1  0.4899900000000  0.4164250000000  0.5372240000000 1.0
C      1  0.4643330000000  0.4043230000000  0.5421500000000 1.0
C      1  0.5083920000000  0.6130820000000  0.5091350000000 1.0
C      1  0.6066270000000  0.5107290000000  0.4628990000000 1.0
C      1  0.5538330000000  0.5839150000000  0.5339750000000 1.0
C      1  0.4456960000000  0.5115110000000  0.4428510000000 1.0
C      1  0.5325350000000  0.5514210000000  0.4802050000000 1.0
C      1  0.4526220000000  0.4622450000000  0.5353880000000 1.0
C      1  0.5066610000000  0.5697860000000  0.4307740000000 1.0
C      1  0.4364540000000  0.5548610000000  0.4298500000000 1.0
C      1  0.4542660000000  0.4523040000000  0.4326810000000 1.0
C      1  0.4917810000000  0.5445900000000  0.5334440000000 1.0
C      1  0.4319120000000  0.4441190000000  0.5492030000000 1.0
C      1  0.3935430000000  0.5029060000000  0.4865800000000 1.0
C      1  0.4782470000000  0.5000830000000  0.4050400000000 1.0
C      1  0.5291310000000  0.5154940000000  0.5263660000000 1.0
C      1  0.5409550000000  0.4795210000000  0.4034430000000 1.0
C      1  0.4877540000000  0.5276190000000  0.5948160000000 1.0
C      1  0.4302420000000  0.4599130000000  0.4464450000000 1.0
C      1  0.5163200000000  0.4948190000000  0.4663970000000 1.0
C      1  0.4753890000000  0.4744620000000  0.5461860000000 1.0
C      1  0.6288710000000  0.4085110000000  0.5500750000000 1.0
C      1  0.5324700000000  0.5795220000000  0.4713200000000 1.0
C      1  0.4142350000000  0.4773120000000  0.4297960000000 1.0
C      1  0.4612490000000  0.4169690000000  0.4789040000000 1.0
C      1  0.4849850000000  0.4976410000000  0.5341030000000 1.0
C      1  0.4325070000000  0.5510620000000  0.5486760000000 1.0
C      1  0.4788730000000  0.5754410000000  0.4400380000000 1.0
C      1  0.5440230000000  0.5637660000000  0.5757010000000 1.0
C      1  0.4520080000000  0.5735270000000  0.5484020000000 1.0
C      1  0.4989830000000  0.4344570000000  0.5573360000000 1.0
C      1  0.6456580000000  0.5127310000000  0.4912790000000 1.0
C      1  0.5726120000000  0.4128610000000  0.5034770000000 1.0
C      1  0.4349570000000  0.4817700000000  0.5852550000000 1.0
C      1  0.5779500000000  0.4699280000000  0.5563150000000 1.0
C      1  0.5594000000000  0.4149190000000  0.4781540000000 1.0
C      1  0.4631170000000  0.5934530000000  0.5271910000000 1.0
C      1  0.5285050000000  0.5821340000000  0.4435010000000 1.0
C      1  0.5625670000000  0.5682940000000  0.5139040000000 1.0
C      1  0.5062950000000  0.5381700000000  0.4765810000000 1.0
C      1  0.4533460000000  0.5962230000000  0.4967740000000 1.0
C      1  0.5169670000000  0.4675210000000  0.4132340000000 1.0
C      1  0.4676330000000  0.5707770000000  0.5727030000000 1.0
C      1  0.4349180000000  0.4716530000000  0.4718580000000 1.0
C      1  0.4338840000000  0.4553990000000  0.5776980000000 1.0
C      1  0.4341300000000  0.4960950000000  0.4215180000000 1.0
C      1  0.4453400000000  0.4255700000000  0.5034750000000 1.0
C      1  0.4127320000000  0.4847510000000  0.4831390000000 1.0
C      1  0.4053630000000  0.4568680000000  0.5400240000000 1.0
C      1  0.5082870000000  0.5448770000000  0.4150860000000 1.0
C      1  0.4339310000000  0.5080580000000  0.5780100000000 1.0
C      1  0.5530930000000  0.5456350000000  0.4995260000000 1.0
C      1  0.4496450000000  0.5425580000000  0.4758860000000 1.0
C      1  0.3977760000000  0.4828490000000  0.5383730000000 1.0
C      1  0.4631540000000  0.5580760000000  0.4212780000000 1.0
C      1  0.4728930000000  0.5099080000000  0.4539080000000 1.0
C      1  0.4403520000000  0.4168650000000  0.5324440000000 1.0
C      1  0.4698550000000  0.5858480000000  0.4735800000000 1.0
END
