TITL C-627111-6168-55 8.21908264603985e-08 125000 -658.83446170054 0 0 109 (C1) n - 1
REM
REM in /home/nfs/bkarasulu/CARBON/AIRSS/Generating-Clusters/LCBOP/Only-C1/SD-CG/FIRE-CG
REM
REM
REM
REM
REM
REM ./C.cell (11c1c37f851c82e70ff6c80c92926a4b)
REM AIRSS Version 0.9.1 bugfix July 2018 build 013d7b7c2542+ Fri, 06 Jul 2018 19:26:36 +0100
REM compiler GCC version 9.2.1 20190827 (Red Hat 9.2.1-1)
REM options -cpp -mtune=generic -march=x86-64 -g -O0 -fpre-include=/usr/include/finclude/math-vector-fortran.h
REM seed 921762135 -1678744796 -584475746 1336313519 1229085409 540585410 258509221 754444147 -328150976 1616611236 -1974152733 1546440006 -1437810848 -166176904 -1565901997 1355762708 -655363486 1683569340 1592114240 -482564485 369819952 769941410 -972873547 -1459366901 1600347165 311348045 1880338716 -108263734 857023319 968072327 -1939054330 568209077 -1104631452
REM
CELL 1.54180   50.00000   50.00000   50.00000   90.00000   90.00000   90.00000
LATT -1
SFAC C  
C      1  0.5388020000000  0.5626550000000  0.5087280000000 1.0
C      1  0.4060640000000  0.4952910000000  0.4967580000000 1.0
C      1  0.4517500000000  0.5707560000000  0.4401090000000 1.0
C      1  0.5509410000000  0.4486770000000  0.5380570000000 1.0
C      1  0.5291030000000  0.5119000000000  0.4181080000000 1.0
C      1  0.4222550000000  0.4367660000000  0.5457570000000 1.0
C      1  0.5623470000000  0.5586880000000  0.4934570000000 1.0
C      1  0.6065080000000  0.4549950000000  0.4895140000000 1.0
C      1  0.4490010000000  0.4416600000000  0.5861610000000 1.0
C      1  0.6078560000000  0.5016340000000  0.5466580000000 1.0
C      1  0.5801800000000  0.4990400000000  0.4408420000000 1.0
C      1  0.4671250000000  0.5361450000000  0.5141450000000 1.0
C      1  0.4469460000000  0.4417200000000  0.5583490000000 1.0
C      1  0.4325620000000  0.4881650000000  0.4887480000000 1.0
C      1  0.5428080000000  0.5774700000000  0.5329860000000 1.0
C      1  0.4550010000000  0.5525700000000  0.5339030000000 1.0
C      1  0.4176880000000  0.5300600000000  0.4484950000000 1.0
C      1  0.4377010000000  0.4743860000000  0.4387380000000 1.0
C      1  0.4853510000000  0.4744090000000  0.4184160000000 1.0
C      1  0.5264380000000  0.4642360000000  0.5803600000000 1.0
C      1  0.4365830000000  0.5110580000000  0.5698330000000 1.0
C      1  0.5357230000000  0.4833160000000  0.4212190000000 1.0
C      1  0.4697460000000  0.4468650000000  0.5422980000000 1.0
C      1  0.5011190000000  0.5013700000000  0.6075810000000 1.0
C      1  0.5317920000000  0.5659520000000  0.4594070000000 1.0
C      1  0.4784560000000  0.4272930000000  0.5231880000000 1.0
C      1  0.5657660000000  0.4573920000000  0.4536250000000 1.0
C      1  0.4801370000000  0.5706160000000  0.4361060000000 1.0
C      1  0.4954140000000  0.5330620000000  0.5177410000000 1.0
C      1  0.4202250000000  0.4534260000000  0.4439000000000 1.0
C      1  0.4060100000000  0.5440370000000  0.4929410000000 1.0
C      1  0.4931230000000  0.5494030000000  0.4227940000000 1.0
C      1  0.4573260000000  0.5273040000000  0.4897810000000 1.0
C      1  0.4798910000000  0.4729980000000  0.5365540000000 1.0
C      1  0.4915690000000  0.5775300000000  0.5080880000000 1.0
C      1  0.5127720000000  0.4637350000000  0.4205860000000 1.0
C      1  0.4790680000000  0.5026390000000  0.4107430000000 1.0
C      1  0.3933990000000  0.4454500000000  0.5018800000000 1.0
C      1  0.5332730000000  0.4109470000000  0.5041870000000 1.0
C      1  0.4624830000000  0.5057870000000  0.5664580000000 1.0
C      1  0.4507740000000  0.5054030000000  0.4713310000000 1.0
C      1  0.4885320000000  0.4752490000000  0.5099760000000 1.0
C      1  0.5684390000000  0.4867650000000  0.5093080000000 1.0
C      1  0.4744750000000  0.5801410000000  0.4840370000000 1.0
C      1  0.5453860000000  0.5381790000000  0.5756130000000 1.0
C      1  0.5111170000000  0.5546570000000  0.5058800000000 1.0
C      1  0.4356870000000  0.5062540000000  0.4427460000000 1.0
C      1  0.5284200000000  0.4270340000000  0.4559340000000 1.0
C      1  0.5344550000000  0.5381570000000  0.4563830000000 1.0
C      1  0.4430830000000  0.4185350000000  0.4674220000000 1.0
C      1  0.5835230000000  0.5064680000000  0.5612170000000 1.0
C      1  0.5434830000000  0.4990290000000  0.5094530000000 1.0
C      1  0.4760080000000  0.4921090000000  0.4610770000000 1.0
C      1  0.4515520000000  0.4435310000000  0.6120280000000 1.0
C      1  0.5918380000000  0.4518740000000  0.4647500000000 1.0
C      1  0.4896950000000  0.5255350000000  0.6086280000000 1.0
C      1  0.4702820000000  0.5639440000000  0.5791900000000 1.0
C      1  0.5371420000000  0.5912790000000  0.4552190000000 1.0
C      1  0.4682340000000  0.4202300000000  0.4764890000000 1.0
C      1  0.5718110000000  0.5326550000000  0.5654020000000 1.0
C      1  0.4425910000000  0.4648200000000  0.4985380000000 1.0
C      1  0.5235740000000  0.4674130000000  0.4800190000000 1.0
C      1  0.4927560000000  0.5813060000000  0.5382850000000 1.0
C      1  0.5692030000000  0.5770300000000  0.5434000000000 1.0
C      1  0.5709190000000  0.5448720000000  0.4269310000000 1.0
C      1  0.4892260000000  0.5842710000000  0.4599590000000 1.0
C      1  0.5163260000000  0.4366900000000  0.4313760000000 1.0
C      1  0.5382270000000  0.4258150000000  0.5264840000000 1.0
C      1  0.5415390000000  0.4505860000000  0.4661970000000 1.0
C      1  0.3958160000000  0.4287070000000  0.4787930000000 1.0
C      1  0.4998520000000  0.5199960000000  0.4237550000000 1.0
C      1  0.5893030000000  0.4968750000000  0.4919760000000 1.0
C      1  0.4206290000000  0.5501040000000  0.4696570000000 1.0
C      1  0.4997380000000  0.4568760000000  0.4920030000000 1.0
C      1  0.4971010000000  0.5099840000000  0.4537700000000 1.0
C      1  0.4131220000000  0.5174830000000  0.5589610000000 1.0
C      1  0.4430400000000  0.5681940000000  0.4673040000000 1.0
C      1  0.4853380000000  0.4318580000000  0.4955180000000 1.0
C      1  0.6212740000000  0.4904640000000  0.5256370000000 1.0
C      1  0.5483710000000  0.4632970000000  0.5628370000000 1.0
C      1  0.6134210000000  0.4823960000000  0.4993170000000 1.0
C      1  0.5464320000000  0.5312700000000  0.4306820000000 1.0
C      1  0.4699070000000  0.5694040000000  0.5516130000000 1.0
C      1  0.5875980000000  0.5064730000000  0.4657530000000 1.0
C      1  0.5847210000000  0.5570300000000  0.4470340000000 1.0
C      1  0.5256880000000  0.5567540000000  0.5713390000000 1.0
C      1  0.5803790000000  0.5605280000000  0.4735210000000 1.0
C      1  0.5293790000000  0.4952790000000  0.4853060000000 1.0
C      1  0.5203800000000  0.5162130000000  0.4685660000000 1.0
C      1  0.4187690000000  0.4318750000000  0.4620750000000 1.0
C      1  0.5830720000000  0.5562010000000  0.5539760000000 1.0
C      1  0.4035930000000  0.4368570000000  0.5267000000000 1.0
C      1  0.4525400000000  0.5129980000000  0.4172800000000 1.0
C      1  0.4013050000000  0.5209110000000  0.5084430000000 1.0
C      1  0.5920240000000  0.4438090000000  0.5115830000000 1.0
C      1  0.3997190000000  0.5222240000000  0.5364000000000 1.0
C      1  0.3765700000000  0.4102100000000  0.4728350000000 1.0
C      1  0.5283100000000  0.4081040000000  0.4773570000000 1.0
C      1  0.5196980000000  0.5758390000000  0.5505000000000 1.0
C      1  0.5298680000000  0.5056820000000  0.5329280000000 1.0
C      1  0.5706240000000  0.4600320000000  0.5208350000000 1.0
C      1  0.5682410000000  0.4833800000000  0.5676590000000 1.0
C      1  0.4782290000000  0.5477180000000  0.5989780000000 1.0
C      1  0.5035650000000  0.5141760000000  0.5372120000000 1.0
C      1  0.5120660000000  0.4792910000000  0.5972090000000 1.0
C      1  0.3885250000000  0.4732150000000  0.4986450000000 1.0
C      1  0.4676980000000  0.4712170000000  0.4413970000000 1.0
C      1  0.4835530000000  0.4975430000000  0.5501090000000 1.0
C      1  0.5619460000000  0.4782970000000  0.4340650000000 1.0
END
