TITL C-627106-156-1523 -3.34322313806336e-07 125000 -1136.75053691103 0 0 184 (C1) n - 1
REM
REM in /home/nfs/bkarasulu/CARBON/AIRSS/Generating-Clusters/LCBOP/Only-C1/SD-CG/FIRE-CG
REM
REM
REM
REM
REM
REM ./C.cell (11c1c37f851c82e70ff6c80c92926a4b)
REM AIRSS Version 0.9.1 bugfix July 2018 build 013d7b7c2542+ Fri, 06 Jul 2018 19:26:36 +0100
REM compiler GCC version 9.2.1 20190827 (Red Hat 9.2.1-1)
REM options -cpp -mtune=generic -march=x86-64 -g -O0 -fpre-include=/usr/include/finclude/math-vector-fortran.h
REM seed -1521042113 1858355621 1031307540 643313721 507713088 -133483160 472121910 458933228 -949387907 -1032293576 -1609014706 1898909837 -791840032 176138133 -2082446073 80732595 -1764929697 -1186611801 1271975869 -497383936 1257061752 751449880 -1449147098 482541415 -1479648699 -843861559 744595207 -2026148438 81043341 132278661 -1436844219 -677004262 -759120436
REM
CELL 1.54180   50.00000   50.00000   50.00000   90.00000   90.00000   90.00000
LATT -1
SFAC C  
C      1  0.4489410000000  0.3838340000000  0.5327010000000 1.0
C      1  0.4749150000000  0.5397110000000  0.5049800000000 1.0
C      1  0.4602640000000  0.4182650000000  0.4718960000000 1.0
C      1  0.5024660000000  0.5554760000000  0.6048100000000 1.0
C      1  0.5271130000000  0.4305480000000  0.4118990000000 1.0
C      1  0.4758200000000  0.6154400000000  0.5072010000000 1.0
C      1  0.5062090000000  0.4157560000000  0.4915110000000 1.0
C      1  0.4939980000000  0.5284970000000  0.6109310000000 1.0
C      1  0.3857550000000  0.5619150000000  0.5162640000000 1.0
C      1  0.4974030000000  0.4730580000000  0.4820600000000 1.0
C      1  0.6186030000000  0.4925620000000  0.4244120000000 1.0
C      1  0.5344590000000  0.5963670000000  0.5329330000000 1.0
C      1  0.4750630000000  0.5494470000000  0.4605830000000 1.0
C      1  0.3915220000000  0.5641390000000  0.4121040000000 1.0
C      1  0.4961690000000  0.4637320000000  0.4355050000000 1.0
C      1  0.4219650000000  0.5230940000000  0.5827140000000 1.0
C      1  0.5464930000000  0.4646350000000  0.4408460000000 1.0
C      1  0.5774590000000  0.5805340000000  0.4632390000000 1.0
C      1  0.4134380000000  0.5901370000000  0.4884660000000 1.0
C      1  0.5095380000000  0.5583240000000  0.5470030000000 1.0
C      1  0.5784060000000  0.5394260000000  0.3814910000000 1.0
C      1  0.4901970000000  0.6389350000000  0.5138620000000 1.0
C      1  0.5446210000000  0.4548330000000  0.4703350000000 1.0
C      1  0.4644560000000  0.5833080000000  0.5804390000000 1.0
C      1  0.4407910000000  0.5290670000000  0.5380010000000 1.0
C      1  0.5902060000000  0.5089920000000  0.5788190000000 1.0
C      1  0.4544030000000  0.5045440000000  0.5432880000000 1.0
C      1  0.4632730000000  0.5297890000000  0.4025520000000 1.0
C      1  0.6173940000000  0.4735830000000  0.4896470000000 1.0
C      1  0.4597740000000  0.4066940000000  0.6092640000000 1.0
C      1  0.5215470000000  0.4555210000000  0.4249060000000 1.0
C      1  0.4754480000000  0.4755120000000  0.5875600000000 1.0
C      1  0.4062880000000  0.5047350000000  0.5966150000000 1.0
C      1  0.5710180000000  0.4391310000000  0.5394550000000 1.0
C      1  0.4917820000000  0.5386170000000  0.4400050000000 1.0
C      1  0.5478330000000  0.4399860000000  0.4947100000000 1.0
C      1  0.4072190000000  0.5994780000000  0.4430460000000 1.0
C      1  0.4810270000000  0.3271620000000  0.5498460000000 1.0
C      1  0.5286140000000  0.5194370000000  0.5390740000000 1.0
C      1  0.4684940000000  0.3656520000000  0.5235310000000 1.0
C      1  0.6297280000000  0.4519190000000  0.5044020000000 1.0
C      1  0.5186020000000  0.5120560000000  0.6103300000000 1.0
C      1  0.3818290000000  0.4524520000000  0.4738470000000 1.0
C      1  0.5693190000000  0.4446250000000  0.4325410000000 1.0
C      1  0.6036350000000  0.5743270000000  0.3596870000000 1.0
C      1  0.6191570000000  0.4269910000000  0.5054470000000 1.0
C      1  0.4619890000000  0.4914930000000  0.6072060000000 1.0
C      1  0.4665990000000  0.5206690000000  0.6062830000000 1.0
C      1  0.4911850000000  0.4905750000000  0.5698220000000 1.0
C      1  0.4248780000000  0.6015530000000  0.4652300000000 1.0
C      1  0.5673130000000  0.5184000000000  0.3936850000000 1.0
C      1  0.4855170000000  0.4898760000000  0.4274520000000 1.0
C      1  0.6119190000000  0.5662890000000  0.4333660000000 1.0
C      1  0.4337010000000  0.5313460000000  0.4852600000000 1.0
C      1  0.5484610000000  0.4860110000000  0.5855130000000 1.0
C      1  0.3985360000000  0.5726260000000  0.5409330000000 1.0
C      1  0.3728120000000  0.5369860000000  0.5197740000000 1.0
C      1  0.6139140000000  0.4990220000000  0.5065430000000 1.0
C      1  0.5821650000000  0.5396990000000  0.5151340000000 1.0
C      1  0.5417780000000  0.4811860000000  0.5078940000000 1.0
C      1  0.5455730000000  0.5879430000000  0.5581060000000 1.0
C      1  0.5979630000000  0.5303090000000  0.5613100000000 1.0
C      1  0.4043210000000  0.5153570000000  0.4441440000000 1.0
C      1  0.5720580000000  0.4350980000000  0.5104550000000 1.0
C      1  0.4508970000000  0.5771850000000  0.5221950000000 1.0
C      1  0.5499230000000  0.4945360000000  0.4353230000000 1.0
C      1  0.5974010000000  0.5601530000000  0.3821840000000 1.0
C      1  0.5598280000000  0.3781640000000  0.4824060000000 1.0
C      1  0.4689530000000  0.5976780000000  0.5295460000000 1.0
C      1  0.6227120000000  0.5221780000000  0.5489390000000 1.0
C      1  0.4432200000000  0.5519770000000  0.4026740000000 1.0
C      1  0.5674490000000  0.5983890000000  0.5702810000000 1.0
C      1  0.3916600000000  0.5714310000000  0.4887380000000 1.0
C      1  0.4551400000000  0.5490260000000  0.5228090000000 1.0
C      1  0.5287440000000  0.6034270000000  0.4616310000000 1.0
C      1  0.5084730000000  0.4092020000000  0.4132200000000 1.0
C      1  0.5126520000000  0.5135530000000  0.4897800000000 1.0
C      1  0.4422190000000  0.4537340000000  0.3989510000000 1.0
C      1  0.5251400000000  0.4275310000000  0.5351930000000 1.0
C      1  0.5933510000000  0.5149910000000  0.4582000000000 1.0
C      1  0.5904180000000  0.4413720000000  0.4528670000000 1.0
C      1  0.5301230000000  0.3785750000000  0.5632990000000 1.0
C      1  0.4721720000000  0.4460750000000  0.5497120000000 1.0
C      1  0.4759000000000  0.6088900000000  0.4782720000000 1.0
C      1  0.4860370000000  0.3531170000000  0.5424790000000 1.0
C      1  0.5479040000000  0.3988440000000  0.5644080000000 1.0
C      1  0.3721000000000  0.5115800000000  0.5279060000000 1.0
C      1  0.5490360000000  0.4231800000000  0.5503680000000 1.0
C      1  0.5668580000000  0.3966040000000  0.4622870000000 1.0
C      1  0.5081540000000  0.3665630000000  0.5537920000000 1.0
C      1  0.5664410000000  0.4898100000000  0.4968050000000 1.0
C      1  0.4910960000000  0.3732220000000  0.4771030000000 1.0
C      1  0.5549100000000  0.5127780000000  0.5460040000000 1.0
C      1  0.5113910000000  0.3877410000000  0.4903740000000 1.0
C      1  0.6262130000000  0.4723800000000  0.4406300000000 1.0
C      1  0.6040830000000  0.5277140000000  0.4995930000000 1.0
C      1  0.5536760000000  0.4825340000000  0.5558870000000 1.0
C      1  0.4874080000000  0.5579210000000  0.4862010000000 1.0
C      1  0.4653210000000  0.4999230000000  0.4078320000000 1.0
C      1  0.5363410000000  0.3760930000000  0.4951830000000 1.0
C      1  0.6097730000000  0.5658130000000  0.4068040000000 1.0
C      1  0.3826730000000  0.4507980000000  0.5004820000000 1.0
C      1  0.5929320000000  0.4216960000000  0.4966540000000 1.0
C      1  0.5195170000000  0.4624840000000  0.6179990000000 1.0
C      1  0.4850180000000  0.5145590000000  0.4984300000000 1.0
C      1  0.4675490000000  0.4553260000000  0.5248320000000 1.0
C      1  0.5359110000000  0.4727990000000  0.5342250000000 1.0
C      1  0.4505920000000  0.4089250000000  0.4249230000000 1.0
C      1  0.5347020000000  0.6229620000000  0.5246770000000 1.0
C      1  0.4973610000000  0.5110540000000  0.4421440000000 1.0
C      1  0.3804690000000  0.4866180000000  0.5322970000000 1.0
C      1  0.6002720000000  0.4820190000000  0.5563850000000 1.0
C      1  0.6175520000000  0.4962120000000  0.5360360000000 1.0
C      1  0.5156650000000  0.5759390000000  0.5237930000000 1.0
C      1  0.5163320000000  0.6417490000000  0.5194330000000 1.0
C      1  0.5267820000000  0.4847600000000  0.6042150000000 1.0
C      1  0.6043130000000  0.5373830000000  0.4718470000000 1.0
C      1  0.5426560000000  0.5291340000000  0.6007790000000 1.0
C      1  0.5030810000000  0.5300980000000  0.5451770000000 1.0
C      1  0.3920800000000  0.5760060000000  0.4383250000000 1.0
C      1  0.4537610000000  0.5769110000000  0.4131810000000 1.0
C      1  0.4449650000000  0.5380440000000  0.5948610000000 1.0
C      1  0.5025400000000  0.6081630000000  0.4665470000000 1.0
C      1  0.4647210000000  0.4277300000000  0.5947020000000 1.0
C      1  0.4710770000000  0.5994800000000  0.5578250000000 1.0
C      1  0.4306900000000  0.4303820000000  0.5183550000000 1.0
C      1  0.3883090000000  0.4660780000000  0.4518610000000 1.0
C      1  0.4350490000000  0.4067830000000  0.5337350000000 1.0
C      1  0.3930870000000  0.4629780000000  0.5237300000000 1.0
C      1  0.5714840000000  0.5041110000000  0.4730430000000 1.0
C      1  0.5866980000000  0.4172180000000  0.4689340000000 1.0
C      1  0.6100860000000  0.4624060000000  0.4620830000000 1.0
C      1  0.5646290000000  0.5103680000000  0.5920520000000 1.0
C      1  0.4847930000000  0.5764220000000  0.5989160000000 1.0
C      1  0.5615030000000  0.5536380000000  0.5015320000000 1.0
C      1  0.4568090000000  0.4731400000000  0.5049820000000 1.0
C      1  0.4729060000000  0.3618450000000  0.4955340000000 1.0
C      1  0.4180190000000  0.5637960000000  0.5608870000000 1.0
C      1  0.4366000000000  0.4797150000000  0.5436930000000 1.0
C      1  0.5703810000000  0.5041730000000  0.4174890000000 1.0
C      1  0.5125000000000  0.3920760000000  0.4357390000000 1.0
C      1  0.5308770000000  0.5282200000000  0.4745710000000 1.0
C      1  0.4474210000000  0.5385090000000  0.4612760000000 1.0
C      1  0.4204590000000  0.4562140000000  0.5313390000000 1.0
C      1  0.4434580000000  0.4288170000000  0.4085300000000 1.0
C      1  0.4409980000000  0.5663400000000  0.5813680000000 1.0
C      1  0.4400610000000  0.4263730000000  0.4906750000000 1.0
C      1  0.5766050000000  0.5311480000000  0.5416200000000 1.0
C      1  0.5133320000000  0.5665520000000  0.4968250000000 1.0
C      1  0.4486450000000  0.4796820000000  0.3973970000000 1.0
C      1  0.3683700000000  0.5645200000000  0.3974790000000 1.0
C      1  0.4870660000000  0.5434900000000  0.4125450000000 1.0
C      1  0.4396240000000  0.4813190000000  0.6209920000000 1.0
C      1  0.4877810000000  0.3840930000000  0.4504840000000 1.0
C      1  0.4826030000000  0.5096560000000  0.5510510000000 1.0
C      1  0.5291110000000  0.5541000000000  0.5929680000000 1.0
C      1  0.5476760000000  0.3995560000000  0.4411130000000 1.0
C      1  0.3857270000000  0.5603630000000  0.4622600000000 1.0
C      1  0.5956240000000  0.5072260000000  0.4309480000000 1.0
C      1  0.4138390000000  0.4865050000000  0.6149640000000 1.0
C      1  0.4314390000000  0.4827000000000  0.4972490000000 1.0
C      1  0.4763090000000  0.4882730000000  0.4930590000000 1.0
C      1  0.5530980000000  0.4217210000000  0.4228310000000 1.0
C      1  0.4867790000000  0.4290980000000  0.4751150000000 1.0
C      1  0.4595660000000  0.5935670000000  0.4335730000000 1.0
C      1  0.4632410000000  0.4006250000000  0.4485920000000 1.0
C      1  0.5542410000000  0.5943210000000  0.4610480000000 1.0
C      1  0.5200900000000  0.4860410000000  0.4917030000000 1.0
C      1  0.5242160000000  0.4299460000000  0.5072470000000 1.0
C      1  0.4233120000000  0.5079940000000  0.4935780000000 1.0
C      1  0.5297280000000  0.5661390000000  0.5676050000000 1.0
C      1  0.4704170000000  0.4491400000000  0.5779350000000 1.0
C      1  0.5474560000000  0.5115050000000  0.4587870000000 1.0
C      1  0.4150010000000  0.5521240000000  0.4013150000000 1.0
C      1  0.5782600000000  0.4649180000000  0.5513940000000 1.0
C      1  0.5995300000000  0.5627690000000  0.4585550000000 1.0
C      1  0.4921690000000  0.4540460000000  0.4626710000000 1.0
C      1  0.4308710000000  0.5256940000000  0.4414410000000 1.0
C      1  0.3858070000000  0.5326080000000  0.4571200000000 1.0
C      1  0.4534280000000  0.6028950000000  0.4600840000000 1.0
C      1  0.4286100000000  0.5887090000000  0.5110690000000 1.0
C      1  0.4201750000000  0.5347730000000  0.5564380000000 1.0
C      1  0.3975240000000  0.4884760000000  0.4407120000000 1.0
C      1  0.5369370000000  0.5526900000000  0.4873960000000 1.0
END
