TITL C-627108-131-831 -6.70630455241062e-07 125000 -598.333228120601 0 0 98 (C1) n - 1
REM
REM in /home/nfs/bkarasulu/CARBON/AIRSS/Generating-Clusters/LCBOP/Only-C1/SD-CG/FIRE-CG
REM
REM
REM
REM
REM
REM ./C.cell (11c1c37f851c82e70ff6c80c92926a4b)
REM AIRSS Version 0.9.1 bugfix July 2018 build 013d7b7c2542+ Fri, 06 Jul 2018 19:26:36 +0100
REM compiler GCC version 9.2.1 20190827 (Red Hat 9.2.1-1)
REM options -cpp -mtune=generic -march=x86-64 -g -O0 -fpre-include=/usr/include/finclude/math-vector-fortran.h
REM seed -503402664 -616183387 511734108 1103167541 -1232326939 1802011174 1303745167 1004343719 199036378 -382233244 -1068262627 -978387345 -1565017610 256892031 -515551993 -1144136086 -1827678 594291649 -1473061702 -523824185 2008089514 1336263450 -1596117591 1936480913 -174338679 -854976126 1123813641 -1067689500 109136898 -1581576199 884110006 1815894453 -364566550
REM
CELL 1.54180   50.00000   50.00000   50.00000   90.00000   90.00000   90.00000
LATT -1
SFAC C  
C      1  0.5821800000000  0.5501680000000  0.4044470000000 1.0
C      1  0.5723750000000  0.4630510000000  0.4990280000000 1.0
C      1  0.3913600000000  0.5382490000000  0.4858570000000 1.0
C      1  0.4032800000000  0.5231840000000  0.5272180000000 1.0
C      1  0.4422200000000  0.4875980000000  0.5789390000000 1.0
C      1  0.5417640000000  0.4725710000000  0.5434010000000 1.0
C      1  0.4676700000000  0.4792840000000  0.5139060000000 1.0
C      1  0.4342120000000  0.5490830000000  0.4716890000000 1.0
C      1  0.4933250000000  0.4549880000000  0.5528810000000 1.0
C      1  0.4899800000000  0.5459660000000  0.5673750000000 1.0
C      1  0.5076320000000  0.5445260000000  0.5224720000000 1.0
C      1  0.4907230000000  0.4288990000000  0.4459060000000 1.0
C      1  0.5729480000000  0.5101020000000  0.5579680000000 1.0
C      1  0.4365960000000  0.4360430000000  0.4965630000000 1.0
C      1  0.5424440000000  0.4507860000000  0.5894410000000 1.0
C      1  0.4225790000000  0.5047880000000  0.4553900000000 1.0
C      1  0.5733500000000  0.4726860000000  0.4715520000000 1.0
C      1  0.4484920000000  0.5170410000000  0.5282750000000 1.0
C      1  0.4546580000000  0.4219340000000  0.4788320000000 1.0
C      1  0.4255850000000  0.4628040000000  0.4903190000000 1.0
C      1  0.5247290000000  0.5597620000000  0.4358200000000 1.0
C      1  0.5842100000000  0.4836810000000  0.5178260000000 1.0
C      1  0.5207590000000  0.5034350000000  0.5046900000000 1.0
C      1  0.4896740000000  0.5014420000000  0.4131180000000 1.0
C      1  0.5848980000000  0.4854250000000  0.5473770000000 1.0
C      1  0.4998170000000  0.5173630000000  0.5194720000000 1.0
C      1  0.4728640000000  0.4374980000000  0.4251880000000 1.0
C      1  0.5403450000000  0.5440690000000  0.4877940000000 1.0
C      1  0.4849690000000  0.5182410000000  0.5789570000000 1.0
C      1  0.4343970000000  0.4640870000000  0.5674470000000 1.0
C      1  0.5527420000000  0.5476370000000  0.5357780000000 1.0
C      1  0.5512210000000  0.4611370000000  0.5660480000000 1.0
C      1  0.4279520000000  0.4799500000000  0.5121410000000 1.0
C      1  0.5309140000000  0.4286920000000  0.4907360000000 1.0
C      1  0.4655640000000  0.5537570000000  0.5503100000000 1.0
C      1  0.4757940000000  0.4671220000000  0.4893670000000 1.0
C      1  0.5174280000000  0.5836570000000  0.5819690000000 1.0
C      1  0.5339060000000  0.4846570000000  0.5208420000000 1.0
C      1  0.4918710000000  0.4152400000000  0.5222430000000 1.0
C      1  0.5287110000000  0.5181560000000  0.4798210000000 1.0
C      1  0.5531610000000  0.5591640000000  0.4438600000000 1.0
C      1  0.5146160000000  0.4449500000000  0.4474350000000 1.0
C      1  0.4118590000000  0.5278850000000  0.4691080000000 1.0
C      1  0.5853400000000  0.5131410000000  0.5113670000000 1.0
C      1  0.4614810000000  0.4771120000000  0.4664730000000 1.0
C      1  0.5035790000000  0.4147980000000  0.4952420000000 1.0
C      1  0.4523910000000  0.5651350000000  0.5248710000000 1.0
C      1  0.4457350000000  0.4505930000000  0.5452530000000 1.0
C      1  0.4238720000000  0.5042870000000  0.5234070000000 1.0
C      1  0.5553550000000  0.4250530000000  0.5312090000000 1.0
C      1  0.4485060000000  0.5453150000000  0.4444650000000 1.0
C      1  0.4716110000000  0.5600070000000  0.4342730000000 1.0
C      1  0.4733540000000  0.5195920000000  0.4826520000000 1.0
C      1  0.4654020000000  0.4591440000000  0.4105130000000 1.0
C      1  0.4427670000000  0.4295900000000  0.5250820000000 1.0
C      1  0.5736920000000  0.5279340000000  0.5336660000000 1.0
C      1  0.5033100000000  0.4649400000000  0.4869160000000 1.0
C      1  0.5596370000000  0.5568630000000  0.4715540000000 1.0
C      1  0.5702750000000  0.5412070000000  0.4280100000000 1.0
C      1  0.4940510000000  0.5683580000000  0.4725700000000 1.0
C      1  0.4827420000000  0.4177730000000  0.4722030000000 1.0
C      1  0.4044650000000  0.5465790000000  0.5105390000000 1.0
C      1  0.5555230000000  0.4371950000000  0.5053650000000 1.0
C      1  0.5505210000000  0.5202660000000  0.5737970000000 1.0
C      1  0.5186760000000  0.6075220000000  0.5923610000000 1.0
C      1  0.5066500000000  0.5230790000000  0.4059720000000 1.0
C      1  0.5205920000000  0.5145610000000  0.4515390000000 1.0
C      1  0.4706930000000  0.4638740000000  0.5381030000000 1.0
C      1  0.4326430000000  0.4789260000000  0.4663790000000 1.0
C      1  0.5212920000000  0.5326000000000  0.4282830000000 1.0
C      1  0.4767080000000  0.5003670000000  0.4607130000000 1.0
C      1  0.4641580000000  0.4102490000000  0.5268490000000 1.0
C      1  0.5159480000000  0.5582090000000  0.5704570000000 1.0
C      1  0.5058570000000  0.4301400000000  0.5428470000000 1.0
C      1  0.4812640000000  0.5468340000000  0.4824750000000 1.0
C      1  0.5747880000000  0.4915650000000  0.4521910000000 1.0
C      1  0.5222810000000  0.4494930000000  0.4738530000000 1.0
C      1  0.5001500000000  0.4685620000000  0.5778220000000 1.0
C      1  0.4502710000000  0.5289700000000  0.5532370000000 1.0
C      1  0.5342140000000  0.5516190000000  0.5147100000000 1.0
C      1  0.5745140000000  0.5143840000000  0.4376340000000 1.0
C      1  0.5403750000000  0.5453150000000  0.5622980000000 1.0
C      1  0.5160440000000  0.4528000000000  0.5956600000000 1.0
C      1  0.5040470000000  0.4972610000000  0.5818820000000 1.0
C      1  0.4432970000000  0.5038910000000  0.4106500000000 1.0
C      1  0.4569800000000  0.5114000000000  0.5748990000000 1.0
C      1  0.5960790000000  0.5292110000000  0.4911340000000 1.0
C      1  0.5928010000000  0.5587420000000  0.3822480000000 1.0
C      1  0.4982340000000  0.5691420000000  0.4443470000000 1.0
C      1  0.5308260000000  0.5054180000000  0.5870890000000 1.0
C      1  0.4379640000000  0.5187660000000  0.4339330000000 1.0
C      1  0.4997250000000  0.4946100000000  0.4414490000000 1.0
C      1  0.5141420000000  0.4693870000000  0.4343230000000 1.0
C      1  0.4719730000000  0.5087470000000  0.5119890000000 1.0
C      1  0.5328540000000  0.4219770000000  0.5461880000000 1.0
C      1  0.5864340000000  0.5512460000000  0.4788580000000 1.0
C      1  0.4322710000000  0.5579830000000  0.5028150000000 1.0
C      1  0.4658650000000  0.4875060000000  0.4065810000000 1.0
END
