TITL C-627106-156-1241 15056.6092010029 125000 -923.451381076278 0 0 151 (C1) n - 1
REM
REM in /home/nfs/bkarasulu/CARBON/AIRSS/Generating-Clusters/LCBOP/Only-C1/SD-CG/FIRE-CG
REM
REM
REM
REM
REM
REM ./C.cell (11c1c37f851c82e70ff6c80c92926a4b)
REM AIRSS Version 0.9.1 bugfix July 2018 build 013d7b7c2542+ Fri, 06 Jul 2018 19:26:36 +0100
REM compiler GCC version 9.2.1 20190827 (Red Hat 9.2.1-1)
REM options -cpp -mtune=generic -march=x86-64 -g -O0 -fpre-include=/usr/include/finclude/math-vector-fortran.h
REM seed -160724714 -766033352 -2014635901 -1362313764 -1120158815 801926775 119100631 -647267368 1691098027 378351627 1138271625 380440899 -640134058 720280078 -1209108487 -1009414542 2131280783 1490596490 -1963080640 1804034966 2025286509 -1524922845 332398005 1892707198 -1543799909 1314794000 2055261718 -1758815890 -586578662 1213096538 819156563 -6214087 -1871174770
REM
CELL 1.54180   50.00000   50.00000   50.00000   90.00000   90.00000   90.00000
LATT -1
SFAC C  
C      1  0.5495910000000  0.4576750000000  0.4484570000000 1.0
C      1  0.6220050000000  0.5203860000000  0.4548320000000 1.0
C      1  0.5434170000000  0.5271110000000  0.5073270000000 1.0
C      1  0.4127620000000  0.4836330000000  0.4319280000000 1.0
C      1  0.4355320000000  0.4946610000000  0.4148750000000 1.0
C      1  0.5345050000000  0.4637610000000  0.5034200000000 1.0
C      1  0.5564150000000  0.5319210000000  0.3983540000000 1.0
C      1  0.6107840000000  0.3973630000000  0.5818620000000 1.0
C      1  0.3706170000000  0.4893380000000  0.5156290000000 1.0
C      1  0.4853170000000  0.6189440000000  0.4459520000000 1.0
C      1  0.5081120000000  0.5626760000000  0.5667210000000 1.0
C      1  0.6281390000000  0.4703550000000  0.6465090000000 1.0
C      1  0.4094620000000  0.5469340000000  0.4653520000000 1.0
C      1  0.5871670000000  0.4571540000000  0.6163760000000 1.0
C      1  0.4799000000000  0.4162830000000  0.4362380000000 1.0
C      1  0.5317680000000  0.4781480000000  0.4596030000000 1.0
C      1  0.4227980000000  0.5136530000000  0.3955760000000 1.0
C      1  0.4515960000000  0.4717890000000  0.4744510000000 1.0
C      1  0.4399630000000  0.5593580000000  0.5832660000000 1.0
C      1  0.5987450000000  0.5067060000000  0.4622850000000 1.0
C      1  0.4516890000000  0.5363790000000  0.4353370000000 1.0
C      1  0.5431260000000  0.4683820000000  0.6021730000000 1.0
C      1  0.4950190000000  0.4727410000000  0.5785840000000 1.0
C      1  0.6076110000000  0.4633690000000  0.6320370000000 1.0
C      1  0.5545950000000  0.5493270000000  0.5551030000000 1.0
C      1  0.4431060000000  0.5841610000000  0.5201650000000 1.0
C      1  0.4601660000000  0.5822600000000  0.4290890000000 1.0
C      1  0.4046220000000  0.5227490000000  0.5186590000000 1.0
C      1  0.4206080000000  0.4342720000000  0.5907410000000 1.0
C      1  0.5658440000000  0.5347160000000  0.3726810000000 1.0
C      1  0.5458430000000  0.4832690000000  0.4856830000000 1.0
C      1  0.5085280000000  0.4760550000000  0.6036420000000 1.0
C      1  0.5173030000000  0.3918700000000  0.4550690000000 1.0
C      1  0.5089590000000  0.4725500000000  0.5102650000000 1.0
C      1  0.5024470000000  0.5863850000000  0.4891430000000 1.0
C      1  0.4810270000000  0.5486810000000  0.6073850000000 1.0
C      1  0.5313050000000  0.5757190000000  0.4152520000000 1.0
C      1  0.5157570000000  0.5190510000000  0.4999130000000 1.0
C      1  0.4028510000000  0.4527490000000  0.5391080000000 1.0
C      1  0.5887350000000  0.4495080000000  0.4785120000000 1.0
C      1  0.4775570000000  0.4230210000000  0.4635650000000 1.0
C      1  0.4193800000000  0.5422880000000  0.5796690000000 1.0
C      1  0.5059610000000  0.4933540000000  0.4578160000000 1.0
C      1  0.6534270000000  0.5195850000000  0.4151030000000 1.0
C      1  0.5481550000000  0.5550810000000  0.4120480000000 1.0
C      1  0.6229690000000  0.4926220000000  0.3872510000000 1.0
C      1  0.5773640000000  0.4629730000000  0.4558060000000 1.0
C      1  0.4664870000000  0.5550070000000  0.4198600000000 1.0
C      1  0.4225930000000  0.5914480000000  0.4675800000000 1.0
C      1  0.5254640000000  0.4128860000000  0.4992670000000 1.0
C      1  0.5266290000000  0.5869320000000  0.4744990000000 1.0
C      1  0.4792180000000  0.4681300000000  0.4191950000000 1.0
C      1  0.4372080000000  0.4152800000000  0.5811240000000 1.0
C      1  0.4846760000000  0.5975870000000  0.4276030000000 1.0
C      1  0.4368230000000  0.5812480000000  0.4450040000000 1.0
C      1  0.4790140000000  0.4022950000000  0.4836310000000 1.0
C      1  0.5082230000000  0.5181360000000  0.4721030000000 1.0
C      1  0.5036920000000  0.5800170000000  0.4129410000000 1.0
C      1  0.4671180000000  0.5659770000000  0.5884960000000 1.0
C      1  0.4127410000000  0.5696380000000  0.4842600000000 1.0
C      1  0.3981980000000  0.4500640000000  0.5108640000000 1.0
C      1  0.5527860000000  0.5494740000000  0.5252880000000 1.0
C      1  0.5665610000000  0.4535490000000  0.5974290000000 1.0
C      1  0.4623190000000  0.4694810000000  0.5031940000000 1.0
C      1  0.5506030000000  0.5815530000000  0.4865230000000 1.0
C      1  0.5538790000000  0.5767680000000  0.5145150000000 1.0
C      1  0.5099560000000  0.4920540000000  0.5615670000000 1.0
C      1  0.4671330000000  0.4659850000000  0.5658040000000 1.0
C      1  0.5408350000000  0.4357890000000  0.5068420000000 1.0
C      1  0.5059540000000  0.5740340000000  0.5141900000000 1.0
C      1  0.5305230000000  0.4908870000000  0.4079340000000 1.0
C      1  0.5585770000000  0.4916740000000  0.5466290000000 1.0
C      1  0.5353260000000  0.4520270000000  0.5531140000000 1.0
C      1  0.5987680000000  0.4878640000000  0.3974340000000 1.0
C      1  0.5445450000000  0.4314000000000  0.4407130000000 1.0
C      1  0.5339410000000  0.4803010000000  0.5523770000000 1.0
C      1  0.4846940000000  0.5804040000000  0.5699420000000 1.0
C      1  0.5879020000000  0.5099900000000  0.4884100000000 1.0
C      1  0.4283320000000  0.4562230000000  0.4705330000000 1.0
C      1  0.4765530000000  0.3959310000000  0.5589520000000 1.0
C      1  0.5797500000000  0.4933500000000  0.4174400000000 1.0
C      1  0.4674050000000  0.5123200000000  0.5658340000000 1.0
C      1  0.4892640000000  0.4592740000000  0.4965170000000 1.0
C      1  0.5357930000000  0.5648050000000  0.5700250000000 1.0
C      1  0.4155440000000  0.4593570000000  0.4458500000000 1.0
C      1  0.4461560000000  0.4746070000000  0.5871050000000 1.0
C      1  0.4536400000000  0.5218780000000  0.5105140000000 1.0
C      1  0.4966320000000  0.3932160000000  0.4347690000000 1.0
C      1  0.4803840000000  0.6049990000000  0.4938710000000 1.0
C      1  0.4209350000000  0.4616980000000  0.5838110000000 1.0
C      1  0.4962210000000  0.5273510000000  0.6145790000000 1.0
C      1  0.3938380000000  0.5245480000000  0.4596100000000 1.0
C      1  0.5125030000000  0.5946450000000  0.5339560000000 1.0
C      1  0.4822200000000  0.5152620000000  0.3718600000000 1.0
C      1  0.4745540000000  0.5399850000000  0.5070000000000 1.0
C      1  0.4773390000000  0.4385180000000  0.4195480000000 1.0
C      1  0.4948910000000  0.3778920000000  0.5547730000000 1.0
C      1  0.3765330000000  0.4662830000000  0.5026490000000 1.0
C      1  0.4892070000000  0.5563260000000  0.4029860000000 1.0
C      1  0.5733060000000  0.4356910000000  0.5751370000000 1.0
C      1  0.4586130000000  0.4168380000000  0.5627340000000 1.0
C      1  0.4053420000000  0.5199060000000  0.5741210000000 1.0
C      1  0.5072810000000  0.4776710000000  0.4109210000000 1.0
C      1  0.6429290000000  0.5251650000000  0.4390600000000 1.0
C      1  0.5868790000000  0.4875670000000  0.4446800000000 1.0
C      1  0.5016930000000  0.4991430000000  0.5144430000000 1.0
C      1  0.4269810000000  0.5639000000000  0.5083690000000 1.0
C      1  0.5080960000000  0.3965230000000  0.4829180000000 1.0
C      1  0.6454390000000  0.5057450000000  0.3935760000000 1.0
C      1  0.5405800000000  0.4056830000000  0.4470620000000 1.0
C      1  0.6016020000000  0.5114500000000  0.5374940000000 1.0
C      1  0.5871020000000  0.4393300000000  0.5038490000000 1.0
C      1  0.4906580000000  0.4457520000000  0.4725570000000 1.0
C      1  0.4306070000000  0.5519570000000  0.4466200000000 1.0
C      1  0.6046000000000  0.5125650000000  0.5108900000000 1.0
C      1  0.3968640000000  0.4979120000000  0.5580710000000 1.0
C      1  0.4643520000000  0.4950770000000  0.5180750000000 1.0
C      1  0.4580590000000  0.4800500000000  0.4004320000000 1.0
C      1  0.4670790000000  0.6001340000000  0.5209350000000 1.0
C      1  0.4916500000000  0.5382120000000  0.3819920000000 1.0
C      1  0.4527260000000  0.5030360000000  0.5891570000000 1.0
C      1  0.4400440000000  0.4255670000000  0.5066470000000 1.0
C      1  0.4110160000000  0.5306700000000  0.3797590000000 1.0
C      1  0.5686910000000  0.5296030000000  0.5701610000000 1.0
C      1  0.5596850000000  0.5214020000000  0.5959000000000 1.0
C      1  0.4558910000000  0.4028880000000  0.4998980000000 1.0
C      1  0.4188120000000  0.4402580000000  0.4931150000000 1.0
C      1  0.5409060000000  0.5968290000000  0.5315570000000 1.0
C      1  0.5927490000000  0.4159030000000  0.5786780000000 1.0
C      1  0.3877770000000  0.5049300000000  0.5317320000000 1.0
C      1  0.4048580000000  0.4704230000000  0.5616620000000 1.0
C      1  0.5790160000000  0.5091600000000  0.5537360000000 1.0
C      1  0.4729540000000  0.4850780000000  0.4490200000000 1.0
C      1  0.5131040000000  0.5047850000000  0.6125730000000 1.0
C      1  0.4624070000000  0.4903610000000  0.5466030000000 1.0
C      1  0.5010480000000  0.5414620000000  0.5490420000000 1.0
C      1  0.4953680000000  0.5169030000000  0.5605120000000 1.0
C      1  0.5548600000000  0.5054600000000  0.4093830000000 1.0
C      1  0.5598460000000  0.4377520000000  0.5500980000000 1.0
C      1  0.4852990000000  0.5984080000000  0.5458760000000 1.0
C      1  0.3953080000000  0.5028410000000  0.4437860000000 1.0
C      1  0.4287340000000  0.5355110000000  0.5139360000000 1.0
C      1  0.4615850000000  0.4418510000000  0.5492320000000 1.0
C      1  0.4945560000000  0.5503740000000  0.5229550000000 1.0
C      1  0.4770550000000  0.6221980000000  0.4716890000000 1.0
C      1  0.5600450000000  0.5071490000000  0.4934680000000 1.0
C      1  0.5420010000000  0.5045850000000  0.6090600000000 1.0
C      1  0.4536750000000  0.4461380000000  0.5219120000000 1.0
C      1  0.4535430000000  0.5087860000000  0.4365770000000 1.0
C      1  0.4684170000000  0.4927830000000  0.3770940000000 1.0
C      1  0.5656800000000  0.4333240000000  0.5219190000000 1.0
END
