TITL C-627106-156-1446 6389.68095682002 125000 -1024.3262437329 0 0 168 (C1) n - 1
REM
REM in /home/nfs/bkarasulu/CARBON/AIRSS/Generating-Clusters/LCBOP/Only-C1/SD-CG/FIRE-CG
REM
REM
REM
REM
REM
REM ./C.cell (11c1c37f851c82e70ff6c80c92926a4b)
REM AIRSS Version 0.9.1 bugfix July 2018 build 013d7b7c2542+ Fri, 06 Jul 2018 19:26:36 +0100
REM compiler GCC version 9.2.1 20190827 (Red Hat 9.2.1-1)
REM options -cpp -mtune=generic -march=x86-64 -g -O0 -fpre-include=/usr/include/finclude/math-vector-fortran.h
REM seed -1671055485 -1668569076 -1530868021 -1608455290 1354619602 -1786275180 1694511287 -235775215 -1846261599 1083664601 -917539164 -2056232316 830974035 -1183868405 -1326852991 1690452566 -1195085839 -442658712 -369751661 122065323 348807103 -614456333 2098586498 -1541719229 -1831228411 1212359379 578075833 998464475 2091654937 2118245387 1023608286 1996529391 -1516411933
REM
CELL 1.54180   50.00000   50.00000   50.00000   90.00000   90.00000   90.00000
LATT -1
SFAC C  
C      1  0.5569580000000  0.5892340000000  0.5813010000000 1.0
C      1  0.5147150000000  0.4746610000000  0.6006300000000 1.0
C      1  0.3556470000000  0.4056970000000  0.3995810000000 1.0
C      1  0.5854780000000  0.4469940000000  0.5726180000000 1.0
C      1  0.4181000000000  0.4812620000000  0.5001060000000 1.0
C      1  0.5366720000000  0.4849410000000  0.5620910000000 1.0
C      1  0.5064420000000  0.4477330000000  0.5937220000000 1.0
C      1  0.5868570000000  0.4749140000000  0.5723320000000 1.0
C      1  0.5518520000000  0.4315900000000  0.4418460000000 1.0
C      1  0.5500910000000  0.5489080000000  0.4517920000000 1.0
C      1  0.4792110000000  0.4094850000000  0.4618570000000 1.0
C      1  0.5238210000000  0.4167130000000  0.5574080000000 1.0
C      1  0.4911190000000  0.5427210000000  0.5080230000000 1.0
C      1  0.5820180000000  0.4100030000000  0.5090420000000 1.0
C      1  0.5341150000000  0.4616650000000  0.5455230000000 1.0
C      1  0.5314500000000  0.5268460000000  0.4498090000000 1.0
C      1  0.5340280000000  0.5960910000000  0.4858700000000 1.0
C      1  0.6094190000000  0.5275930000000  0.5386500000000 1.0
C      1  0.4859070000000  0.5534150000000  0.4383900000000 1.0
C      1  0.5243810000000  0.4935130000000  0.6215770000000 1.0
C      1  0.4508190000000  0.5161520000000  0.4006490000000 1.0
C      1  0.5044160000000  0.4002840000000  0.4632360000000 1.0
C      1  0.6021480000000  0.5632250000000  0.5060140000000 1.0
C      1  0.4960120000000  0.4169850000000  0.5119750000000 1.0
C      1  0.4546890000000  0.3528780000000  0.4929670000000 1.0
C      1  0.5223900000000  0.6225990000000  0.5705370000000 1.0
C      1  0.5182920000000  0.6494040000000  0.5668980000000 1.0
C      1  0.3970720000000  0.5799630000000  0.4329310000000 1.0
C      1  0.5602580000000  0.4874560000000  0.4309620000000 1.0
C      1  0.5469320000000  0.6099980000000  0.5624590000000 1.0
C      1  0.4098800000000  0.5372720000000  0.4137530000000 1.0
C      1  0.5274890000000  0.5071620000000  0.5103550000000 1.0
C      1  0.5881610000000  0.5769370000000  0.5264740000000 1.0
C      1  0.3940960000000  0.5854860000000  0.4590680000000 1.0
C      1  0.3667080000000  0.3833480000000  0.4410780000000 1.0
C      1  0.5182550000000  0.5544500000000  0.5452600000000 1.0
C      1  0.5241540000000  0.4796230000000  0.4626660000000 1.0
C      1  0.5751940000000  0.5293100000000  0.4151400000000 1.0
C      1  0.5676050000000  0.5051940000000  0.4858810000000 1.0
C      1  0.3793320000000  0.4625590000000  0.5168600000000 1.0
C      1  0.4360370000000  0.5939400000000  0.5544440000000 1.0
C      1  0.5440140000000  0.4364380000000  0.5536330000000 1.0
C      1  0.4422070000000  0.4661430000000  0.5014660000000 1.0
C      1  0.5477080000000  0.6425710000000  0.4897360000000 1.0
C      1  0.4652100000000  0.5137960000000  0.5617540000000 1.0
C      1  0.3960140000000  0.4477100000000  0.4250080000000 1.0
C      1  0.4097210000000  0.5806210000000  0.4803920000000 1.0
C      1  0.4219030000000  0.4436390000000  0.4134410000000 1.0
C      1  0.4774600000000  0.5190910000000  0.5004120000000 1.0
C      1  0.6110380000000  0.4696000000000  0.4742650000000 1.0
C      1  0.5005860000000  0.4297250000000  0.5711840000000 1.0
C      1  0.5449550000000  0.6238490000000  0.4401360000000 1.0
C      1  0.5382620000000  0.4985450000000  0.4467790000000 1.0
C      1  0.4405830000000  0.5461600000000  0.5284690000000 1.0
C      1  0.5544000000000  0.5897190000000  0.4679800000000 1.0
C      1  0.4768600000000  0.4132850000000  0.5324950000000 1.0
C      1  0.5381480000000  0.5709550000000  0.5945990000000 1.0
C      1  0.4659530000000  0.5372070000000  0.5451140000000 1.0
C      1  0.4549610000000  0.5796950000000  0.4643550000000 1.0
C      1  0.4756880000000  0.6116520000000  0.5816100000000 1.0
C      1  0.5273540000000  0.4019490000000  0.4803780000000 1.0
C      1  0.5163820000000  0.4633850000000  0.5237580000000 1.0
C      1  0.4251730000000  0.5138700000000  0.4136180000000 1.0
C      1  0.3767740000000  0.4703140000000  0.5900500000000 1.0
C      1  0.5366100000000  0.4465850000000  0.4195650000000 1.0
C      1  0.4591170000000  0.4247940000000  0.4707330000000 1.0
C      1  0.3931670000000  0.4695900000000  0.4930360000000 1.0
C      1  0.5444560000000  0.5567710000000  0.5339690000000 1.0
C      1  0.4190050000000  0.5255300000000  0.5311580000000 1.0
C      1  0.3965840000000  0.4744680000000  0.4403930000000 1.0
C      1  0.5707150000000  0.5192220000000  0.5679300000000 1.0
C      1  0.5119660000000  0.4924450000000  0.5768960000000 1.0
C      1  0.5503790000000  0.4154680000000  0.4684450000000 1.0
C      1  0.5969780000000  0.4836750000000  0.4543410000000 1.0
C      1  0.4737320000000  0.3452220000000  0.5097380000000 1.0
C      1  0.5780170000000  0.4671520000000  0.5143600000000 1.0
C      1  0.4180180000000  0.4895830000000  0.4267100000000 1.0
C      1  0.5936890000000  0.4382550000000  0.4697480000000 1.0
C      1  0.6212780000000  0.5225910000000  0.4873060000000 1.0
C      1  0.6220870000000  0.5058840000000  0.5511400000000 1.0
C      1  0.6245420000000  0.4924860000000  0.4878280000000 1.0
C      1  0.5124660000000  0.5829470000000  0.5964540000000 1.0
C      1  0.5029180000000  0.6063450000000  0.5838340000000 1.0
C      1  0.5387230000000  0.5181330000000  0.6136240000000 1.0
C      1  0.5718730000000  0.5595240000000  0.5424290000000 1.0
C      1  0.5484380000000  0.5215660000000  0.4989520000000 1.0
C      1  0.5852690000000  0.5366490000000  0.5518730000000 1.0
C      1  0.3676420000000  0.4437170000000  0.4601550000000 1.0
C      1  0.5675390000000  0.5647540000000  0.4695200000000 1.0
C      1  0.4415600000000  0.4983200000000  0.5652650000000 1.0
C      1  0.5832140000000  0.5898340000000  0.5895630000000 1.0
C      1  0.4957970000000  0.5654970000000  0.4930850000000 1.0
C      1  0.4812090000000  0.4942190000000  0.5130940000000 1.0
C      1  0.5457940000000  0.6398410000000  0.4626110000000 1.0
C      1  0.4873410000000  0.5090080000000  0.5795110000000 1.0
C      1  0.5408130000000  0.4664380000000  0.4812410000000 1.0
C      1  0.5943650000000  0.5623430000000  0.4785170000000 1.0
C      1  0.5092560000000  0.5881820000000  0.4909750000000 1.0
C      1  0.5043050000000  0.4434320000000  0.5087020000000 1.0
C      1  0.4100800000000  0.4659070000000  0.6226830000000 1.0
C      1  0.5835650000000  0.5072270000000  0.4620290000000 1.0
C      1  0.5809350000000  0.4693600000000  0.4367700000000 1.0
C      1  0.4283850000000  0.4724580000000  0.6036560000000 1.0
C      1  0.5920430000000  0.5288040000000  0.4450860000000 1.0
C      1  0.3841600000000  0.4669030000000  0.4663770000000 1.0
C      1  0.4140010000000  0.3669890000000  0.4621250000000 1.0
C      1  0.4780080000000  0.4468910000000  0.4163630000000 1.0
C      1  0.4714800000000  0.4852100000000  0.4493930000000 1.0
C      1  0.5824360000000  0.4142110000000  0.5354050000000 1.0
C      1  0.4552420000000  0.5238620000000  0.4835340000000 1.0
C      1  0.4518610000000  0.6078950000000  0.5705590000000 1.0
C      1  0.6099260000000  0.5417320000000  0.4643490000000 1.0
C      1  0.5402650000000  0.4984580000000  0.3935520000000 1.0
C      1  0.5633170000000  0.4777300000000  0.4941380000000 1.0
C      1  0.5474220000000  0.5672660000000  0.4270900000000 1.0
C      1  0.4663730000000  0.4577690000000  0.5442930000000 1.0
C      1  0.4348280000000  0.3597760000000  0.4768370000000 1.0
C      1  0.4149600000000  0.5044890000000  0.5153940000000 1.0
C      1  0.4363080000000  0.4682560000000  0.4200500000000 1.0
C      1  0.5190740000000  0.3995420000000  0.5088920000000 1.0
C      1  0.5596110000000  0.6181360000000  0.5370950000000 1.0
C      1  0.4321250000000  0.5726960000000  0.5390490000000 1.0
C      1  0.5045720000000  0.4987530000000  0.6414690000000 1.0
C      1  0.4422890000000  0.5468150000000  0.4968300000000 1.0
C      1  0.5415410000000  0.5440610000000  0.6049140000000 1.0
C      1  0.4923240000000  0.5465200000000  0.5364050000000 1.0
C      1  0.4828950000000  0.5124200000000  0.6323390000000 1.0
C      1  0.5469710000000  0.5479360000000  0.5069940000000 1.0
C      1  0.3855730000000  0.4661580000000  0.5428810000000 1.0
C      1  0.5017290000000  0.5293910000000  0.3901110000000 1.0
C      1  0.4632090000000  0.5699630000000  0.4392350000000 1.0
C      1  0.4657110000000  0.4253170000000  0.4050110000000 1.0
C      1  0.3951300000000  0.4739510000000  0.5682260000000 1.0
C      1  0.3656710000000  0.4068210000000  0.4250230000000 1.0
C      1  0.5712880000000  0.4300890000000  0.5555900000000 1.0
C      1  0.4156230000000  0.5643020000000  0.4187290000000 1.0
C      1  0.5297970000000  0.5267490000000  0.3935210000000 1.0
C      1  0.3915260000000  0.3740960000000  0.4500410000000 1.0
C      1  0.5790950000000  0.4427120000000  0.4441390000000 1.0
C      1  0.5324580000000  0.4691660000000  0.4017620000000 1.0
C      1  0.5048130000000  0.5357380000000  0.4453190000000 1.0
C      1  0.6151360000000  0.5376900000000  0.5126160000000 1.0
C      1  0.4623190000000  0.4737730000000  0.5205920000000 1.0
C      1  0.5656610000000  0.5027040000000  0.4078940000000 1.0
C      1  0.4804250000000  0.5178370000000  0.6059980000000 1.0
C      1  0.5485680000000  0.5952930000000  0.4393150000000 1.0
C      1  0.4558390000000  0.5065500000000  0.4609900000000 1.0
C      1  0.5082800000000  0.4889590000000  0.5172060000000 1.0
C      1  0.4917570000000  0.3369420000000  0.5266530000000 1.0
C      1  0.4358120000000  0.5704750000000  0.4828240000000 1.0
C      1  0.4431600000000  0.5712660000000  0.4193790000000 1.0
C      1  0.5263270000000  0.3957680000000  0.5369430000000 1.0
C      1  0.3837300000000  0.4654160000000  0.6158920000000 1.0
C      1  0.4385370000000  0.4230730000000  0.4038770000000 1.0
C      1  0.6121140000000  0.4863400000000  0.5666110000000 1.0
C      1  0.4757050000000  0.5228040000000  0.3927350000000 1.0
C      1  0.5637050000000  0.4921980000000  0.5694170000000 1.0
C      1  0.4468030000000  0.4439850000000  0.4846660000000 1.0
C      1  0.3436700000000  0.3702740000000  0.4479400000000 1.0
C      1  0.4633080000000  0.4684070000000  0.4278660000000 1.0
C      1  0.4223320000000  0.4812570000000  0.5769440000000 1.0
C      1  0.5499500000000  0.6351020000000  0.5158920000000 1.0
C      1  0.5511820000000  0.5466490000000  0.4061930000000 1.0
C      1  0.4964980000000  0.4788650000000  0.4604990000000 1.0
C      1  0.5832810000000  0.6040550000000  0.5302450000000 1.0
C      1  0.5761940000000  0.4193430000000  0.4833880000000 1.0
C      1  0.3752590000000  0.4308900000000  0.4355850000000 1.0
C      1  0.4773890000000  0.4329630000000  0.5534810000000 1.0
END
