TITL C-627111-6168-632 0.470986051892517 125000 -756.96331380995 0 0 126 (C1) n - 1
REM
REM in /home/nfs/bkarasulu/CARBON/AIRSS/Generating-Clusters/LCBOP/Only-C1/SD-CG/FIRE-CG
REM
REM
REM
REM
REM
REM ./C.cell (11c1c37f851c82e70ff6c80c92926a4b)
REM AIRSS Version 0.9.1 bugfix July 2018 build 013d7b7c2542+ Fri, 06 Jul 2018 19:26:36 +0100
REM compiler GCC version 9.2.1 20190827 (Red Hat 9.2.1-1)
REM options -cpp -mtune=generic -march=x86-64 -g -O0 -fpre-include=/usr/include/finclude/math-vector-fortran.h
REM seed 704100590 218006861 -1862860446 1145087092 -1290919418 -484103830 -1397732958 -500321283 -773616642 -375817594 -804059762 34112550 -1200858862 -391843609 -1693425056 57289818 272900762 2126314325 -1185088465 518897064 -1727111299 928193795 -960810974 -1452467947 -875349644 2078786172 -1898429397 -1534059422 1548999709 460732859 -1493285901 -439366742 -1570296801
REM
CELL 1.54180   50.00000   50.00000   50.00000   90.00000   90.00000   90.00000
LATT -1
SFAC C  
C      1  0.4608120000000  0.5099320000000  0.5511070000000 1.0
C      1  0.4298530000000  0.4296750000000  0.5157960000000 1.0
C      1  0.6065840000000  0.5295420000000  0.4579760000000 1.0
C      1  0.5265070000000  0.5961460000000  0.5591510000000 1.0
C      1  0.4511100000000  0.4692990000000  0.4237040000000 1.0
C      1  0.5999890000000  0.4624620000000  0.5195980000000 1.0
C      1  0.5067550000000  0.5387390000000  0.4787380000000 1.0
C      1  0.6078380000000  0.4813010000000  0.4989560000000 1.0
C      1  0.5303260000000  0.5776680000000  0.5179550000000 1.0
C      1  0.5378130000000  0.5522510000000  0.5862030000000 1.0
C      1  0.4767410000000  0.4773340000000  0.5887940000000 1.0
C      1  0.4495120000000  0.4838370000000  0.5517270000000 1.0
C      1  0.4220070000000  0.4806550000000  0.4721120000000 1.0
C      1  0.4600120000000  0.5254480000000  0.5943180000000 1.0
C      1  0.5881270000000  0.5077010000000  0.4593290000000 1.0
C      1  0.4385230000000  0.4371220000000  0.3820410000000 1.0
C      1  0.5457860000000  0.6128780000000  0.4661810000000 1.0
C      1  0.5468580000000  0.5342760000000  0.5245560000000 1.0
C      1  0.5611390000000  0.6140970000000  0.4897910000000 1.0
C      1  0.4365530000000  0.4206800000000  0.3595510000000 1.0
C      1  0.5547170000000  0.5609050000000  0.5190270000000 1.0
C      1  0.5167240000000  0.4973130000000  0.4475890000000 1.0
C      1  0.5479560000000  0.4776860000000  0.5734800000000 1.0
C      1  0.5402210000000  0.4836290000000  0.5026120000000 1.0
C      1  0.4451770000000  0.4412160000000  0.4939880000000 1.0
C      1  0.3821230000000  0.5517970000000  0.4998950000000 1.0
C      1  0.5380610000000  0.4873650000000  0.4069910000000 1.0
C      1  0.5207170000000  0.4004450000000  0.5340130000000 1.0
C      1  0.4871950000000  0.4532760000000  0.5430320000000 1.0
C      1  0.4069790000000  0.3750420000000  0.3616440000000 1.0
C      1  0.4361320000000  0.6076230000000  0.5109570000000 1.0
C      1  0.4414470000000  0.4591590000000  0.4714030000000 1.0
C      1  0.6294050000000  0.4975580000000  0.5040510000000 1.0
C      1  0.5033680000000  0.4858790000000  0.5976300000000 1.0
C      1  0.5855740000000  0.4592140000000  0.4619160000000 1.0
C      1  0.4817370000000  0.5488870000000  0.4309080000000 1.0
C      1  0.4429630000000  0.4529630000000  0.4027820000000 1.0
C      1  0.3678950000000  0.5059320000000  0.5132300000000 1.0
C      1  0.5850710000000  0.5979690000000  0.4910960000000 1.0
C      1  0.5646060000000  0.4145420000000  0.5312450000000 1.0
C      1  0.3929070000000  0.3531200000000  0.3626510000000 1.0
C      1  0.4617560000000  0.5581940000000  0.5509450000000 1.0
C      1  0.6162200000000  0.4414810000000  0.5262140000000 1.0
C      1  0.4807850000000  0.6156550000000  0.5638340000000 1.0
C      1  0.5610580000000  0.4569400000000  0.5563280000000 1.0
C      1  0.4287430000000  0.5654490000000  0.4848460000000 1.0
C      1  0.5029500000000  0.5111460000000  0.6112040000000 1.0
C      1  0.4582640000000  0.5417650000000  0.4451510000000 1.0
C      1  0.4635250000000  0.4338490000000  0.3146830000000 1.0
C      1  0.5262590000000  0.4456720000000  0.6061680000000 1.0
C      1  0.5056900000000  0.4118380000000  0.5776530000000 1.0
C      1  0.5193940000000  0.4662710000000  0.4124160000000 1.0
C      1  0.5929420000000  0.5894880000000  0.5170430000000 1.0
C      1  0.5748210000000  0.4374770000000  0.4523740000000 1.0
C      1  0.5447560000000  0.5764670000000  0.5715980000000 1.0
C      1  0.4883050000000  0.4535180000000  0.4495520000000 1.0
C      1  0.4499480000000  0.4275650000000  0.3360220000000 1.0
C      1  0.4620410000000  0.6282480000000  0.5494220000000 1.0
C      1  0.6327690000000  0.5247320000000  0.4513940000000 1.0
C      1  0.4530830000000  0.4089360000000  0.5592320000000 1.0
C      1  0.4903390000000  0.4894010000000  0.4979750000000 1.0
C      1  0.5290700000000  0.4137420000000  0.5599640000000 1.0
C      1  0.5939410000000  0.4832900000000  0.4737700000000 1.0
C      1  0.5085620000000  0.5158080000000  0.4665100000000 1.0
C      1  0.4476780000000  0.5598490000000  0.4644320000000 1.0
C      1  0.4841320000000  0.5309720000000  0.6088970000000 1.0
C      1  0.4251240000000  0.5069970000000  0.4602990000000 1.0
C      1  0.5324350000000  0.5267760000000  0.5734360000000 1.0
C      1  0.4977780000000  0.5934590000000  0.5614350000000 1.0
C      1  0.5587110000000  0.5116340000000  0.5369320000000 1.0
C      1  0.5273320000000  0.4708060000000  0.5931860000000 1.0
C      1  0.5104590000000  0.4240640000000  0.6023870000000 1.0
C      1  0.5766980000000  0.5730890000000  0.5329650000000 1.0
C      1  0.4560660000000  0.4962820000000  0.5982330000000 1.0
C      1  0.5086190000000  0.4044690000000  0.4587370000000 1.0
C      1  0.4067140000000  0.5268320000000  0.4677630000000 1.0
C      1  0.4422650000000  0.5654060000000  0.5317980000000 1.0
C      1  0.4698650000000  0.4655560000000  0.5624960000000 1.0
C      1  0.5135630000000  0.4799010000000  0.5099930000000 1.0
C      1  0.5609720000000  0.4887490000000  0.5207920000000 1.0
C      1  0.5979760000000  0.5561290000000  0.4614480000000 1.0
C      1  0.4517230000000  0.4973920000000  0.4220270000000 1.0
C      1  0.5650370000000  0.5095390000000  0.4430360000000 1.0
C      1  0.5930000000000  0.5808650000000  0.4701710000000 1.0
C      1  0.5753150000000  0.4675640000000  0.5328600000000 1.0
C      1  0.5069090000000  0.5621870000000  0.5261570000000 1.0
C      1  0.5481400000000  0.6209900000000  0.5146070000000 1.0
C      1  0.5090800000000  0.5554400000000  0.4268120000000 1.0
C      1  0.4460150000000  0.6256580000000  0.5281460000000 1.0
C      1  0.5112890000000  0.5241890000000  0.5539670000000 1.0
C      1  0.5712310000000  0.5767350000000  0.5604760000000 1.0
C      1  0.5540290000000  0.4290870000000  0.5545810000000 1.0
C      1  0.4047230000000  0.5501320000000  0.4833880000000 1.0
C      1  0.4600570000000  0.4587520000000  0.4488590000000 1.0
C      1  0.5312410000000  0.6000760000000  0.4478170000000 1.0
C      1  0.5187290000000  0.5808590000000  0.4341940000000 1.0
C      1  0.5066980000000  0.4719200000000  0.4379160000000 1.0
C      1  0.3989990000000  0.4774000000000  0.4882770000000 1.0
C      1  0.5340000000000  0.6030590000000  0.5312060000000 1.0
C      1  0.4354980000000  0.4178090000000  0.5400030000000 1.0
C      1  0.4979110000000  0.4281110000000  0.4563030000000 1.0
C      1  0.5279290000000  0.5352050000000  0.4203750000000 1.0
C      1  0.3667230000000  0.5325720000000  0.5106280000000 1.0
C      1  0.4350060000000  0.5796340000000  0.5085720000000 1.0
C      1  0.5184070000000  0.5364030000000  0.5299970000000 1.0
C      1  0.4814880000000  0.4047360000000  0.5616690000000 1.0
C      1  0.4722550000000  0.4352840000000  0.4997970000000 1.0
C      1  0.4560780000000  0.5343570000000  0.5666620000000 1.0
C      1  0.3994070000000  0.4773400000000  0.5359450000000 1.0
C      1  0.5095370000000  0.4682020000000  0.5351700000000 1.0
C      1  0.4675030000000  0.5019200000000  0.4965670000000 1.0
C      1  0.5512930000000  0.5060420000000  0.5649930000000 1.0
C      1  0.4890140000000  0.5088260000000  0.5508990000000 1.0
C      1  0.4877680000000  0.5706970000000  0.5465310000000 1.0
C      1  0.3864510000000  0.4848800000000  0.5123360000000 1.0
C      1  0.5390380000000  0.5085010000000  0.4286850000000 1.0
C      1  0.5088530000000  0.4221560000000  0.3830310000000 1.0
C      1  0.5388220000000  0.5535890000000  0.6136730000000 1.0
C      1  0.4839310000000  0.4312920000000  0.5246020000000 1.0
C      1  0.5035910000000  0.3993690000000  0.3715150000000 1.0
C      1  0.5449700000000  0.3993820000000  0.5190180000000 1.0
C      1  0.5144000000000  0.4445570000000  0.3960430000000 1.0
C      1  0.4455920000000  0.5159710000000  0.4421480000000 1.0
C      1  0.4928290000000  0.4059150000000  0.5340040000000 1.0
C      1  0.4212850000000  0.3973180000000  0.3606150000000 1.0
C      1  0.4227790000000  0.4776220000000  0.5484720000000 1.0
END
