TITL C-627111-6168-273 0.0354240797197208 125000 -881.033381346113 0 0 142 (C1) n - 1
REM
REM in /home/nfs/bkarasulu/CARBON/AIRSS/Generating-Clusters/LCBOP/Only-C1/SD-CG/FIRE-CG
REM
REM
REM
REM
REM
REM ./C.cell (11c1c37f851c82e70ff6c80c92926a4b)
REM AIRSS Version 0.9.1 bugfix July 2018 build 013d7b7c2542+ Fri, 06 Jul 2018 19:26:36 +0100
REM compiler GCC version 9.2.1 20190827 (Red Hat 9.2.1-1)
REM options -cpp -mtune=generic -march=x86-64 -g -O0 -fpre-include=/usr/include/finclude/math-vector-fortran.h
REM seed 1912544286 -1749856430 389422291 -1328432911 -1120265401 54623721 96996919 671909003 -961761813 -1751179924 421468702 -1872283888 -642332992 870112713 -1584858909 52608553 -1296262322 855381000 -1681118273 -1301822904 -1266482172 2141932730 1882554018 1475787551 -35669345 -1420293641 -246223366 -147981241 -1021196456 -848780744 -1769102304 -455522566 639367066
REM
CELL 1.54180   50.00000   50.00000   50.00000   90.00000   90.00000   90.00000
LATT -1
SFAC C  
C      1  0.5829410000000  0.4311850000000  0.5361710000000 1.0
C      1  0.5923770000000  0.5021800000000  0.5013820000000 1.0
C      1  0.4848290000000  0.3995840000000  0.3847980000000 1.0
C      1  0.4928330000000  0.5944230000000  0.4311240000000 1.0
C      1  0.4678550000000  0.4543330000000  0.5311510000000 1.0
C      1  0.5321140000000  0.4516500000000  0.4056530000000 1.0
C      1  0.4015820000000  0.4462460000000  0.5049840000000 1.0
C      1  0.5655500000000  0.5433840000000  0.4917830000000 1.0
C      1  0.4273100000000  0.5015680000000  0.4737000000000 1.0
C      1  0.4946580000000  0.5113170000000  0.5696120000000 1.0
C      1  0.5691490000000  0.4393030000000  0.5120290000000 1.0
C      1  0.5833920000000  0.4965450000000  0.5774290000000 1.0
C      1  0.5119850000000  0.4348230000000  0.5769310000000 1.0
C      1  0.6856660000000  0.5547230000000  0.4163790000000 1.0
C      1  0.5387760000000  0.5406880000000  0.4321560000000 1.0
C      1  0.5679840000000  0.5059720000000  0.4510540000000 1.0
C      1  0.4780370000000  0.5932180000000  0.5075410000000 1.0
C      1  0.4936760000000  0.5762810000000  0.5628850000000 1.0
C      1  0.4801910000000  0.4919010000000  0.6065710000000 1.0
C      1  0.5002120000000  0.4134860000000  0.5288750000000 1.0
C      1  0.3845900000000  0.4908460000000  0.4765400000000 1.0
C      1  0.5230300000000  0.4205610000000  0.5117450000000 1.0
C      1  0.4340710000000  0.4105470000000  0.4919410000000 1.0
C      1  0.5209100000000  0.5059630000000  0.5821640000000 1.0
C      1  0.5025230000000  0.5988100000000  0.5216140000000 1.0
C      1  0.5557060000000  0.5166400000000  0.5301780000000 1.0
C      1  0.5327490000000  0.4010230000000  0.4613590000000 1.0
C      1  0.4965130000000  0.4368160000000  0.4283980000000 1.0
C      1  0.4020440000000  0.5529950000000  0.5099320000000 1.0
C      1  0.5008820000000  0.4609520000000  0.4972340000000 1.0
C      1  0.4451890000000  0.4864690000000  0.4892210000000 1.0
C      1  0.4770230000000  0.4254610000000  0.3859570000000 1.0
C      1  0.4141670000000  0.4771220000000  0.5740490000000 1.0
C      1  0.4570030000000  0.4777720000000  0.5981590000000 1.0
C      1  0.4734210000000  0.4899540000000  0.4558220000000 1.0
C      1  0.5361080000000  0.4727890000000  0.4656200000000 1.0
C      1  0.4062680000000  0.4912740000000  0.4572450000000 1.0
C      1  0.4852080000000  0.5455040000000  0.5982530000000 1.0
C      1  0.5272840000000  0.4570040000000  0.5858990000000 1.0
C      1  0.5614120000000  0.4577010000000  0.4635890000000 1.0
C      1  0.3783530000000  0.5182450000000  0.4838260000000 1.0
C      1  0.4390700000000  0.4169550000000  0.5645200000000 1.0
C      1  0.5180060000000  0.5520440000000  0.4996210000000 1.0
C      1  0.3861800000000  0.4681900000000  0.4944340000000 1.0
C      1  0.5773530000000  0.4544710000000  0.4882290000000 1.0
C      1  0.5038620000000  0.5521160000000  0.4029490000000 1.0
C      1  0.5414910000000  0.4427510000000  0.5180860000000 1.0
C      1  0.5141290000000  0.4814000000000  0.5963570000000 1.0
C      1  0.4739840000000  0.5411190000000  0.4386670000000 1.0
C      1  0.5123100000000  0.4581500000000  0.4713770000000 1.0
C      1  0.4111200000000  0.5684030000000  0.5317770000000 1.0
C      1  0.4538480000000  0.4320300000000  0.5810110000000 1.0
C      1  0.5015190000000  0.5793770000000  0.4104600000000 1.0
C      1  0.4926120000000  0.4478640000000  0.4532530000000 1.0
C      1  0.3921760000000  0.5847290000000  0.5448130000000 1.0
C      1  0.4720190000000  0.4695610000000  0.5540080000000 1.0
C      1  0.4386750000000  0.5700190000000  0.5409670000000 1.0
C      1  0.5227750000000  0.5554230000000  0.5277210000000 1.0
C      1  0.4741620000000  0.5628960000000  0.5778960000000 1.0
C      1  0.4551020000000  0.4594310000000  0.4847810000000 1.0
C      1  0.5482340000000  0.5444350000000  0.5694530000000 1.0
C      1  0.5241140000000  0.4293860000000  0.4228430000000 1.0
C      1  0.4967470000000  0.5400910000000  0.4580330000000 1.0
C      1  0.5042620000000  0.4946690000000  0.3931030000000 1.0
C      1  0.4122540000000  0.4433060000000  0.5320500000000 1.0
C      1  0.5302420000000  0.4036890000000  0.4331730000000 1.0
C      1  0.4376130000000  0.5268270000000  0.4676950000000 1.0
C      1  0.4293890000000  0.5194810000000  0.5917590000000 1.0
C      1  0.5635930000000  0.4826960000000  0.5647960000000 1.0
C      1  0.4828650000000  0.5134090000000  0.5036420000000 1.0
C      1  0.4123550000000  0.4264250000000  0.4872970000000 1.0
C      1  0.5689580000000  0.4361140000000  0.5612030000000 1.0
C      1  0.5124960000000  0.4791480000000  0.5150910000000 1.0
C      1  0.5688110000000  0.5946100000000  0.4962050000000 1.0
C      1  0.4956910000000  0.5573520000000  0.4819400000000 1.0
C      1  0.4481120000000  0.4099010000000  0.5168270000000 1.0
C      1  0.4814330000000  0.5357600000000  0.4106250000000 1.0
C      1  0.5889790000000  0.5787200000000  0.5795920000000 1.0
C      1  0.4468860000000  0.5459100000000  0.4487740000000 1.0
C      1  0.5386700000000  0.5414660000000  0.4828490000000 1.0
C      1  0.5916620000000  0.5145610000000  0.4426840000000 1.0
C      1  0.5765110000000  0.5692460000000  0.4922480000000 1.0
C      1  0.3916060000000  0.5440410000000  0.4850220000000 1.0
C      1  0.4796490000000  0.5179570000000  0.5940150000000 1.0
C      1  0.4688050000000  0.4611470000000  0.4589580000000 1.0
C      1  0.4743770000000  0.4525580000000  0.5043290000000 1.0
C      1  0.5090850000000  0.5776130000000  0.5397500000000 1.0
C      1  0.5279780000000  0.5368610000000  0.4062770000000 1.0
C      1  0.6319110000000  0.4088180000000  0.5343680000000 1.0
C      1  0.5134940000000  0.5482670000000  0.6040640000000 1.0
C      1  0.4792330000000  0.5105210000000  0.3951700000000 1.0
C      1  0.6388290000000  0.5344770000000  0.4290580000000 1.0
C      1  0.4520130000000  0.5006490000000  0.3915620000000 1.0
C      1  0.5278550000000  0.4065490000000  0.4872660000000 1.0
C      1  0.4236140000000  0.5628420000000  0.4465070000000 1.0
C      1  0.5528060000000  0.4934730000000  0.4015460000000 1.0
C      1  0.4317170000000  0.4216830000000  0.5377860000000 1.0
C      1  0.5418880000000  0.5390520000000  0.5419980000000 1.0
C      1  0.5022330000000  0.3828570000000  0.3967940000000 1.0
C      1  0.4471440000000  0.5599900000000  0.5675840000000 1.0
C      1  0.4756180000000  0.3998820000000  0.5198140000000 1.0
C      1  0.4009710000000  0.5583480000000  0.4616620000000 1.0
C      1  0.5036560000000  0.4196540000000  0.5564170000000 1.0
C      1  0.5362470000000  0.4702270000000  0.5260000000000 1.0
C      1  0.4320510000000  0.4914220000000  0.5910950000000 1.0
C      1  0.4286570000000  0.5470220000000  0.5858150000000 1.0
C      1  0.5691130000000  0.5615260000000  0.5762670000000 1.0
C      1  0.4077580000000  0.4623160000000  0.5525940000000 1.0
C      1  0.5524230000000  0.4898310000000  0.5396060000000 1.0
C      1  0.5694080000000  0.4578190000000  0.4357140000000 1.0
C      1  0.5489620000000  0.6112940000000  0.5027930000000 1.0
C      1  0.6087560000000  0.5962290000000  0.5817830000000 1.0
C      1  0.6152300000000  0.5243250000000  0.4355470000000 1.0
C      1  0.4096300000000  0.5630730000000  0.5989620000000 1.0
C      1  0.5238650000000  0.6141160000000  0.5117370000000 1.0
C      1  0.5944500000000  0.4765160000000  0.4938200000000 1.0
C      1  0.3829340000000  0.5905310000000  0.5692630000000 1.0
C      1  0.4585470000000  0.4988280000000  0.4346960000000 1.0
C      1  0.3905780000000  0.5809940000000  0.5931800000000 1.0
C      1  0.6624420000000  0.5446840000000  0.4226650000000 1.0
C      1  0.4956470000000  0.4995070000000  0.5240280000000 1.0
C      1  0.5269080000000  0.5287890000000  0.4574340000000 1.0
C      1  0.4632670000000  0.4582550000000  0.5787940000000 1.0
C      1  0.5210860000000  0.3828750000000  0.4161810000000 1.0
C      1  0.5736490000000  0.5218340000000  0.5084640000000 1.0
C      1  0.5401640000000  0.5005850000000  0.4584350000000 1.0
C      1  0.4375900000000  0.4954210000000  0.4159780000000 1.0
C      1  0.5550660000000  0.4670600000000  0.4122720000000 1.0
C      1  0.5320230000000  0.5317390000000  0.5890540000000 1.0
C      1  0.4862710000000  0.4462650000000  0.4025890000000 1.0
C      1  0.4847880000000  0.4950370000000  0.5495550000000 1.0
C      1  0.5294350000000  0.5095910000000  0.3967370000000 1.0
C      1  0.4788830000000  0.3730140000000  0.5136200000000 1.0
C      1  0.5071400000000  0.4657950000000  0.3950910000000 1.0
C      1  0.4126880000000  0.4900780000000  0.4292230000000 1.0
C      1  0.5544810000000  0.4573820000000  0.5743230000000 1.0
C      1  0.6281810000000  0.6135040000000  0.5837560000000 1.0
C      1  0.6081170000000  0.4193770000000  0.5355670000000 1.0
C      1  0.4560990000000  0.5844160000000  0.5234140000000 1.0
C      1  0.4702260000000  0.5011290000000  0.4822950000000 1.0
C      1  0.4840560000000  0.5962050000000  0.4565520000000 1.0
C      1  0.4828630000000  0.5827570000000  0.4813920000000 1.0
END
