TITL C-627113-6568-316 -4.95791347708946e-07 125000 -397.549056016983 0 0 65 (C1) n - 1
REM
REM in /home/nfs/bkarasulu/CARBON/AIRSS/Generating-Clusters/LCBOP/Only-C1/SD-CG/FIRE-CG
REM
REM
REM
REM
REM
REM ./C.cell (11c1c37f851c82e70ff6c80c92926a4b)
REM AIRSS Version 0.9.1 bugfix July 2018 build 013d7b7c2542+ Fri, 06 Jul 2018 19:26:36 +0100
REM compiler GCC version 9.2.1 20190827 (Red Hat 9.2.1-1)
REM options -cpp -mtune=generic -march=x86-64 -g -O0 -fpre-include=/usr/include/finclude/math-vector-fortran.h
REM seed -1459779013 -1593276118 -1833843712 -1317778010 -40323414 347819915 797662645 1158802747 2084557752 -52767663 916029132 2020051974 1084117293 1068817036 -2110711439 397621721 1702452620 548557290 1656752263 -322266648 -2122540366 1829187479 -1989423602 1717959006 -199509926 915520620 -1399708935 -1781846306 392382595 -2067033070 -1207251647 323592088 -1519656049
REM
CELL 1.54180   50.00000   50.00000   50.00000   90.00000   90.00000   90.00000
LATT -1
SFAC C  
C      1  0.5222210000000  0.5387090000000  0.4484130000000 1.0
C      1  0.5384760000000  0.4448130000000  0.5381390000000 1.0
C      1  0.4316820000000  0.5237830000000  0.4571760000000 1.0
C      1  0.4667340000000  0.4332470000000  0.5205230000000 1.0
C      1  0.4651140000000  0.5360560000000  0.5606680000000 1.0
C      1  0.4429410000000  0.5599810000000  0.5159440000000 1.0
C      1  0.5680470000000  0.4465550000000  0.4731190000000 1.0
C      1  0.5261660000000  0.4664470000000  0.4539790000000 1.0
C      1  0.5729940000000  0.4427420000000  0.4993750000000 1.0
C      1  0.5089050000000  0.5057060000000  0.5614230000000 1.0
C      1  0.5223250000000  0.3824500000000  0.4886820000000 1.0
C      1  0.4472190000000  0.5463020000000  0.4648660000000 1.0
C      1  0.4792710000000  0.5110450000000  0.5581290000000 1.0
C      1  0.5319020000000  0.5653470000000  0.4497810000000 1.0
C      1  0.4864280000000  0.4428380000000  0.4786300000000 1.0
C      1  0.4509120000000  0.5496040000000  0.5396980000000 1.0
C      1  0.4949730000000  0.5435730000000  0.5146130000000 1.0
C      1  0.5663090000000  0.5287770000000  0.4646900000000 1.0
C      1  0.4255050000000  0.4689330000000  0.4442150000000 1.0
C      1  0.4595120000000  0.5117780000000  0.5111180000000 1.0
C      1  0.4756930000000  0.5815570000000  0.4569410000000 1.0
C      1  0.4247720000000  0.4880820000000  0.4248470000000 1.0
C      1  0.5098480000000  0.5595490000000  0.5297330000000 1.0
C      1  0.5672660000000  0.4796090000000  0.5306310000000 1.0
C      1  0.5600140000000  0.4964930000000  0.5091990000000 1.0
C      1  0.5377170000000  0.5598980000000  0.5322980000000 1.0
C      1  0.5371530000000  0.4889030000000  0.4939590000000 1.0
C      1  0.5213430000000  0.4083500000000  0.4804600000000 1.0
C      1  0.4273430000000  0.5145760000000  0.4306800000000 1.0
C      1  0.4982890000000  0.4587630000000  0.4578890000000 1.0
C      1  0.4267520000000  0.5037590000000  0.4772640000000 1.0
C      1  0.5452550000000  0.4442950000000  0.4563070000000 1.0
C      1  0.4446120000000  0.5654820000000  0.4881570000000 1.0
C      1  0.5414810000000  0.5180010000000  0.4552080000000 1.0
C      1  0.4405620000000  0.4777560000000  0.5423240000000 1.0
C      1  0.5641190000000  0.5241010000000  0.5132910000000 1.0
C      1  0.4836450000000  0.5216840000000  0.5017880000000 1.0
C      1  0.5488650000000  0.5339070000000  0.5359680000000 1.0
C      1  0.5073970000000  0.4287970000000  0.4943170000000 1.0
C      1  0.4298980000000  0.4668410000000  0.5198870000000 1.0
C      1  0.4595350000000  0.5885860000000  0.4783230000000 1.0
C      1  0.5342700000000  0.4180140000000  0.4571000000000 1.0
C      1  0.4946590000000  0.5345290000000  0.4541320000000 1.0
C      1  0.4881450000000  0.4439420000000  0.5358220000000 1.0
C      1  0.4732400000000  0.5531930000000  0.4511400000000 1.0
C      1  0.4651510000000  0.5479910000000  0.5854870000000 1.0
C      1  0.4652590000000  0.4849590000000  0.5539760000000 1.0
C      1  0.5351260000000  0.4644580000000  0.5602040000000 1.0
C      1  0.5421000000000  0.5832790000000  0.4669240000000 1.0
C      1  0.5506660000000  0.5800760000000  0.5173880000000 1.0
C      1  0.5529940000000  0.4874450000000  0.5546860000000 1.0
C      1  0.4339980000000  0.5109220000000  0.5032280000000 1.0
C      1  0.4903000000000  0.5163040000000  0.4752000000000 1.0
C      1  0.4853220000000  0.4639760000000  0.5558370000000 1.0
C      1  0.5139850000000  0.4450100000000  0.5197580000000 1.0
C      1  0.5500040000000  0.5887050000000  0.4919380000000 1.0
C      1  0.5094970000000  0.4756140000000  0.5656850000000 1.0
C      1  0.4383840000000  0.4595840000000  0.4931960000000 1.0
C      1  0.5176120000000  0.4733480000000  0.5071700000000 1.0
C      1  0.5736280000000  0.5363750000000  0.4897420000000 1.0
C      1  0.5372200000000  0.5131030000000  0.5535720000000 1.0
C      1  0.5638990000000  0.4511690000000  0.5245530000000 1.0
C      1  0.5348120000000  0.4916600000000  0.4653760000000 1.0
C      1  0.4287500000000  0.4753910000000  0.4715670000000 1.0
C      1  0.4617830000000  0.4432770000000  0.4936660000000 1.0
END
