TITL C-627113-6568-1283 0.165048703063175 125000 -574.706226935041 0 0 95 (C1) n - 1
REM
REM in /home/nfs/bkarasulu/CARBON/AIRSS/Generating-Clusters/LCBOP/Only-C1/SD-CG/FIRE-CG
REM
REM
REM
REM
REM
REM ./C.cell (11c1c37f851c82e70ff6c80c92926a4b)
REM AIRSS Version 0.9.1 bugfix July 2018 build 013d7b7c2542+ Fri, 06 Jul 2018 19:26:36 +0100
REM compiler GCC version 9.2.1 20190827 (Red Hat 9.2.1-1)
REM options -cpp -mtune=generic -march=x86-64 -g -O0 -fpre-include=/usr/include/finclude/math-vector-fortran.h
REM seed 2012078683 321533154 2137298709 1917816776 -1668563396 -398787416 -44979469 -1722232736 -1615000093 2110367006 -53685332 3545500 1765232529 -1121535770 -1448383392 -1101015149 467676121 859382515 684081337 1375987890 -1583248161 -2101954367 624685539 38055056 1382393141 474648019 -1447426120 224586540 1813272503 169119007 514243276 1730479016 1023664426
REM
CELL 1.54180   50.00000   50.00000   50.00000   90.00000   90.00000   90.00000
LATT -1
SFAC C  
C      1  0.5437320000000  0.5210000000000  0.5680390000000 1.0
C      1  0.4760040000000  0.4816870000000  0.5067250000000 1.0
C      1  0.4319810000000  0.4942780000000  0.5304540000000 1.0
C      1  0.4543680000000  0.5663910000000  0.5027070000000 1.0
C      1  0.5150900000000  0.4370130000000  0.4766920000000 1.0
C      1  0.4985790000000  0.5253210000000  0.3917310000000 1.0
C      1  0.5270810000000  0.4868040000000  0.5180880000000 1.0
C      1  0.5847020000000  0.4988670000000  0.5185590000000 1.0
C      1  0.5670770000000  0.4395350000000  0.4782850000000 1.0
C      1  0.5493760000000  0.5494110000000  0.5245490000000 1.0
C      1  0.4597720000000  0.4609300000000  0.5147700000000 1.0
C      1  0.5630530000000  0.4864420000000  0.4013460000000 1.0
C      1  0.3833090000000  0.6003520000000  0.5590180000000 1.0
C      1  0.4979520000000  0.4579110000000  0.4669280000000 1.0
C      1  0.4999770000000  0.5437930000000  0.3467540000000 1.0
C      1  0.4774670000000  0.4460740000000  0.5903260000000 1.0
C      1  0.4549530000000  0.4613150000000  0.4079850000000 1.0
C      1  0.5313430000000  0.5443270000000  0.4544510000000 1.0
C      1  0.5594510000000  0.5401170000000  0.4994300000000 1.0
C      1  0.5644820000000  0.4925960000000  0.4536570000000 1.0
C      1  0.4823800000000  0.6066790000000  0.5577930000000 1.0
C      1  0.4479640000000  0.4414280000000  0.4969700000000 1.0
C      1  0.5281680000000  0.4359000000000  0.5236460000000 1.0
C      1  0.5162360000000  0.4149790000000  0.5843140000000 1.0
C      1  0.4948970000000  0.5228100000000  0.5318290000000 1.0
C      1  0.4815180000000  0.4529250000000  0.6171170000000 1.0
C      1  0.5423090000000  0.4352850000000  0.4685910000000 1.0
C      1  0.4716090000000  0.5056350000000  0.3570860000000 1.0
C      1  0.5066380000000  0.4846720000000  0.4748990000000 1.0
C      1  0.4410820000000  0.4679300000000  0.5345380000000 1.0
C      1  0.5699800000000  0.5134450000000  0.4984470000000 1.0
C      1  0.4848120000000  0.4995190000000  0.4863820000000 1.0
C      1  0.4917180000000  0.4076580000000  0.5109740000000 1.0
C      1  0.5400010000000  0.5755440000000  0.5277960000000 1.0
C      1  0.5307980000000  0.4873900000000  0.4894720000000 1.0
C      1  0.4802320000000  0.3998190000000  0.5338980000000 1.0
C      1  0.5842090000000  0.4517870000000  0.4949490000000 1.0
C      1  0.5340460000000  0.4639840000000  0.5611870000000 1.0
C      1  0.5284300000000  0.6173660000000  0.5697900000000 1.0
C      1  0.4972760000000  0.5909750000000  0.5087540000000 1.0
C      1  0.5914670000000  0.4723820000000  0.5106510000000 1.0
C      1  0.5068070000000  0.6057720000000  0.4578880000000 1.0
C      1  0.4327930000000  0.5745870000000  0.4880400000000 1.0
C      1  0.4223990000000  0.4934260000000  0.5027700000000 1.0
C      1  0.5665370000000  0.4889340000000  0.4274990000000 1.0
C      1  0.4868170000000  0.4608380000000  0.6413740000000 1.0
C      1  0.4615240000000  0.4633000000000  0.5737400000000 1.0
C      1  0.5173670000000  0.5918840000000  0.5292610000000 1.0
C      1  0.4348500000000  0.4226920000000  0.5150960000000 1.0
C      1  0.4901030000000  0.5251780000000  0.3649980000000 1.0
C      1  0.5400720000000  0.4166350000000  0.5408660000000 1.0
C      1  0.4708110000000  0.4580170000000  0.4555020000000 1.0
C      1  0.5210320000000  0.5249730000000  0.6108150000000 1.0
C      1  0.4500870000000  0.4671260000000  0.3823800000000 1.0
C      1  0.5196690000000  0.5162110000000  0.5846020000000 1.0
C      1  0.4683830000000  0.4926800000000  0.5672240000000 1.0
C      1  0.5107320000000  0.4266410000000  0.5029270000000 1.0
C      1  0.4870270000000  0.4928930000000  0.4252920000000 1.0
C      1  0.5200520000000  0.5121110000000  0.5293380000000 1.0
C      1  0.5005930000000  0.5166420000000  0.4183490000000 1.0
C      1  0.5032580000000  0.5974200000000  0.4823180000000 1.0
C      1  0.4334220000000  0.4255190000000  0.5430870000000 1.0
C      1  0.4615430000000  0.5972020000000  0.5412760000000 1.0
C      1  0.4770620000000  0.4065630000000  0.5596470000000 1.0
C      1  0.4568010000000  0.4843370000000  0.3631340000000 1.0
C      1  0.5462600000000  0.4843770000000  0.3511620000000 1.0
C      1  0.5359080000000  0.4097400000000  0.5665940000000 1.0
C      1  0.5692720000000  0.5075520000000  0.5701700000000 1.0
C      1  0.4297830000000  0.4822110000000  0.4763150000000 1.0
C      1  0.5390440000000  0.5290300000000  0.5414010000000 1.0
C      1  0.5474210000000  0.5492200000000  0.4753570000000 1.0
C      1  0.4513170000000  0.5220400000000  0.4594240000000 1.0
C      1  0.5690390000000  0.4848370000000  0.5868790000000 1.0
C      1  0.4461870000000  0.4571150000000  0.4724680000000 1.0
C      1  0.5508070000000  0.4655280000000  0.5820790000000 1.0
C      1  0.4677130000000  0.5271760000000  0.5296440000000 1.0
C      1  0.5102180000000  0.6058000000000  0.5531720000000 1.0
C      1  0.5847290000000  0.5063710000000  0.5460140000000 1.0
C      1  0.4943610000000  0.5036580000000  0.5765680000000 1.0
C      1  0.5363420000000  0.4838720000000  0.3270580000000 1.0
C      1  0.4088690000000  0.6000380000000  0.5539010000000 1.0
C      1  0.4327530000000  0.5024880000000  0.4564940000000 1.0
C      1  0.5555900000000  0.4968380000000  0.4796770000000 1.0
C      1  0.4416940000000  0.4502480000000  0.5563980000000 1.0
C      1  0.5290090000000  0.4627720000000  0.5334580000000 1.0
C      1  0.4613940000000  0.5390150000000  0.5044370000000 1.0
C      1  0.5556930000000  0.4851010000000  0.3759230000000 1.0
C      1  0.4522590000000  0.5091010000000  0.5458000000000 1.0
C      1  0.5155810000000  0.5317200000000  0.4368860000000 1.0
C      1  0.4689380000000  0.5229540000000  0.4815730000000 1.0
C      1  0.4347600000000  0.5993890000000  0.5483260000000 1.0
C      1  0.5100490000000  0.5604870000000  0.3294610000000 1.0
C      1  0.4702900000000  0.4702910000000  0.4295650000000 1.0
C      1  0.4891280000000  0.4219630000000  0.5799880000000 1.0
C      1  0.4703350000000  0.5852110000000  0.5168080000000 1.0
END
