TITL C-627111-6168-1175 5.54050209030231 125000 -423.98798662748 0 0 70 (C1) n - 1
REM
REM in /home/nfs/bkarasulu/CARBON/AIRSS/Generating-Clusters/LCBOP/Only-C1/SD-CG/FIRE-CG
REM
REM
REM
REM
REM
REM ./C.cell (11c1c37f851c82e70ff6c80c92926a4b)
REM AIRSS Version 0.9.1 bugfix July 2018 build 013d7b7c2542+ Fri, 06 Jul 2018 19:26:36 +0100
REM compiler GCC version 9.2.1 20190827 (Red Hat 9.2.1-1)
REM options -cpp -mtune=generic -march=x86-64 -g -O0 -fpre-include=/usr/include/finclude/math-vector-fortran.h
REM seed -1418052083 1354704122 -1083804886 2075163005 -1955284680 988345264 -953014613 1386845859 -1094101954 -295157868 1954423345 -246057015 -1781774633 1229091993 546640731 -185976740 -881147398 -594002086 -773633150 -1549050576 -1658287284 -834947671 1710846439 1820557780 1526953606 -1645675019 -1873708432 -1876331364 1434105292 -1963490740 -1984704329 -1703121714 748741769
REM
CELL 1.54180   50.00000   50.00000   50.00000   90.00000   90.00000   90.00000
LATT -1
SFAC C  
C      1  0.3962360000000  0.4724860000000  0.4581590000000 1.0
C      1  0.4872330000000  0.5484580000000  0.4383650000000 1.0
C      1  0.5028230000000  0.5695940000000  0.5625600000000 1.0
C      1  0.4937450000000  0.4817090000000  0.4269960000000 1.0
C      1  0.4652770000000  0.5751150000000  0.4964630000000 1.0
C      1  0.4654940000000  0.4759650000000  0.5526890000000 1.0
C      1  0.5916760000000  0.5023400000000  0.5143840000000 1.0
C      1  0.5624330000000  0.5216470000000  0.3869190000000 1.0
C      1  0.4864020000000  0.5718020000000  0.4538650000000 1.0
C      1  0.5127590000000  0.5204660000000  0.5668750000000 1.0
C      1  0.4798370000000  0.4944880000000  0.5375050000000 1.0
C      1  0.5805620000000  0.5467610000000  0.5315320000000 1.0
C      1  0.4558480000000  0.5508890000000  0.5026490000000 1.0
C      1  0.4212530000000  0.3523620000000  0.5622070000000 1.0
C      1  0.5699630000000  0.5829000000000  0.4649570000000 1.0
C      1  0.3861970000000  0.4437920000000  0.5183160000000 1.0
C      1  0.6323420000000  0.5624820000000  0.5371750000000 1.0
C      1  0.6575070000000  0.5690430000000  0.5389890000000 1.0
C      1  0.4367580000000  0.3687900000000  0.5761330000000 1.0
C      1  0.5380750000000  0.5320880000000  0.3838810000000 1.0
C      1  0.5599050000000  0.5656170000000  0.5295950000000 1.0
C      1  0.3727540000000  0.3620340000000  0.5060910000000 1.0
C      1  0.5154620000000  0.5423730000000  0.3934950000000 1.0
C      1  0.6285410000000  0.4718390000000  0.5104800000000 1.0
C      1  0.5417510000000  0.5193070000000  0.5679520000000 1.0
C      1  0.5308540000000  0.4820400000000  0.5067020000000 1.0
C      1  0.5057960000000  0.5019930000000  0.5453640000000 1.0
C      1  0.5528510000000  0.5083120000000  0.5436230000000 1.0
C      1  0.5438200000000  0.5215970000000  0.4532880000000 1.0
C      1  0.4592370000000  0.5179670000000  0.4673340000000 1.0
C      1  0.5865790000000  0.5171710000000  0.4317120000000 1.0
C      1  0.3662520000000  0.3844270000000  0.4933730000000 1.0
C      1  0.6068660000000  0.5555110000000  0.5351190000000 1.0
C      1  0.3679620000000  0.4104800000000  0.4885420000000 1.0
C      1  0.4361220000000  0.5062500000000  0.4568680000000 1.0
C      1  0.4997740000000  0.5446410000000  0.5717950000000 1.0
C      1  0.4855750000000  0.5839640000000  0.4791850000000 1.0
C      1  0.3782110000000  0.4361460000000  0.4925890000000 1.0
C      1  0.4557960000000  0.4444590000000  0.5887920000000 1.0
C      1  0.4875390000000  0.4636520000000  0.4092640000000 1.0
C      1  0.3861110000000  0.3479350000000  0.5242090000000 1.0
C      1  0.4546230000000  0.4165000000000  0.5887850000000 1.0
C      1  0.5818610000000  0.5152230000000  0.4041590000000 1.0
C      1  0.5246120000000  0.5021620000000  0.4589710000000 1.0
C      1  0.5739730000000  0.5598860000000  0.4523580000000 1.0
C      1  0.4814790000000  0.5230750000000  0.4502880000000 1.0
C      1  0.4477420000000  0.4586010000000  0.5654680000000 1.0
C      1  0.3831250000000  0.4535120000000  0.4712740000000 1.0
C      1  0.6107750000000  0.4890180000000  0.4987410000000 1.0
C      1  0.5337180000000  0.5943330000000  0.5000860000000 1.0
C      1  0.6046040000000  0.5023250000000  0.4469880000000 1.0
C      1  0.4683770000000  0.5056760000000  0.5144910000000 1.0
C      1  0.5178040000000  0.5834750000000  0.5453650000000 1.0
C      1  0.4014570000000  0.4498630000000  0.5391220000000 1.0
C      1  0.5287480000000  0.4848180000000  0.4804200000000 1.0
C      1  0.5554760000000  0.5965580000000  0.4825940000000 1.0
C      1  0.4221210000000  0.4548010000000  0.5549640000000 1.0
C      1  0.5301500000000  0.4947930000000  0.5312470000000 1.0
C      1  0.6116190000000  0.4933860000000  0.4710470000000 1.0
C      1  0.4148450000000  0.4908050000000  0.4534860000000 1.0
C      1  0.4998550000000  0.5018790000000  0.4452450000000 1.0
C      1  0.4603540000000  0.5242090000000  0.4951800000000 1.0
C      1  0.4481450000000  0.3910860000000  0.5849050000000 1.0
C      1  0.5680850000000  0.5333940000000  0.4461100000000 1.0
C      1  0.5752130000000  0.5187030000000  0.5300600000000 1.0
C      1  0.4034150000000  0.3447230000000  0.5440920000000 1.0
C      1  0.5078750000000  0.5971070000000  0.4896420000000 1.0
C      1  0.4642780000000  0.4580400000000  0.6109770000000 1.0
C      1  0.4978550000000  0.5488760000000  0.4123760000000 1.0
C      1  0.5376370000000  0.5822810000000  0.5255670000000 1.0
END
