TITL C-627106-156-546 -7.13794776853708e-08 125000 -664.450906659691 0 0 109 (C1) n - 1
REM
REM in /home/nfs/bkarasulu/CARBON/AIRSS/Generating-Clusters/LCBOP/Only-C1/SD-CG/FIRE-CG
REM
REM
REM
REM
REM
REM ./C.cell (11c1c37f851c82e70ff6c80c92926a4b)
REM AIRSS Version 0.9.1 bugfix July 2018 build 013d7b7c2542+ Fri, 06 Jul 2018 19:26:36 +0100
REM compiler GCC version 9.2.1 20190827 (Red Hat 9.2.1-1)
REM options -cpp -mtune=generic -march=x86-64 -g -O0 -fpre-include=/usr/include/finclude/math-vector-fortran.h
REM seed -1314073921 -377256001 1870912488 -1262952099 -782338908 1395371983 1744754890 -1694125810 829844967 -1362260713 1401472395 299289212 -1370582292 -459568275 1986643081 -963252921 -536686996 -1032184945 525514946 -1772975926 -569836691 -1024379772 -1322151931 -1517862807 -276550995 -669562769 1775756820 770233624 -716618201 -465820447 593786235 214800654 -1299400622
REM
CELL 1.54180   50.00000   50.00000   50.00000   90.00000   90.00000   90.00000
LATT -1
SFAC C  
C      1  0.5311550000000  0.5254730000000  0.5290050000000 1.0
C      1  0.4988440000000  0.4064530000000  0.5018620000000 1.0
C      1  0.5437900000000  0.4893590000000  0.4811640000000 1.0
C      1  0.5145940000000  0.5445720000000  0.5167520000000 1.0
C      1  0.4766600000000  0.4735930000000  0.5131200000000 1.0
C      1  0.5822130000000  0.5030190000000  0.4525040000000 1.0
C      1  0.5141250000000  0.4625820000000  0.6152130000000 1.0
C      1  0.5446370000000  0.5050890000000  0.4167310000000 1.0
C      1  0.3787020000000  0.4935640000000  0.5452790000000 1.0
C      1  0.5589860000000  0.5864280000000  0.4551610000000 1.0
C      1  0.5409170000000  0.5797980000000  0.5334480000000 1.0
C      1  0.5789130000000  0.4971700000000  0.5596750000000 1.0
C      1  0.4841470000000  0.5606550000000  0.5768520000000 1.0
C      1  0.4926180000000  0.5327610000000  0.5052270000000 1.0
C      1  0.4724360000000  0.5019280000000  0.4782420000000 1.0
C      1  0.5216200000000  0.5848660000000  0.4870960000000 1.0
C      1  0.4618340000000  0.5779470000000  0.5057540000000 1.0
C      1  0.4246300000000  0.4413660000000  0.4664210000000 1.0
C      1  0.4892150000000  0.5694730000000  0.4299500000000 1.0
C      1  0.4864270000000  0.5812320000000  0.5240240000000 1.0
C      1  0.5624500000000  0.4169810000000  0.4926590000000 1.0
C      1  0.4718830000000  0.5770540000000  0.4523830000000 1.0
C      1  0.5720140000000  0.5667760000000  0.4396660000000 1.0
C      1  0.4650280000000  0.5402790000000  0.5822070000000 1.0
C      1  0.5047420000000  0.4741480000000  0.4053940000000 1.0
C      1  0.5390970000000  0.4277360000000  0.5000750000000 1.0
C      1  0.4772070000000  0.4771430000000  0.4115560000000 1.0
C      1  0.5866160000000  0.4729590000000  0.4947580000000 1.0
C      1  0.5720290000000  0.4871120000000  0.4735640000000 1.0
C      1  0.5943070000000  0.5277450000000  0.4623430000000 1.0
C      1  0.5426590000000  0.4742500000000  0.5054680000000 1.0
C      1  0.5309870000000  0.5864990000000  0.4603320000000 1.0
C      1  0.5450150000000  0.4579570000000  0.5556420000000 1.0
C      1  0.5082600000000  0.4185150000000  0.4497410000000 1.0
C      1  0.5183790000000  0.5147110000000  0.6205150000000 1.0
C      1  0.5217760000000  0.5122030000000  0.5526590000000 1.0
C      1  0.4979920000000  0.4331440000000  0.5490700000000 1.0
C      1  0.4172520000000  0.4678500000000  0.4735340000000 1.0
C      1  0.5547360000000  0.5212680000000  0.5147170000000 1.0
C      1  0.5238040000000  0.4520210000000  0.5112360000000 1.0
C      1  0.4504190000000  0.4028290000000  0.4966130000000 1.0
C      1  0.4829590000000  0.5764990000000  0.5529690000000 1.0
C      1  0.4686130000000  0.4573150000000  0.4549610000000 1.0
C      1  0.4797170000000  0.4914190000000  0.5344320000000 1.0
C      1  0.4340240000000  0.5568420000000  0.4696710000000 1.0
C      1  0.4297740000000  0.4779600000000  0.4972120000000 1.0
C      1  0.5397040000000  0.5292970000000  0.4319090000000 1.0
C      1  0.5171330000000  0.4879250000000  0.6237710000000 1.0
C      1  0.4919720000000  0.4069320000000  0.4722140000000 1.0
C      1  0.4982950000000  0.4958530000000  0.5554000000000 1.0
C      1  0.4687190000000  0.4649050000000  0.5763790000000 1.0
C      1  0.4030770000000  0.4995310000000  0.5328680000000 1.0
C      1  0.4572250000000  0.4843400000000  0.4943280000000 1.0
C      1  0.4677400000000  0.5334600000000  0.5179390000000 1.0
C      1  0.4563740000000  0.4149220000000  0.5219060000000 1.0
C      1  0.5216900000000  0.5334150000000  0.5995020000000 1.0
C      1  0.5814870000000  0.5454990000000  0.5402900000000 1.0
C      1  0.5670340000000  0.4745930000000  0.5466170000000 1.0
C      1  0.5539750000000  0.5518760000000  0.4240570000000 1.0
C      1  0.5071170000000  0.5573040000000  0.5937280000000 1.0
C      1  0.4375180000000  0.5231110000000  0.4293850000000 1.0
C      1  0.5219970000000  0.5251880000000  0.4530430000000 1.0
C      1  0.4423760000000  0.4636220000000  0.5666070000000 1.0
C      1  0.5704530000000  0.4968370000000  0.4266010000000 1.0
C      1  0.4934940000000  0.4581310000000  0.4709100000000 1.0
C      1  0.5944400000000  0.5517880000000  0.4475150000000 1.0
C      1  0.4948520000000  0.5308020000000  0.4490560000000 1.0
C      1  0.5143920000000  0.5812330000000  0.4374630000000 1.0
C      1  0.4983090000000  0.5096340000000  0.4897800000000 1.0
C      1  0.5640190000000  0.5684080000000  0.5428710000000 1.0
C      1  0.4559000000000  0.5360130000000  0.4116200000000 1.0
C      1  0.5161280000000  0.5747370000000  0.5150620000000 1.0
C      1  0.4720450000000  0.5184830000000  0.4558970000000 1.0
C      1  0.4608800000000  0.5127780000000  0.5335310000000 1.0
C      1  0.5690310000000  0.4734720000000  0.5182460000000 1.0
C      1  0.4671160000000  0.5139410000000  0.5878930000000 1.0
C      1  0.5846730000000  0.5239660000000  0.5592860000000 1.0
C      1  0.5151250000000  0.4449260000000  0.4590200000000 1.0
C      1  0.4879980000000  0.4432420000000  0.5749600000000 1.0
C      1  0.4831500000000  0.5462080000000  0.4103850000000 1.0
C      1  0.4573470000000  0.5725370000000  0.4764950000000 1.0
C      1  0.4515730000000  0.4345700000000  0.4606930000000 1.0
C      1  0.4194940000000  0.4776880000000  0.5240200000000 1.0
C      1  0.4601290000000  0.4761000000000  0.4338510000000 1.0
C      1  0.5879130000000  0.4243690000000  0.4882210000000 1.0
C      1  0.4628310000000  0.4110040000000  0.4721140000000 1.0
C      1  0.5188560000000  0.4997740000000  0.4038410000000 1.0
C      1  0.4377440000000  0.5710260000000  0.5207030000000 1.0
C      1  0.5226210000000  0.4466050000000  0.5411390000000 1.0
C      1  0.5955650000000  0.5315750000000  0.4906460000000 1.0
C      1  0.3563340000000  0.4873660000000  0.5571280000000 1.0
C      1  0.4367900000000  0.4317940000000  0.5326190000000 1.0
C      1  0.5132400000000  0.4465120000000  0.4073030000000 1.0
C      1  0.4852090000000  0.4165910000000  0.5270670000000 1.0
C      1  0.5329550000000  0.5217610000000  0.5765460000000 1.0
C      1  0.4101880000000  0.5268020000000  0.5294860000000 1.0
C      1  0.4300060000000  0.4574920000000  0.5419890000000 1.0
C      1  0.5996750000000  0.4486530000000  0.4892730000000 1.0
C      1  0.5800190000000  0.5339370000000  0.5136720000000 1.0
C      1  0.5022710000000  0.5251650000000  0.4006350000000 1.0
C      1  0.4266360000000  0.5401150000000  0.4497590000000 1.0
C      1  0.5232970000000  0.5074120000000  0.4752040000000 1.0
C      1  0.4967670000000  0.4593040000000  0.4995820000000 1.0
C      1  0.4808860000000  0.4911050000000  0.5784910000000 1.0
C      1  0.5101460000000  0.4225880000000  0.4210180000000 1.0
C      1  0.4371100000000  0.4944040000000  0.4351380000000 1.0
C      1  0.5051260000000  0.4438740000000  0.5978820000000 1.0
C      1  0.4201310000000  0.5516680000000  0.5272480000000 1.0
C      1  0.4155050000000  0.4852960000000  0.4513390000000 1.0
END
