TITL C-627112-676-416 -2.92283398136135e-07 125000 -457.628521925688 0 0 76 (C1) n - 1
REM
REM in /home/nfs/bkarasulu/CARBON/AIRSS/Generating-Clusters/LCBOP/Only-C1/SD-CG/FIRE-CG
REM
REM
REM
REM
REM
REM ./C.cell (11c1c37f851c82e70ff6c80c92926a4b)
REM AIRSS Version 0.9.1 bugfix July 2018 build 013d7b7c2542+ Fri, 06 Jul 2018 19:26:36 +0100
REM compiler GCC version 9.2.1 20190827 (Red Hat 9.2.1-1)
REM options -cpp -mtune=generic -march=x86-64 -g -O0 -fpre-include=/usr/include/finclude/math-vector-fortran.h
REM seed -1939145221 -587792758 -1334971864 688857463 1690482072 -1419224332 420087900 1644184929 162548883 -2121319885 902761708 -1828158869 -17731075 -236594211 585553455 1884900480 1927588569 1711914686 1706132393 1189241448 1480187984 -2034118835 -1300577284 2079365295 310344987 -1349347574 275167850 -405036626 583828966 -36986515 1431439354 -1635099941 1177887523
REM
CELL 1.54180   50.00000   50.00000   50.00000   90.00000   90.00000   90.00000
LATT -1
SFAC C  
C      1  0.5212140000000  0.4809130000000  0.4009660000000 1.0
C      1  0.4665940000000  0.5025830000000  0.4453180000000 1.0
C      1  0.4552840000000  0.4314680000000  0.5171680000000 1.0
C      1  0.5015760000000  0.4336090000000  0.5014090000000 1.0
C      1  0.5319880000000  0.4211290000000  0.5424320000000 1.0
C      1  0.5078880000000  0.5107490000000  0.4799710000000 1.0
C      1  0.4139630000000  0.5504930000000  0.4990510000000 1.0
C      1  0.4957530000000  0.5877610000000  0.5182730000000 1.0
C      1  0.5280600000000  0.5368990000000  0.4392620000000 1.0
C      1  0.4635850000000  0.4709260000000  0.5543570000000 1.0
C      1  0.5738940000000  0.5136800000000  0.5471770000000 1.0
C      1  0.5568300000000  0.5521720000000  0.5656560000000 1.0
C      1  0.5141440000000  0.5253980000000  0.5235110000000 1.0
C      1  0.5059820000000  0.5216190000000  0.4259180000000 1.0
C      1  0.5405640000000  0.4570020000000  0.4371710000000 1.0
C      1  0.5531000000000  0.5607140000000  0.4917760000000 1.0
C      1  0.4058720000000  0.5253550000000  0.4443780000000 1.0
C      1  0.5639900000000  0.5521570000000  0.5168300000000 1.0
C      1  0.5780720000000  0.5279220000000  0.5237410000000 1.0
C      1  0.4604120000000  0.5564900000000  0.5148660000000 1.0
C      1  0.5326550000000  0.5115430000000  0.5788070000000 1.0
C      1  0.4256290000000  0.4770940000000  0.5001430000000 1.0
C      1  0.5572630000000  0.5233080000000  0.5690880000000 1.0
C      1  0.5033770000000  0.4936790000000  0.4182940000000 1.0
C      1  0.4355770000000  0.5169550000000  0.5654170000000 1.0
C      1  0.4772470000000  0.5714190000000  0.5322320000000 1.0
C      1  0.5159920000000  0.5578250000000  0.4567490000000 1.0
C      1  0.5092160000000  0.5283070000000  0.5811020000000 1.0
C      1  0.4256910000000  0.5046850000000  0.5150050000000 1.0
C      1  0.4814060000000  0.4712800000000  0.5765390000000 1.0
C      1  0.4849410000000  0.4539650000000  0.4524060000000 1.0
C      1  0.4553640000000  0.5080600000000  0.5182410000000 1.0
C      1  0.4850070000000  0.4731690000000  0.5145980000000 1.0
C      1  0.5403400000000  0.4100530000000  0.5182170000000 1.0
C      1  0.5871750000000  0.4619020000000  0.4653490000000 1.0
C      1  0.5227210000000  0.4514380000000  0.5099390000000 1.0
C      1  0.4826370000000  0.5371950000000  0.5741760000000 1.0
C      1  0.4843850000000  0.4795690000000  0.4362760000000 1.0
C      1  0.5280990000000  0.4834880000000  0.5797890000000 1.0
C      1  0.4869830000000  0.5528620000000  0.4539430000000 1.0
C      1  0.5370710000000  0.4095590000000  0.4889020000000 1.0
C      1  0.4184710000000  0.5103790000000  0.5443750000000 1.0
C      1  0.4425890000000  0.4734800000000  0.4764650000000 1.0
C      1  0.5525410000000  0.4216710000000  0.4671850000000 1.0
C      1  0.5403790000000  0.4644330000000  0.4102450000000 1.0
C      1  0.4696120000000  0.5302150000000  0.5082320000000 1.0
C      1  0.5282520000000  0.5696310000000  0.4800270000000 1.0
C      1  0.5473640000000  0.5200620000000  0.4523590000000 1.0
C      1  0.5307410000000  0.5012290000000  0.4667420000000 1.0
C      1  0.5132730000000  0.4760680000000  0.5187360000000 1.0
C      1  0.4800910000000  0.5281420000000  0.4403550000000 1.0
C      1  0.4157140000000  0.5230590000000  0.4927400000000 1.0
C      1  0.5741540000000  0.5110040000000  0.4512380000000 1.0
C      1  0.5121630000000  0.5861600000000  0.4968810000000 1.0
C      1  0.5057260000000  0.4303410000000  0.4548470000000 1.0
C      1  0.5357100000000  0.4756020000000  0.4577880000000 1.0
C      1  0.5240150000000  0.4996050000000  0.5286660000000 1.0
C      1  0.4790930000000  0.5607690000000  0.5586080000000 1.0
C      1  0.4429920000000  0.4972290000000  0.4601420000000 1.0
C      1  0.5196460000000  0.4386440000000  0.5600410000000 1.0
C      1  0.4756490000000  0.4471910000000  0.5017880000000 1.0
C      1  0.4965650000000  0.5250480000000  0.5013290000000 1.0
C      1  0.5216860000000  0.5495000000000  0.5350210000000 1.0
C      1  0.4714830000000  0.4937480000000  0.5918500000000 1.0
C      1  0.5869850000000  0.4879170000000  0.4578060000000 1.0
C      1  0.3919690000000  0.5351050000000  0.4246110000000 1.0
C      1  0.4213910000000  0.5154520000000  0.4653280000000 1.0
C      1  0.5089530000000  0.4164080000000  0.4806960000000 1.0
C      1  0.4669340000000  0.4856970000000  0.5307740000000 1.0
C      1  0.5761660000000  0.4374960000000  0.4696980000000 1.0
C      1  0.4613720000000  0.5178720000000  0.5791280000000 1.0
C      1  0.5474730000000  0.5597120000000  0.5398010000000 1.0
C      1  0.4652540000000  0.4554850000000  0.4747330000000 1.0
C      1  0.5093440000000  0.4626940000000  0.5734910000000 1.0
C      1  0.5339030000000  0.4314200000000  0.4462220000000 1.0
C      1  0.4348060000000  0.5651400000000  0.5076110000000 1.0
END
