TITL C-627111-6168-1165 0.00444732955570364 125000 -172.639635420273 0 0 30 (C1) n - 1
REM
REM in /home/nfs/bkarasulu/CARBON/AIRSS/Generating-Clusters/LCBOP/Only-C1/SD-CG/FIRE-CG
REM
REM
REM
REM
REM
REM ./C.cell (11c1c37f851c82e70ff6c80c92926a4b)
REM AIRSS Version 0.9.1 bugfix July 2018 build 013d7b7c2542+ Fri, 06 Jul 2018 19:26:36 +0100
REM compiler GCC version 9.2.1 20190827 (Red Hat 9.2.1-1)
REM options -cpp -mtune=generic -march=x86-64 -g -O0 -fpre-include=/usr/include/finclude/math-vector-fortran.h
REM seed 2046847640 1991677944 1382733734 -2127252067 1411340310 -1270553106 -236630672 633449344 1436737081 883598038 2098240975 1597654295 2104003380 2039842170 1069312799 349172439 -1133488690 2042182893 611207248 -905277439 -1940962300 1844111557 -1341852408 1338651332 2100409366 -807354354 294583937 1892420455 2124189046 1399473874 -666642742 -65489591 1743309873
REM
CELL 1.54180   50.00000   50.00000   50.00000   90.00000   90.00000   90.00000
LATT -1
SFAC C  
C      1  0.4651200000000  0.5223660000000  0.5745260000000 1.0
C      1  0.5015210000000  0.4939110000000  0.4879180000000 1.0
C      1  0.4964140000000  0.5585970000000  0.5193330000000 1.0
C      1  0.5201590000000  0.5595980000000  0.4797460000000 1.0
C      1  0.5270960000000  0.5334600000000  0.4908240000000 1.0
C      1  0.4853810000000  0.5152280000000  0.4993280000000 1.0
C      1  0.4709490000000  0.4980590000000  0.5616690000000 1.0
C      1  0.4519490000000  0.5222150000000  0.5991580000000 1.0
C      1  0.5088590000000  0.4457280000000  0.4842460000000 1.0
C      1  0.5168530000000  0.4041410000000  0.4607880000000 1.0
C      1  0.5097000000000  0.3799300000000  0.4543160000000 1.0
C      1  0.5060770000000  0.5319300000000  0.5130680000000 1.0
C      1  0.4986530000000  0.4676940000000  0.4980420000000 1.0
C      1  0.4664640000000  0.5314200000000  0.4853090000000 1.0
C      1  0.4396580000000  0.5220430000000  0.6221390000000 1.0
C      1  0.4779030000000  0.4780610000000  0.5455110000000 1.0
C      1  0.5494150000000  0.4405760000000  0.4572570000000 1.0
C      1  0.5533430000000  0.4683130000000  0.4575680000000 1.0
C      1  0.4871970000000  0.4657980000000  0.5237030000000 1.0
C      1  0.4724490000000  0.5467980000000  0.5627650000000 1.0
C      1  0.5692570000000  0.4236410000000  0.4473410000000 1.0
C      1  0.4707060000000  0.5592890000000  0.4789980000000 1.0
C      1  0.5249650000000  0.4300020000000  0.4675490000000 1.0
C      1  0.5264800000000  0.5068040000000  0.4794410000000 1.0
C      1  0.5456300000000  0.4925540000000  0.4653460000000 1.0
C      1  0.4834730000000  0.5618530000000  0.5436550000000 1.0
C      1  0.5874540000000  0.4074330000000  0.4381020000000 1.0
C      1  0.4382680000000  0.5887000000000  0.4477900000000 1.0
C      1  0.4539320000000  0.5743930000000  0.4629260000000 1.0
C      1  0.4946770000000  0.5694660000000  0.4916390000000 1.0
END
