TITL C-627109-622-1341 -1.13651643959836e-06 125000 -937.007438752797 0 0 152 (C1) n - 1
REM
REM in /home/nfs/bkarasulu/CARBON/AIRSS/Generating-Clusters/LCBOP/Only-C1/SD-CG/FIRE-CG
REM
REM
REM
REM
REM
REM ./C.cell (11c1c37f851c82e70ff6c80c92926a4b)
REM AIRSS Version 0.9.1 bugfix July 2018 build 013d7b7c2542+ Fri, 06 Jul 2018 19:26:36 +0100
REM compiler GCC version 9.2.1 20190827 (Red Hat 9.2.1-1)
REM options -cpp -mtune=generic -march=x86-64 -g -O0 -fpre-include=/usr/include/finclude/math-vector-fortran.h
REM seed -191875266 -1742362499 -756821546 -2039926363 -1033856435 396441922 1981877469 172648566 -375122995 313634894 1975342140 -977743490 1010289198 -1726958711 -543601922 453957828 720018614 -1490545943 518653301 -2051606673 -438175211 1938222068 1169549623 652571670 -2141991638 -1116700933 761997149 1786796116 -2030054176 72790584 1739456434 1395832549 2054116975
REM
CELL 1.54180   50.00000   50.00000   50.00000   90.00000   90.00000   90.00000
LATT -1
SFAC C  
C      1  0.4806700000000  0.5968890000000  0.5007370000000 1.0
C      1  0.5123140000000  0.6208960000000  0.4582470000000 1.0
C      1  0.4916100000000  0.5020600000000  0.5439480000000 1.0
C      1  0.4511820000000  0.4029580000000  0.5515030000000 1.0
C      1  0.5394900000000  0.4068390000000  0.5731850000000 1.0
C      1  0.6005430000000  0.5338200000000  0.4768700000000 1.0
C      1  0.5256570000000  0.5368230000000  0.5950560000000 1.0
C      1  0.4978240000000  0.5777140000000  0.4878640000000 1.0
C      1  0.3999280000000  0.5737060000000  0.4919550000000 1.0
C      1  0.5311760000000  0.4420720000000  0.4690520000000 1.0
C      1  0.3902180000000  0.5325090000000  0.5208260000000 1.0
C      1  0.5441380000000  0.4571760000000  0.5187670000000 1.0
C      1  0.6102670000000  0.4859150000000  0.4710770000000 1.0
C      1  0.4395310000000  0.5054540000000  0.4790070000000 1.0
C      1  0.5533560000000  0.5983820000000  0.5564800000000 1.0
C      1  0.4146530000000  0.5540360000000  0.5704790000000 1.0
C      1  0.4655600000000  0.6081890000000  0.4784090000000 1.0
C      1  0.5567110000000  0.4174870000000  0.5526780000000 1.0
C      1  0.5526560000000  0.5112190000000  0.4464870000000 1.0
C      1  0.5129370000000  0.5477950000000  0.5521360000000 1.0
C      1  0.3966200000000  0.5473530000000  0.5466460000000 1.0
C      1  0.5433920000000  0.6121510000000  0.4947660000000 1.0
C      1  0.4100050000000  0.4603060000000  0.4551640000000 1.0
C      1  0.4801330000000  0.4176450000000  0.4532300000000 1.0
C      1  0.5512400000000  0.4627850000000  0.5711270000000 1.0
C      1  0.4628560000000  0.5790980000000  0.5770770000000 1.0
C      1  0.5299350000000  0.5965860000000  0.5410240000000 1.0
C      1  0.4941060000000  0.4269270000000  0.5287050000000 1.0
C      1  0.4270160000000  0.5814050000000  0.4948210000000 1.0
C      1  0.5181250000000  0.5028240000000  0.5536950000000 1.0
C      1  0.5114640000000  0.4891530000000  0.6027280000000 1.0
C      1  0.4479530000000  0.5399800000000  0.5182870000000 1.0
C      1  0.6076420000000  0.5056210000000  0.5199620000000 1.0
C      1  0.5643910000000  0.3909030000000  0.4819560000000 1.0
C      1  0.4509810000000  0.5434130000000  0.4162220000000 1.0
C      1  0.5345790000000  0.5642760000000  0.4063210000000 1.0
C      1  0.4295940000000  0.4712860000000  0.5682040000000 1.0
C      1  0.5841940000000  0.4524290000000  0.4375270000000 1.0
C      1  0.5794170000000  0.5012650000000  0.5617750000000 1.0
C      1  0.4986950000000  0.4200120000000  0.4309430000000 1.0
C      1  0.5668130000000  0.5669090000000  0.4462700000000 1.0
C      1  0.5100260000000  0.4858950000000  0.4070870000000 1.0
C      1  0.4161900000000  0.4889060000000  0.5500260000000 1.0
C      1  0.4880860000000  0.4304920000000  0.5006660000000 1.0
C      1  0.4504200000000  0.4575160000000  0.5546670000000 1.0
C      1  0.4184370000000  0.3902290000000  0.4788890000000 1.0
C      1  0.5963400000000  0.4852560000000  0.5420890000000 1.0
C      1  0.5186080000000  0.4647190000000  0.5252350000000 1.0
C      1  0.4871550000000  0.5037000000000  0.6042440000000 1.0
C      1  0.5040550000000  0.4497100000000  0.5467460000000 1.0
C      1  0.5550670000000  0.5922520000000  0.4528490000000 1.0
C      1  0.5153030000000  0.4053670000000  0.5852180000000 1.0
C      1  0.4460480000000  0.4953600000000  0.3931870000000 1.0
C      1  0.4316340000000  0.4673060000000  0.5102960000000 1.0
C      1  0.4779320000000  0.5450860000000  0.4246690000000 1.0
C      1  0.5254590000000  0.5046110000000  0.3916180000000 1.0
C      1  0.4457160000000  0.4788080000000  0.4870760000000 1.0
C      1  0.6028380000000  0.5319680000000  0.5338030000000 1.0
C      1  0.4922810000000  0.5699690000000  0.4618360000000 1.0
C      1  0.4247450000000  0.4352670000000  0.4561920000000 1.0
C      1  0.5015530000000  0.4769910000000  0.5064960000000 1.0
C      1  0.4416080000000  0.5925340000000  0.4723840000000 1.0
C      1  0.4107510000000  0.4129840000000  0.4668960000000 1.0
C      1  0.5018200000000  0.5965660000000  0.5497940000000 1.0
C      1  0.4669650000000  0.5128180000000  0.5870410000000 1.0
C      1  0.4445180000000  0.5215450000000  0.3991800000000 1.0
C      1  0.6088590000000  0.5082920000000  0.4896140000000 1.0
C      1  0.4893850000000  0.5207700000000  0.4314150000000 1.0
C      1  0.5240330000000  0.4554970000000  0.5708110000000 1.0
C      1  0.5165510000000  0.5271180000000  0.3770010000000 1.0
C      1  0.4674950000000  0.4020850000000  0.5731240000000 1.0
C      1  0.4320030000000  0.5534470000000  0.4351760000000 1.0
C      1  0.4939780000000  0.5028530000000  0.5146500000000 1.0
C      1  0.5381900000000  0.6109210000000  0.4665990000000 1.0
C      1  0.5315370000000  0.5271370000000  0.5503940000000 1.0
C      1  0.5524380000000  0.5088820000000  0.4000810000000 1.0
C      1  0.4707360000000  0.5143760000000  0.5579780000000 1.0
C      1  0.4784870000000  0.4777140000000  0.4481480000000 1.0
C      1  0.6010710000000  0.5809870000000  0.5451950000000 1.0
C      1  0.3925460000000  0.5033800000000  0.5108360000000 1.0
C      1  0.4849530000000  0.6216460000000  0.4613960000000 1.0
C      1  0.4362400000000  0.5786230000000  0.4479520000000 1.0
C      1  0.5544780000000  0.5316330000000  0.5357010000000 1.0
C      1  0.5526560000000  0.4060160000000  0.5263150000000 1.0
C      1  0.5860950000000  0.5526100000000  0.4629570000000 1.0
C      1  0.4417430000000  0.3796030000000  0.4867290000000 1.0
C      1  0.5708470000000  0.4083140000000  0.5037310000000 1.0
C      1  0.5268050000000  0.5518410000000  0.3819020000000 1.0
C      1  0.4190450000000  0.5082740000000  0.4596390000000 1.0
C      1  0.5171960000000  0.4584840000000  0.4057120000000 1.0
C      1  0.4489290000000  0.5241560000000  0.5419030000000 1.0
C      1  0.4921960000000  0.5673510000000  0.4342110000000 1.0
C      1  0.5786050000000  0.5268030000000  0.5486790000000 1.0
C      1  0.4885350000000  0.4152330000000  0.5874780000000 1.0
C      1  0.6000870000000  0.4684590000000  0.4527280000000 1.0
C      1  0.5088640000000  0.4615430000000  0.5949290000000 1.0
C      1  0.5306660000000  0.4668550000000  0.4614990000000 1.0
C      1  0.5574930000000  0.4909590000000  0.5783930000000 1.0
C      1  0.3832240000000  0.4935040000000  0.4851170000000 1.0
C      1  0.4703160000000  0.4489740000000  0.3998920000000 1.0
C      1  0.4891600000000  0.4062030000000  0.4818500000000 1.0
C      1  0.4249800000000  0.5149180000000  0.5538270000000 1.0
C      1  0.6116470000000  0.5584080000000  0.5351130000000 1.0
C      1  0.4677270000000  0.3856610000000  0.4879220000000 1.0
C      1  0.5349020000000  0.5920430000000  0.5128320000000 1.0
C      1  0.4542960000000  0.4697800000000  0.3938600000000 1.0
C      1  0.4924730000000  0.4934180000000  0.4287700000000 1.0
C      1  0.5555480000000  0.5531730000000  0.4231460000000 1.0
C      1  0.4855070000000  0.4443120000000  0.5901750000000 1.0
C      1  0.4312710000000  0.4825600000000  0.5945250000000 1.0
C      1  0.4688920000000  0.4689250000000  0.4736250000000 1.0
C      1  0.5377960000000  0.4916420000000  0.4562020000000 1.0
C      1  0.5449230000000  0.4530070000000  0.4066480000000 1.0
C      1  0.5626290000000  0.4392550000000  0.4240700000000 1.0
C      1  0.5387940000000  0.3848970000000  0.4742480000000 1.0
C      1  0.4217330000000  0.5274040000000  0.5797950000000 1.0
C      1  0.4161220000000  0.5329080000000  0.4465180000000 1.0
C      1  0.4946760000000  0.5477800000000  0.5305560000000 1.0
C      1  0.5261080000000  0.5421170000000  0.4990950000000 1.0
C      1  0.4496400000000  0.5262410000000  0.4939890000000 1.0
C      1  0.4411550000000  0.4184820000000  0.5314400000000 1.0
C      1  0.4392550000000  0.5104730000000  0.5955340000000 1.0
C      1  0.4836850000000  0.6025990000000  0.5282090000000 1.0
C      1  0.5266530000000  0.3965860000000  0.5176090000000 1.0
C      1  0.4952070000000  0.4403280000000  0.4105740000000 1.0
C      1  0.5093160000000  0.5572900000000  0.5790560000000 1.0
C      1  0.5580810000000  0.5246680000000  0.4227710000000 1.0
C      1  0.4408590000000  0.5671620000000  0.5152640000000 1.0
C      1  0.4871470000000  0.4577390000000  0.4914450000000 1.0
C      1  0.4418490000000  0.4468450000000  0.5288740000000 1.0
C      1  0.5014890000000  0.5296370000000  0.5083320000000 1.0
C      1  0.5225260000000  0.5703020000000  0.4991480000000 1.0
C      1  0.5797180000000  0.5936610000000  0.5552110000000 1.0
C      1  0.4769120000000  0.4540900000000  0.5631260000000 1.0
C      1  0.5244160000000  0.4076490000000  0.4311890000000 1.0
C      1  0.5133670000000  0.5777510000000  0.4191050000000 1.0
C      1  0.5167490000000  0.3934760000000  0.4901810000000 1.0
C      1  0.5698970000000  0.4837790000000  0.4923210000000 1.0
C      1  0.5804440000000  0.4343150000000  0.4984660000000 1.0
C      1  0.5500790000000  0.5302150000000  0.5077160000000 1.0
C      1  0.4917100000000  0.5807460000000  0.5734550000000 1.0
C      1  0.3861770000000  0.5518970000000  0.4998930000000 1.0
C      1  0.5508830000000  0.4141380000000  0.4307910000000 1.0
C      1  0.4527910000000  0.4289150000000  0.4509600000000 1.0
C      1  0.4107560000000  0.4839670000000  0.5228920000000 1.0
C      1  0.5691440000000  0.4440040000000  0.5578510000000 1.0
C      1  0.5666190000000  0.4584130000000  0.5025780000000 1.0
C      1  0.5921940000000  0.4570450000000  0.5462540000000 1.0
C      1  0.5349150000000  0.5064310000000  0.5948270000000 1.0
C      1  0.4363530000000  0.5728630000000  0.5738180000000 1.0
C      1  0.4001900000000  0.4866540000000  0.4626420000000 1.0
C      1  0.5612280000000  0.5087670000000  0.4944170000000 1.0
END
