TITL C-627113-6568-1652 0.229704219751109 125000 -1200.27954446341 0 0 193 (C1) n - 1
REM
REM in /home/nfs/bkarasulu/CARBON/AIRSS/Generating-Clusters/LCBOP/Only-C1/SD-CG/FIRE-CG
REM
REM
REM
REM
REM
REM ./C.cell (11c1c37f851c82e70ff6c80c92926a4b)
REM AIRSS Version 0.9.1 bugfix July 2018 build 013d7b7c2542+ Fri, 06 Jul 2018 19:26:36 +0100
REM compiler GCC version 9.2.1 20190827 (Red Hat 9.2.1-1)
REM options -cpp -mtune=generic -march=x86-64 -g -O0 -fpre-include=/usr/include/finclude/math-vector-fortran.h
REM seed 611069446 -1394066751 443922480 2113568674 346801682 951934252 718602247 -145683588 -441920738 517860107 -872075216 -1605839129 -777249625 1700829596 655485759 -1030150520 -1857302417 1053582278 -1638581294 1703849014 2145893249 -1415011188 -179654469 1696820427 -1439760206 -373734619 -1724490563 -420608732 1081386960 65016902 -2098705852 -2116415112 -1328012173
REM
CELL 1.54180   50.00000   50.00000   50.00000   90.00000   90.00000   90.00000
LATT -1
SFAC C  
C      1  0.4845900000000  0.5309670000000  0.4238450000000 1.0
C      1  0.4822030000000  0.3774090000000  0.5192890000000 1.0
C      1  0.5238520000000  0.4347340000000  0.4907440000000 1.0
C      1  0.4729790000000  0.6105070000000  0.4884410000000 1.0
C      1  0.6124300000000  0.5568250000000  0.4918200000000 1.0
C      1  0.4338810000000  0.5131630000000  0.4700070000000 1.0
C      1  0.4333250000000  0.4568320000000  0.4772530000000 1.0
C      1  0.5623080000000  0.5531570000000  0.5244930000000 1.0
C      1  0.4221710000000  0.5654060000000  0.5587980000000 1.0
C      1  0.5233940000000  0.5701380000000  0.5468130000000 1.0
C      1  0.4569030000000  0.4697470000000  0.5522530000000 1.0
C      1  0.4733290000000  0.5824480000000  0.4206120000000 1.0
C      1  0.5568580000000  0.3893850000000  0.5222350000000 1.0
C      1  0.5905750000000  0.5688280000000  0.5653740000000 1.0
C      1  0.5267070000000  0.6352060000000  0.4856460000000 1.0
C      1  0.4465020000000  0.3953650000000  0.5441480000000 1.0
C      1  0.4294470000000  0.3637370000000  0.6587900000000 1.0
C      1  0.4517730000000  0.4927110000000  0.5710440000000 1.0
C      1  0.4512200000000  0.5678980000000  0.5227860000000 1.0
C      1  0.4033580000000  0.5437930000000  0.4858520000000 1.0
C      1  0.5207170000000  0.4996920000000  0.6145470000000 1.0
C      1  0.5345220000000  0.4631440000000  0.5521460000000 1.0
C      1  0.4488820000000  0.4740460000000  0.5241540000000 1.0
C      1  0.6027700000000  0.4761060000000  0.4506510000000 1.0
C      1  0.5859650000000  0.4771670000000  0.4250740000000 1.0
C      1  0.5143360000000  0.4769190000000  0.4412150000000 1.0
C      1  0.4455330000000  0.5732390000000  0.4235630000000 1.0
C      1  0.4315690000000  0.4758550000000  0.5018930000000 1.0
C      1  0.4850060000000  0.4591110000000  0.5565820000000 1.0
C      1  0.5536290000000  0.5685040000000  0.5001880000000 1.0
C      1  0.5334040000000  0.5885950000000  0.4939350000000 1.0
C      1  0.4590530000000  0.4096170000000  0.3939840000000 1.0
C      1  0.4360020000000  0.6027380000000  0.4593680000000 1.0
C      1  0.5066230000000  0.5025990000000  0.4481990000000 1.0
C      1  0.5886380000000  0.6069370000000  0.4932710000000 1.0
C      1  0.3989200000000  0.4690450000000  0.5475620000000 1.0
C      1  0.5082950000000  0.4739540000000  0.6159480000000 1.0
C      1  0.5270800000000  0.6430880000000  0.5114520000000 1.0
C      1  0.5444870000000  0.5513400000000  0.5473820000000 1.0
C      1  0.5280720000000  0.4637070000000  0.3764520000000 1.0
C      1  0.4550610000000  0.6026360000000  0.5591500000000 1.0
C      1  0.5678340000000  0.4355790000000  0.4833320000000 1.0
C      1  0.3988470000000  0.5394160000000  0.4359320000000 1.0
C      1  0.5410280000000  0.4977630000000  0.5954270000000 1.0
C      1  0.4640930000000  0.6104090000000  0.4609190000000 1.0
C      1  0.5143530000000  0.5365800000000  0.5103320000000 1.0
C      1  0.4074770000000  0.3977670000000  0.4420560000000 1.0
C      1  0.5288570000000  0.4082050000000  0.4534330000000 1.0
C      1  0.4333570000000  0.4082410000000  0.5223130000000 1.0
C      1  0.5199910000000  0.4623800000000  0.4858650000000 1.0
C      1  0.5937760000000  0.4946100000000  0.5795230000000 1.0
C      1  0.4863870000000  0.4451550000000  0.5818210000000 1.0
C      1  0.5691450000000  0.4333820000000  0.4052860000000 1.0
C      1  0.4488790000000  0.4086700000000  0.4977800000000 1.0
C      1  0.4912700000000  0.5390190000000  0.6123700000000 1.0
C      1  0.5838370000000  0.4517990000000  0.5413190000000 1.0
C      1  0.4554300000000  0.5057580000000  0.5940630000000 1.0
C      1  0.4293380000000  0.5615630000000  0.4035530000000 1.0
C      1  0.4527090000000  0.4354530000000  0.4869460000000 1.0
C      1  0.5420260000000  0.4300000000000  0.4097820000000 1.0
C      1  0.5310090000000  0.3798610000000  0.5303330000000 1.0
C      1  0.4483560000000  0.5088220000000  0.4000430000000 1.0
C      1  0.5102270000000  0.3685490000000  0.5137460000000 1.0
C      1  0.4811530000000  0.4451350000000  0.4202280000000 1.0
C      1  0.5032420000000  0.5209410000000  0.5517590000000 1.0
C      1  0.5797940000000  0.5305040000000  0.5162950000000 1.0
C      1  0.4703950000000  0.5581010000000  0.5737980000000 1.0
C      1  0.5161000000000  0.5121750000000  0.3657830000000 1.0
C      1  0.3881210000000  0.5132200000000  0.4388260000000 1.0
C      1  0.4061180000000  0.4198860000000  0.4557340000000 1.0
C      1  0.4789280000000  0.4450650000000  0.4894620000000 1.0
C      1  0.4958350000000  0.5216510000000  0.4954940000000 1.0
C      1  0.4067710000000  0.5479630000000  0.4099520000000 1.0
C      1  0.4127030000000  0.4276780000000  0.5257690000000 1.0
C      1  0.5264510000000  0.4863100000000  0.3624850000000 1.0
C      1  0.4180800000000  0.6131240000000  0.4783490000000 1.0
C      1  0.5252950000000  0.4514890000000  0.4012970000000 1.0
C      1  0.4626780000000  0.6193010000000  0.5391710000000 1.0
C      1  0.4943920000000  0.3885780000000  0.5631930000000 1.0
C      1  0.4303710000000  0.5767890000000  0.4485810000000 1.0
C      1  0.5061690000000  0.5299200000000  0.4432740000000 1.0
C      1  0.6080290000000  0.4651550000000  0.5454190000000 1.0
C      1  0.4433510000000  0.4001070000000  0.6234610000000 1.0
C      1  0.5684670000000  0.4641420000000  0.4869780000000 1.0
C      1  0.5320930000000  0.4702310000000  0.4617140000000 1.0
C      1  0.5297530000000  0.5469710000000  0.4480800000000 1.0
C      1  0.4679620000000  0.6237950000000  0.5129250000000 1.0
C      1  0.5621970000000  0.5896060000000  0.4472690000000 1.0
C      1  0.4097000000000  0.5559990000000  0.4583520000000 1.0
C      1  0.4807230000000  0.4187260000000  0.4088910000000 1.0
C      1  0.4930190000000  0.4956640000000  0.5071700000000 1.0
C      1  0.5746950000000  0.4231530000000  0.5744630000000 1.0
C      1  0.5620510000000  0.5088580000000  0.5050520000000 1.0
C      1  0.5322760000000  0.5274410000000  0.5587350000000 1.0
C      1  0.6227830000000  0.5789580000000  0.5064450000000 1.0
C      1  0.4849800000000  0.5849320000000  0.4909080000000 1.0
C      1  0.4759850000000  0.5349080000000  0.4814350000000 1.0
C      1  0.5360130000000  0.5193930000000  0.5138000000000 1.0
C      1  0.5627660000000  0.5537760000000  0.6054830000000 1.0
C      1  0.5848390000000  0.5927780000000  0.4671440000000 1.0
C      1  0.5218510000000  0.5252940000000  0.3910220000000 1.0
C      1  0.4785020000000  0.5388590000000  0.5533260000000 1.0
C      1  0.5363560000000  0.4525070000000  0.5798600000000 1.0
C      1  0.5503530000000  0.5125440000000  0.5742660000000 1.0
C      1  0.4077060000000  0.4929490000000  0.5045950000000 1.0
C      1  0.5081610000000  0.5823450000000  0.5051570000000 1.0
C      1  0.3752630000000  0.4582620000000  0.5080650000000 1.0
C      1  0.4598900000000  0.5138440000000  0.4256320000000 1.0
C      1  0.3639230000000  0.4653010000000  0.4830130000000 1.0
C      1  0.4054350000000  0.4440950000000  0.4727680000000 1.0
C      1  0.4088180000000  0.5146300000000  0.4854290000000 1.0
C      1  0.6292600000000  0.5079830000000  0.5468030000000 1.0
C      1  0.4499040000000  0.5113620000000  0.3735440000000 1.0
C      1  0.5137380000000  0.5972820000000  0.4501390000000 1.0
C      1  0.4597960000000  0.5423460000000  0.5316440000000 1.0
C      1  0.6090520000000  0.4354290000000  0.4323520000000 1.0
C      1  0.5667790000000  0.4970650000000  0.4142980000000 1.0
C      1  0.6134120000000  0.4888880000000  0.5595470000000 1.0
C      1  0.5572790000000  0.4814360000000  0.4662590000000 1.0
C      1  0.3999730000000  0.5541470000000  0.5125990000000 1.0
C      1  0.5782440000000  0.5190950000000  0.5767370000000 1.0
C      1  0.4504710000000  0.4181450000000  0.6054250000000 1.0
C      1  0.4480180000000  0.5759380000000  0.5673730000000 1.0
C      1  0.4847160000000  0.5992540000000  0.4419550000000 1.0
C      1  0.4457030000000  0.4997420000000  0.4480550000000 1.0
C      1  0.5461290000000  0.5137120000000  0.4050380000000 1.0
C      1  0.5787550000000  0.4083870000000  0.5219770000000 1.0
C      1  0.4585310000000  0.4353550000000  0.5851470000000 1.0
C      1  0.3961440000000  0.4370940000000  0.5033990000000 1.0
C      1  0.5660140000000  0.5545040000000  0.4778990000000 1.0
C      1  0.4487670000000  0.5220640000000  0.5162860000000 1.0
C      1  0.5036260000000  0.4026320000000  0.4130680000000 1.0
C      1  0.5166680000000  0.5281350000000  0.6197810000000 1.0
C      1  0.5107430000000  0.4529190000000  0.5959060000000 1.0
C      1  0.3780580000000  0.5467990000000  0.5547360000000 1.0
C      1  0.6020290000000  0.5957620000000  0.5178260000000 1.0
C      1  0.4670040000000  0.5172390000000  0.3538670000000 1.0
C      1  0.4149290000000  0.4449220000000  0.5496960000000 1.0
C      1  0.4982140000000  0.4246160000000  0.4847760000000 1.0
C      1  0.4692690000000  0.5211100000000  0.6110960000000 1.0
C      1  0.6122230000000  0.4320540000000  0.4822520000000 1.0
C      1  0.4935080000000  0.5195330000000  0.3508260000000 1.0
C      1  0.5403670000000  0.5448960000000  0.6184310000000 1.0
C      1  0.4389100000000  0.4018650000000  0.3793800000000 1.0
C      1  0.5444350000000  0.4225940000000  0.4742370000000 1.0
C      1  0.5584240000000  0.5090400000000  0.4739120000000 1.0
C      1  0.3841520000000  0.4649070000000  0.4621850000000 1.0
C      1  0.5516950000000  0.5349300000000  0.4636650000000 1.0
C      1  0.4332480000000  0.5865910000000  0.5161640000000 1.0
C      1  0.5082410000000  0.3622970000000  0.4857370000000 1.0
C      1  0.5942660000000  0.5869670000000  0.5446930000000 1.0
C      1  0.4006900000000  0.5557850000000  0.5416770000000 1.0
C      1  0.5815080000000  0.4238720000000  0.5463260000000 1.0
C      1  0.6127050000000  0.4485400000000  0.4580780000000 1.0
C      1  0.4683780000000  0.3867210000000  0.4945540000000 1.0
C      1  0.5896320000000  0.4490240000000  0.4156690000000 1.0
C      1  0.5078230000000  0.4718130000000  0.5460850000000 1.0
C      1  0.5888630000000  0.4214370000000  0.4968260000000 1.0
C      1  0.4889650000000  0.3804450000000  0.4735730000000 1.0
C      1  0.5229940000000  0.6172730000000  0.5566340000000 1.0
C      1  0.5264200000000  0.6094160000000  0.4743320000000 1.0
C      1  0.4768520000000  0.5622000000000  0.4767750000000 1.0
C      1  0.5808840000000  0.5477380000000  0.5834340000000 1.0
C      1  0.6268570000000  0.5224860000000  0.5244980000000 1.0
C      1  0.5207420000000  0.3865690000000  0.5563010000000 1.0
C      1  0.3862460000000  0.4870240000000  0.4448850000000 1.0
C      1  0.5813160000000  0.4705060000000  0.5913930000000 1.0
C      1  0.5344440000000  0.5768480000000  0.4430370000000 1.0
C      1  0.5285580000000  0.4099710000000  0.4249210000000 1.0
C      1  0.5057910000000  0.4598470000000  0.4203910000000 1.0
C      1  0.4175990000000  0.6044510000000  0.5037850000000 1.0
C      1  0.4933710000000  0.4705740000000  0.4937790000000 1.0
C      1  0.5009750000000  0.4966650000000  0.5351210000000 1.0
C      1  0.5260150000000  0.6353820000000  0.5371240000000 1.0
C      1  0.4363370000000  0.3817770000000  0.6412760000000 1.0
C      1  0.4889020000000  0.5618890000000  0.5951610000000 1.0
C      1  0.6070240000000  0.5342990000000  0.5087610000000 1.0
C      1  0.5017740000000  0.4040640000000  0.4652220000000 1.0
C      1  0.3890120000000  0.4792790000000  0.5225220000000 1.0
C      1  0.5591940000000  0.4660160000000  0.5357170000000 1.0
C      1  0.4448440000000  0.4708810000000  0.4515770000000 1.0
C      1  0.5639440000000  0.4471230000000  0.5872970000000 1.0
C      1  0.4520070000000  0.5235270000000  0.4883780000000 1.0
C      1  0.5921630000000  0.5645050000000  0.4728320000000 1.0
C      1  0.4730190000000  0.3856490000000  0.5448380000000 1.0
C      1  0.5187730000000  0.5908590000000  0.5653140000000 1.0
C      1  0.4584960000000  0.4551720000000  0.4329090000000 1.0
C      1  0.5073850000000  0.5827180000000  0.5900300000000 1.0
C      1  0.5098100000000  0.5619460000000  0.5231720000000 1.0
C      1  0.5644310000000  0.4796130000000  0.5112820000000 1.0
C      1  0.4903250000000  0.5697900000000  0.4008900000000 1.0
C      1  0.4990630000000  0.5423690000000  0.4008850000000 1.0
C      1  0.4400430000000  0.4465690000000  0.5645900000000 1.0
END
