TITL C-627107-135-444 -1.01878810365939e-07 125000 -245.944334254527 0 0 42 (C1) n - 1
REM
REM in /home/nfs/bkarasulu/CARBON/AIRSS/Generating-Clusters/LCBOP/Only-C1/SD-CG/FIRE-CG
REM
REM
REM
REM
REM
REM ./C.cell (11c1c37f851c82e70ff6c80c92926a4b)
REM AIRSS Version 0.9.1 bugfix July 2018 build 013d7b7c2542+ Fri, 06 Jul 2018 19:26:36 +0100
REM compiler GCC version 9.2.1 20190827 (Red Hat 9.2.1-1)
REM options -cpp -mtune=generic -march=x86-64 -g -O0 -fpre-include=/usr/include/finclude/math-vector-fortran.h
REM seed -938314508 -732715811 -1540820495 -576879815 1377260005 465721675 -397456305 -683975529 -1976592423 -2057281415 -374955237 -1388153754 -769076571 -1107498310 942497648 1937267203 -2104738600 1054786903 -399237744 417159193 -811245602 -150293945 844330645 -1135080514 776529841 -1146645535 1209441582 1082744110 -1119965615 -1812171683 796791974 -1388272184 -1613317155
REM
CELL 1.54180   50.00000   50.00000   50.00000   90.00000   90.00000   90.00000
LATT -1
SFAC C  
C      1  0.4472140000000  0.4956890000000  0.5315630000000 1.0
C      1  0.4498760000000  0.5184240000000  0.4530310000000 1.0
C      1  0.4464660000000  0.5387050000000  0.4728530000000 1.0
C      1  0.5246320000000  0.5577400000000  0.5236860000000 1.0
C      1  0.5093100000000  0.4758180000000  0.5229620000000 1.0
C      1  0.5311280000000  0.4576240000000  0.5191840000000 1.0
C      1  0.4711340000000  0.4847200000000  0.5440200000000 1.0
C      1  0.4607520000000  0.5542090000000  0.5270540000000 1.0
C      1  0.4775060000000  0.5017840000000  0.4858020000000 1.0
C      1  0.4916230000000  0.5022660000000  0.5595130000000 1.0
C      1  0.3940180000000  0.4712820000000  0.4885530000000 1.0
C      1  0.4843830000000  0.4632940000000  0.5284360000000 1.0
C      1  0.4717210000000  0.5012510000000  0.4582770000000 1.0
C      1  0.5934900000000  0.4790010000000  0.4854600000000 1.0
C      1  0.4892230000000  0.4382180000000  0.5133650000000 1.0
C      1  0.4806460000000  0.5343960000000  0.5255090000000 1.0
C      1  0.5299900000000  0.4400730000000  0.4764150000000 1.0
C      1  0.4915730000000  0.5156780000000  0.5056100000000 1.0
C      1  0.4981260000000  0.5578190000000  0.4757760000000 1.0
C      1  0.5102780000000  0.5215910000000  0.4399680000000 1.0
C      1  0.5110630000000  0.5446080000000  0.4540870000000 1.0
C      1  0.5754130000000  0.4275380000000  0.4632760000000 1.0
C      1  0.5176080000000  0.4372170000000  0.5023530000000 1.0
C      1  0.4950870000000  0.4977310000000  0.4423170000000 1.0
C      1  0.4691980000000  0.5570240000000  0.4746650000000 1.0
C      1  0.5153300000000  0.5016080000000  0.5127110000000 1.0
C      1  0.5693930000000  0.4667850000000  0.4921620000000 1.0
C      1  0.5587180000000  0.4445450000000  0.4768320000000 1.0
C      1  0.6159330000000  0.4906300000000  0.4791180000000 1.0
C      1  0.4305620000000  0.5050760000000  0.5096140000000 1.0
C      1  0.4327780000000  0.5317760000000  0.4977470000000 1.0
C      1  0.5203820000000  0.4968130000000  0.5654480000000 1.0
C      1  0.5157800000000  0.4507180000000  0.4545370000000 1.0
C      1  0.5536810000000  0.4756680000000  0.5141260000000 1.0
C      1  0.5223710000000  0.5395160000000  0.5459630000000 1.0
C      1  0.5387600000000  0.5144280000000  0.5487290000000 1.0
C      1  0.4112300000000  0.4876220000000  0.4993160000000 1.0
C      1  0.5437460000000  0.5030970000000  0.5221460000000 1.0
C      1  0.5136030000000  0.5636570000000  0.4993720000000 1.0
C      1  0.4942760000000  0.5302230000000  0.5500500000000 1.0
C      1  0.5061550000000  0.4719210000000  0.4413330000000 1.0
C      1  0.4358440000000  0.5522170000000  0.5170600000000 1.0
END
