TITL C-627107-135-638 0.00163822433182576 125000 -764.767154068021 0 0 126 (C1) n - 1
REM
REM in /home/nfs/bkarasulu/CARBON/AIRSS/Generating-Clusters/LCBOP/Only-C1/SD-CG/FIRE-CG
REM
REM
REM
REM
REM
REM ./C.cell (11c1c37f851c82e70ff6c80c92926a4b)
REM AIRSS Version 0.9.1 bugfix July 2018 build 013d7b7c2542+ Fri, 06 Jul 2018 19:26:36 +0100
REM compiler GCC version 9.2.1 20190827 (Red Hat 9.2.1-1)
REM options -cpp -mtune=generic -march=x86-64 -g -O0 -fpre-include=/usr/include/finclude/math-vector-fortran.h
REM seed 1332409115 1305599759 -151129063 951878256 -1804151488 -1592467124 -1651250789 834218703 821971204 -1430622000 -1575370300 -2094360054 -1624609981 65893718 1378177019 -681531749 -65475093 1156609940 703430580 -1951573122 639238021 -285739144 -1956494711 539671150 560395873 1352117724 -408922402 1736310665 -1504869592 -2091393466 1266009999 694921835 102375095
REM
CELL 1.54180   50.00000   50.00000   50.00000   90.00000   90.00000   90.00000
LATT -1
SFAC C  
C      1  0.3975110000000  0.5417930000000  0.4903950000000 1.0
C      1  0.5194940000000  0.4490780000000  0.5604050000000 1.0
C      1  0.5820410000000  0.4862850000000  0.5026420000000 1.0
C      1  0.4477060000000  0.4793080000000  0.5863990000000 1.0
C      1  0.4456940000000  0.4349710000000  0.4372330000000 1.0
C      1  0.5536070000000  0.5413630000000  0.4206560000000 1.0
C      1  0.4043330000000  0.5552180000000  0.4681590000000 1.0
C      1  0.4912900000000  0.5102690000000  0.6059710000000 1.0
C      1  0.4318840000000  0.4138500000000  0.4893160000000 1.0
C      1  0.5834690000000  0.5177800000000  0.4582330000000 1.0
C      1  0.4310790000000  0.5022980000000  0.5796450000000 1.0
C      1  0.5930270000000  0.4246700000000  0.5446430000000 1.0
C      1  0.5726780000000  0.4580220000000  0.5099920000000 1.0
C      1  0.5343220000000  0.4269890000000  0.5701140000000 1.0
C      1  0.4305290000000  0.3905190000000  0.5022190000000 1.0
C      1  0.5207590000000  0.6226280000000  0.4530570000000 1.0
C      1  0.4957320000000  0.6003580000000  0.4880150000000 1.0
C      1  0.4430050000000  0.5289530000000  0.4570670000000 1.0
C      1  0.4709130000000  0.4253680000000  0.4414460000000 1.0
C      1  0.6181750000000  0.5723630000000  0.4268840000000 1.0
C      1  0.5323310000000  0.4958010000000  0.4328960000000 1.0
C      1  0.5316900000000  0.4640200000000  0.5360140000000 1.0
C      1  0.5158750000000  0.5200610000000  0.4352920000000 1.0
C      1  0.5725570000000  0.5132070000000  0.5453360000000 1.0
C      1  0.5264600000000  0.4988090000000  0.4790490000000 1.0
C      1  0.5774910000000  0.5372430000000  0.4371420000000 1.0
C      1  0.4883050000000  0.4667400000000  0.4823510000000 1.0
C      1  0.4944900000000  0.4416360000000  0.4440340000000 1.0
C      1  0.5257650000000  0.5362730000000  0.4133570000000 1.0
C      1  0.5101700000000  0.5239050000000  0.3907910000000 1.0
C      1  0.5032820000000  0.6150140000000  0.5112280000000 1.0
C      1  0.5915950000000  0.4485590000000  0.5305350000000 1.0
C      1  0.4968260000000  0.6135410000000  0.4627570000000 1.0
C      1  0.5898750000000  0.4962990000000  0.5299620000000 1.0
C      1  0.4309670000000  0.5244760000000  0.5973830000000 1.0
C      1  0.5018600000000  0.4756760000000  0.3798460000000 1.0
C      1  0.6375310000000  0.5891480000000  0.4220630000000 1.0
C      1  0.4454210000000  0.4405750000000  0.5601340000000 1.0
C      1  0.5566310000000  0.4127960000000  0.5731000000000 1.0
C      1  0.4533640000000  0.5407890000000  0.6033770000000 1.0
C      1  0.4737980000000  0.5271810000000  0.6174440000000 1.0
C      1  0.4988620000000  0.4927980000000  0.4863740000000 1.0
C      1  0.4379160000000  0.5449840000000  0.4046070000000 1.0
C      1  0.5288820000000  0.4427420000000  0.4889290000000 1.0
C      1  0.5699810000000  0.4924510000000  0.5911650000000 1.0
C      1  0.4622950000000  0.5608350000000  0.5854930000000 1.0
C      1  0.4215780000000  0.5726360000000  0.5390830000000 1.0
C      1  0.5087360000000  0.5636870000000  0.5717770000000 1.0
C      1  0.4313670000000  0.4579580000000  0.4378330000000 1.0
C      1  0.4924430000000  0.4529810000000  0.5738360000000 1.0
C      1  0.4251860000000  0.5504040000000  0.4501350000000 1.0
C      1  0.4445210000000  0.4960380000000  0.4099800000000 1.0
C      1  0.4671230000000  0.6487620000000  0.5328910000000 1.0
C      1  0.5010400000000  0.5076860000000  0.5794420000000 1.0
C      1  0.5357880000000  0.5400560000000  0.5394180000000 1.0
C      1  0.4085260000000  0.5197790000000  0.5045960000000 1.0
C      1  0.4627770000000  0.4566970000000  0.5761620000000 1.0
C      1  0.4262940000000  0.4440580000000  0.5415500000000 1.0
C      1  0.5744140000000  0.4512660000000  0.4493620000000 1.0
C      1  0.5841990000000  0.4171470000000  0.5703080000000 1.0
C      1  0.4903230000000  0.4647060000000  0.4265180000000 1.0
C      1  0.5606180000000  0.5342880000000  0.5016380000000 1.0
C      1  0.6116570000000  0.3816050000000  0.4815080000000 1.0
C      1  0.4301730000000  0.5626530000000  0.4250850000000 1.0
C      1  0.4622470000000  0.4571890000000  0.4860980000000 1.0
C      1  0.5567360000000  0.5064130000000  0.5705370000000 1.0
C      1  0.4893920000000  0.5156940000000  0.4437650000000 1.0
C      1  0.4878760000000  0.5731730000000  0.4900670000000 1.0
C      1  0.5187550000000  0.5201580000000  0.5277580000000 1.0
C      1  0.5851890000000  0.4747720000000  0.6039240000000 1.0
C      1  0.4812170000000  0.5265730000000  0.3910300000000 1.0
C      1  0.5985040000000  0.5553070000000  0.4317860000000 1.0
C      1  0.4068210000000  0.5503590000000  0.5417970000000 1.0
C      1  0.5284140000000  0.5448900000000  0.5660780000000 1.0
C      1  0.4814870000000  0.5664230000000  0.5653120000000 1.0
C      1  0.4878430000000  0.5589610000000  0.5150270000000 1.0
C      1  0.4145070000000  0.4568910000000  0.5212040000000 1.0
C      1  0.4908810000000  0.4029940000000  0.5278060000000 1.0
C      1  0.5978670000000  0.4272870000000  0.5927200000000 1.0
C      1  0.4361680000000  0.5898960000000  0.4243090000000 1.0
C      1  0.4523750000000  0.6088900000000  0.4334950000000 1.0
C      1  0.4131590000000  0.4726430000000  0.4995080000000 1.0
C      1  0.5200520000000  0.4964920000000  0.3859660000000 1.0
C      1  0.4734020000000  0.6166510000000  0.4477440000000 1.0
C      1  0.4173040000000  0.4978020000000  0.4872190000000 1.0
C      1  0.5186900000000  0.4902280000000  0.5322280000000 1.0
C      1  0.4542120000000  0.5222750000000  0.4009460000000 1.0
C      1  0.4733560000000  0.5690930000000  0.5378710000000 1.0
C      1  0.5281430000000  0.6116510000000  0.5221640000000 1.0
C      1  0.5389750000000  0.4846450000000  0.4573260000000 1.0
C      1  0.4560860000000  0.4744490000000  0.3947400000000 1.0
C      1  0.4448850000000  0.4369330000000  0.4865380000000 1.0
C      1  0.5650660000000  0.4744260000000  0.4601010000000 1.0
C      1  0.4305300000000  0.5029680000000  0.4605320000000 1.0
C      1  0.4807880000000  0.5578750000000  0.4674860000000 1.0
C      1  0.5291050000000  0.5175450000000  0.5762630000000 1.0
C      1  0.4829350000000  0.4656910000000  0.3984590000000 1.0
C      1  0.4594020000000  0.5074200000000  0.5137590000000 1.0
C      1  0.5616450000000  0.5351360000000  0.5299820000000 1.0
C      1  0.5640840000000  0.3809670000000  0.5038090000000 1.0
C      1  0.5414610000000  0.5217320000000  0.4870390000000 1.0
C      1  0.4326010000000  0.4865840000000  0.4359790000000 1.0
C      1  0.4462050000000  0.3783030000000  0.5201690000000 1.0
C      1  0.4123050000000  0.5235810000000  0.5337180000000 1.0
C      1  0.5443710000000  0.4525990000000  0.5118590000000 1.0
C      1  0.4849330000000  0.4304750000000  0.5266210000000 1.0
C      1  0.4571030000000  0.5093400000000  0.5420720000000 1.0
C      1  0.5403440000000  0.3851700000000  0.5148040000000 1.0
C      1  0.5879970000000  0.3804210000000  0.4923890000000 1.0
C      1  0.5168370000000  0.3936230000000  0.5236280000000 1.0
C      1  0.4828270000000  0.4886310000000  0.4399440000000 1.0
C      1  0.4977010000000  0.5321610000000  0.5130980000000 1.0
C      1  0.4850540000000  0.6329710000000  0.5224880000000 1.0
C      1  0.4919720000000  0.4822190000000  0.5390010000000 1.0
C      1  0.4829300000000  0.5122920000000  0.4997120000000 1.0
C      1  0.5968640000000  0.4508420000000  0.6054430000000 1.0
C      1  0.5387050000000  0.4887000000000  0.4062970000000 1.0
C      1  0.4828580000000  0.4570530000000  0.5299830000000 1.0
C      1  0.4712500000000  0.5341660000000  0.4555940000000 1.0
C      1  0.4471350000000  0.5788720000000  0.5342520000000 1.0
C      1  0.5065240000000  0.4471540000000  0.4709050000000 1.0
C      1  0.6025740000000  0.4730400000000  0.5414480000000 1.0
C      1  0.4700060000000  0.3844580000000  0.5306720000000 1.0
C      1  0.5812390000000  0.4934400000000  0.4743940000000 1.0
C      1  0.4812210000000  0.5015920000000  0.5571030000000 1.0
C      1  0.4306470000000  0.5097760000000  0.5517630000000 1.0
END
