TITL C-627112-676-307 -4223.35544080142 125000 -925.055277811448 0 0 154 (C1) n - 1
REM
REM in /home/nfs/bkarasulu/CARBON/AIRSS/Generating-Clusters/LCBOP/Only-C1/SD-CG/FIRE-CG
REM
REM
REM
REM
REM
REM ./C.cell (11c1c37f851c82e70ff6c80c92926a4b)
REM AIRSS Version 0.9.1 bugfix July 2018 build 013d7b7c2542+ Fri, 06 Jul 2018 19:26:36 +0100
REM compiler GCC version 9.2.1 20190827 (Red Hat 9.2.1-1)
REM options -cpp -mtune=generic -march=x86-64 -g -O0 -fpre-include=/usr/include/finclude/math-vector-fortran.h
REM seed 652771757 1974769323 -175392130 103224724 850398263 200192831 1077588122 129634264 1732369622 1838718254 -1012662881 595380016 -2120034185 568604315 -1341826571 472012236 1606017636 216425126 -447643713 576867494 1617171809 -439878672 -1462512409 -175950191 1147697917 -247644761 -924726389 1597176089 -477199657 472125322 -2013589106 1843013389 1640622554
REM
CELL 1.54180   50.00000   50.00000   50.00000   90.00000   90.00000   90.00000
LATT -1
SFAC C  
C      1  0.4979550000000  0.4599860000000  0.4741020000000 1.0
C      1  0.5179850000000  0.4497110000000  0.4274110000000 1.0
C      1  0.5400920000000  0.4774840000000  0.4640710000000 1.0
C      1  0.5409330000000  0.4614620000000  0.4884000000000 1.0
C      1  0.5776160000000  0.4256990000000  0.4621750000000 1.0
C      1  0.5640140000000  0.5820440000000  0.5513860000000 1.0
C      1  0.5428920000000  0.5063560000000  0.4632710000000 1.0
C      1  0.4528220000000  0.5076270000000  0.4459060000000 1.0
C      1  0.4931270000000  0.4946450000000  0.5061830000000 1.0
C      1  0.5581260000000  0.5200580000000  0.5837570000000 1.0
C      1  0.4281210000000  0.5034240000000  0.5238420000000 1.0
C      1  0.5867660000000  0.5587850000000  0.5304850000000 1.0
C      1  0.5603950000000  0.4592080000000  0.5891020000000 1.0
C      1  0.5155190000000  0.5614520000000  0.4533430000000 1.0
C      1  0.4499510000000  0.5702070000000  0.4537860000000 1.0
C      1  0.5861820000000  0.4572180000000  0.5005090000000 1.0
C      1  0.5439460000000  0.5869670000000  0.5306300000000 1.0
C      1  0.5137220000000  0.4851640000000  0.5241700000000 1.0
C      1  0.4522290000000  0.4804260000000  0.4869060000000 1.0
C      1  0.4998730000000  0.5074970000000  0.3859660000000 1.0
C      1  0.4728580000000  0.5209820000000  0.3904350000000 1.0
C      1  0.5317720000000  0.4020470000000  0.4716700000000 1.0
C      1  0.4793110000000  0.5886860000000  0.4627770000000 1.0
C      1  0.5546100000000  0.5075880000000  0.4097370000000 1.0
C      1  0.4849260000000  0.4562490000000  0.5993520000000 1.0
C      1  0.4070060000000  0.5466830000000  0.5634740000000 1.0
C      1  0.4483710000000  0.5747860000000  0.5384590000000 1.0
C      1  0.6208440000000  0.4322320000000  0.5349280000000 1.0
C      1  0.4276720000000  0.4311460000000  0.5369190000000 1.0
C      1  0.4464610000000  0.4770020000000  0.4019160000000 1.0
C      1  0.5157910000000  0.5144590000000  0.4581380000000 1.0
C      1  0.5619780000000  0.4987010000000  0.5169850000000 1.0
C      1  0.4472280000000  0.5393030000000  0.4930610000000 1.0
C      1  0.4581960000000  0.4666150000000  0.5342120000000 1.0
C      1  0.5271500000000  0.3710880000000  0.5839320000000 1.0
C      1  0.6097880000000  0.5461370000000  0.5158190000000 1.0
C      1  0.5279110000000  0.5237370000000  0.5458910000000 1.0
C      1  0.4744070000000  0.5076380000000  0.5245930000000 1.0
C      1  0.4092130000000  0.4929860000000  0.4653420000000 1.0
C      1  0.5964110000000  0.4934580000000  0.4548910000000 1.0
C      1  0.5792510000000  0.4480210000000  0.5698510000000 1.0
C      1  0.5822860000000  0.5042240000000  0.5380550000000 1.0
C      1  0.5611170000000  0.5566730000000  0.4192960000000 1.0
C      1  0.5147950000000  0.5874540000000  0.5682990000000 1.0
C      1  0.5712220000000  0.5290350000000  0.4213780000000 1.0
C      1  0.4947610000000  0.5429380000000  0.4916570000000 1.0
C      1  0.3688810000000  0.4431100000000  0.4139670000000 1.0
C      1  0.5024650000000  0.4800530000000  0.5509090000000 1.0
C      1  0.4756940000000  0.5399950000000  0.5562420000000 1.0
C      1  0.4364040000000  0.4782460000000  0.5870640000000 1.0
C      1  0.6092730000000  0.4731330000000  0.5075010000000 1.0
C      1  0.4484120000000  0.5258860000000  0.5201020000000 1.0
C      1  0.6036450000000  0.4144310000000  0.5467010000000 1.0
C      1  0.5109800000000  0.4447700000000  0.5946160000000 1.0
C      1  0.4885580000000  0.5380930000000  0.4286520000000 1.0
C      1  0.5733860000000  0.4803100000000  0.6034200000000 1.0
C      1  0.5666020000000  0.4825420000000  0.4168250000000 1.0
C      1  0.5837160000000  0.4451530000000  0.4426740000000 1.0
C      1  0.4949900000000  0.5957360000000  0.4893310000000 1.0
C      1  0.5562240000000  0.4073260000000  0.4615830000000 1.0
C      1  0.5647910000000  0.5239690000000  0.5007400000000 1.0
C      1  0.4419620000000  0.4794780000000  0.5133100000000 1.0
C      1  0.4711550000000  0.5358220000000  0.4794880000000 1.0
C      1  0.4551960000000  0.5476040000000  0.5395110000000 1.0
C      1  0.4876330000000  0.5842150000000  0.5804310000000 1.0
C      1  0.4152680000000  0.3798180000000  0.4752570000000 1.0
C      1  0.4562810000000  0.4395200000000  0.4394550000000 1.0
C      1  0.4111920000000  0.4465860000000  0.5564040000000 1.0
C      1  0.5417980000000  0.5604950000000  0.5202480000000 1.0
C      1  0.3954120000000  0.4170000000000  0.4510370000000 1.0
C      1  0.5151010000000  0.5472180000000  0.4274620000000 1.0
C      1  0.5317340000000  0.4628320000000  0.5862820000000 1.0
C      1  0.4133530000000  0.4071600000000  0.4700290000000 1.0
C      1  0.4963070000000  0.5847080000000  0.5169070000000 1.0
C      1  0.4980870000000  0.4823220000000  0.3723990000000 1.0
C      1  0.4126900000000  0.4950270000000  0.5465480000000 1.0
C      1  0.5927750000000  0.5215770000000  0.4433840000000 1.0
C      1  0.5211800000000  0.4853420000000  0.5723040000000 1.0
C      1  0.5135470000000  0.5402550000000  0.4713650000000 1.0
C      1  0.5840410000000  0.4729740000000  0.4378670000000 1.0
C      1  0.4981060000000  0.5556350000000  0.5161020000000 1.0
C      1  0.6069340000000  0.5377650000000  0.4638860000000 1.0
C      1  0.4748220000000  0.4864610000000  0.5463630000000 1.0
C      1  0.5239090000000  0.6001790000000  0.4832220000000 1.0
C      1  0.4202690000000  0.6079790000000  0.5584330000000 1.0
C      1  0.4269930000000  0.5316320000000  0.5782840000000 1.0
C      1  0.6156300000000  0.4606500000000  0.5344500000000 1.0
C      1  0.3974610000000  0.5665450000000  0.5452270000000 1.0
C      1  0.4588340000000  0.4644090000000  0.4252010000000 1.0
C      1  0.4204950000000  0.4546840000000  0.5818580000000 1.0
C      1  0.5001360000000  0.4936480000000  0.4433990000000 1.0
C      1  0.5297810000000  0.5151250000000  0.5751230000000 1.0
C      1  0.5710710000000  0.5698540000000  0.4424060000000 1.0
C      1  0.6124640000000  0.5274380000000  0.4916060000000 1.0
C      1  0.5876600000000  0.4325610000000  0.4875800000000 1.0
C      1  0.4668790000000  0.4151490000000  0.4268430000000 1.0
C      1  0.4369520000000  0.5216340000000  0.4232220000000 1.0
C      1  0.4724770000000  0.5292050000000  0.4523880000000 1.0
C      1  0.5460450000000  0.5847380000000  0.4795030000000 1.0
C      1  0.4178780000000  0.4354330000000  0.5090040000000 1.0
C      1  0.4184850000000  0.3544400000000  0.4802290000000 1.0
C      1  0.4682230000000  0.6030210000000  0.5712340000000 1.0
C      1  0.4463820000000  0.5504320000000  0.4235770000000 1.0
C      1  0.4331320000000  0.5605010000000  0.4787790000000 1.0
C      1  0.5451200000000  0.5826600000000  0.5750000000000 1.0
C      1  0.4303240000000  0.4256470000000  0.4842640000000 1.0
C      1  0.4627230000000  0.4718770000000  0.5967870000000 1.0
C      1  0.4255860000000  0.5022270000000  0.5730790000000 1.0
C      1  0.5653980000000  0.5472840000000  0.5162950000000 1.0
C      1  0.5146320000000  0.4682520000000  0.4496050000000 1.0
C      1  0.3813780000000  0.4296090000000  0.4324370000000 1.0
C      1  0.5127280000000  0.5275260000000  0.5956740000000 1.0
C      1  0.5352100000000  0.5021810000000  0.5285210000000 1.0
C      1  0.4728440000000  0.4867890000000  0.4370200000000 1.0
C      1  0.4370340000000  0.4935710000000  0.4667020000000 1.0
C      1  0.3981940000000  0.4571800000000  0.5135150000000 1.0
C      1  0.6100920000000  0.4961430000000  0.4874210000000 1.0
C      1  0.5028830000000  0.5867880000000  0.4440770000000 1.0
C      1  0.4808110000000  0.4782370000000  0.4866200000000 1.0
C      1  0.4485180000000  0.5479260000000  0.5909070000000 1.0
C      1  0.4712110000000  0.5457870000000  0.4073490000000 1.0
C      1  0.4822840000000  0.4127690000000  0.4714340000000 1.0
C      1  0.5200880000000  0.5459850000000  0.5311160000000 1.0
C      1  0.4944880000000  0.5437150000000  0.6060650000000 1.0
C      1  0.5276670000000  0.5111860000000  0.3972780000000 1.0
C      1  0.3977670000000  0.5645090000000  0.5167400000000 1.0
C      1  0.3978550000000  0.5931880000000  0.5552290000000 1.0
C      1  0.5334780000000  0.5644740000000  0.4128440000000 1.0
C      1  0.5806710000000  0.4205770000000  0.5624170000000 1.0
C      1  0.5796910000000  0.5022700000000  0.5864660000000 1.0
C      1  0.5174510000000  0.4175870000000  0.5917150000000 1.0
C      1  0.5196080000000  0.5909260000000  0.4192370000000 1.0
C      1  0.4463370000000  0.5982340000000  0.5543290000000 1.0
C      1  0.4752920000000  0.5608150000000  0.5944190000000 1.0
C      1  0.5600250000000  0.5630260000000  0.4673500000000 1.0
C      1  0.5052670000000  0.4573630000000  0.3792400000000 1.0
C      1  0.4547570000000  0.4392930000000  0.5392450000000 1.0
C      1  0.5097190000000  0.4167780000000  0.4818530000000 1.0
C      1  0.4096180000000  0.5681180000000  0.4925970000000 1.0
C      1  0.5618990000000  0.4705500000000  0.5049400000000 1.0
C      1  0.5170080000000  0.4437700000000  0.4891490000000 1.0
C      1  0.4810970000000  0.3997780000000  0.4449560000000 1.0
C      1  0.5989290000000  0.4668610000000  0.5581460000000 1.0
C      1  0.5157460000000  0.5940780000000  0.5381200000000 1.0
C      1  0.4561900000000  0.4304920000000  0.4698700000000 1.0
C      1  0.3996810000000  0.4690590000000  0.5407940000000 1.0
C      1  0.5346020000000  0.3973520000000  0.5819230000000 1.0
C      1  0.5577840000000  0.5282250000000  0.4745440000000 1.0
C      1  0.3828970000000  0.4954260000000  0.4635830000000 1.0
C      1  0.5141360000000  0.4451850000000  0.4013670000000 1.0
C      1  0.3569290000000  0.4974690000000  0.4626080000000 1.0
C      1  0.5920630000000  0.4941100000000  0.5619080000000 1.0
C      1  0.5593810000000  0.4040350000000  0.5700590000000 1.0
C      1  0.4475590000000  0.5059990000000  0.3987870000000 1.0
END
