TITL C-627112-676-2067 1.12121455625109 125000 -991.276783038025 0 0 165 (C1) n - 1
REM
REM in /home/nfs/bkarasulu/CARBON/AIRSS/Generating-Clusters/LCBOP/Only-C1/SD-CG/FIRE-CG
REM
REM
REM
REM
REM
REM ./C.cell (11c1c37f851c82e70ff6c80c92926a4b)
REM AIRSS Version 0.9.1 bugfix July 2018 build 013d7b7c2542+ Fri, 06 Jul 2018 19:26:36 +0100
REM compiler GCC version 9.2.1 20190827 (Red Hat 9.2.1-1)
REM options -cpp -mtune=generic -march=x86-64 -g -O0 -fpre-include=/usr/include/finclude/math-vector-fortran.h
REM seed 1196497457 898649108 -1989634693 -1308467276 -1951036898 -232637422 1714018187 1443977408 1767333764 786780597 -595595969 -1112005668 1289064662 1374728166 -1728823050 -490877056 -1078440405 -1307310140 487224576 -366452107 830776481 -291540703 -278258825 -900603098 432673083 -1202297667 -306663413 -779713634 58462033 -1646937973 130517254 -1143544049 -1027871960
REM
CELL 1.54180   50.00000   50.00000   50.00000   90.00000   90.00000   90.00000
LATT -1
SFAC C  
C      1  0.4176590000000  0.6311270000000  0.5032520000000 1.0
C      1  0.4768310000000  0.5845770000000  0.5506530000000 1.0
C      1  0.5356160000000  0.4100760000000  0.4566810000000 1.0
C      1  0.4033770000000  0.4685340000000  0.5104990000000 1.0
C      1  0.5484200000000  0.4891400000000  0.5984530000000 1.0
C      1  0.3878480000000  0.5230910000000  0.4877350000000 1.0
C      1  0.3948240000000  0.5147400000000  0.5124890000000 1.0
C      1  0.5519190000000  0.4770030000000  0.3904480000000 1.0
C      1  0.5407040000000  0.4837590000000  0.5707920000000 1.0
C      1  0.3955970000000  0.4235750000000  0.5373830000000 1.0
C      1  0.4655860000000  0.4336420000000  0.4799180000000 1.0
C      1  0.5194180000000  0.5195710000000  0.3949370000000 1.0
C      1  0.4809860000000  0.5064050000000  0.4712650000000 1.0
C      1  0.4615530000000  0.4150020000000  0.5322000000000 1.0
C      1  0.4474640000000  0.5381420000000  0.4957310000000 1.0
C      1  0.5786140000000  0.5613800000000  0.4307690000000 1.0
C      1  0.5124350000000  0.5336950000000  0.4855210000000 1.0
C      1  0.5116970000000  0.4472670000000  0.6052310000000 1.0
C      1  0.4698520000000  0.5271330000000  0.5105020000000 1.0
C      1  0.5189980000000  0.6099430000000  0.4384620000000 1.0
C      1  0.5607160000000  0.6164560000000  0.5104560000000 1.0
C      1  0.5377170000000  0.6133790000000  0.5276560000000 1.0
C      1  0.4889950000000  0.4839620000000  0.5445030000000 1.0
C      1  0.4369960000000  0.4036900000000  0.5247450000000 1.0
C      1  0.4595210000000  0.5235440000000  0.5782810000000 1.0
C      1  0.5529460000000  0.5390550000000  0.5609300000000 1.0
C      1  0.4710840000000  0.4419520000000  0.5271550000000 1.0
C      1  0.4964630000000  0.5684590000000  0.5427710000000 1.0
C      1  0.5588240000000  0.4713320000000  0.6162200000000 1.0
C      1  0.4213910000000  0.5640690000000  0.5330360000000 1.0
C      1  0.4428940000000  0.5316150000000  0.4676850000000 1.0
C      1  0.6008120000000  0.5205460000000  0.5603050000000 1.0
C      1  0.6186350000000  0.5031560000000  0.5496750000000 1.0
C      1  0.5852670000000  0.4838870000000  0.5037200000000 1.0
C      1  0.3994710000000  0.4209420000000  0.4746970000000 1.0
C      1  0.4187060000000  0.5917240000000  0.5287240000000 1.0
C      1  0.6194440000000  0.4582620000000  0.5251230000000 1.0
C      1  0.5946040000000  0.4613340000000  0.4497330000000 1.0
C      1  0.5244430000000  0.5902370000000  0.5753320000000 1.0
C      1  0.5609200000000  0.3910920000000  0.5507890000000 1.0
C      1  0.5726420000000  0.6150780000000  0.4857580000000 1.0
C      1  0.4673210000000  0.4655450000000  0.5455530000000 1.0
C      1  0.4286290000000  0.6039680000000  0.5025940000000 1.0
C      1  0.5097800000000  0.5702890000000  0.5872710000000 1.0
C      1  0.4923520000000  0.6012750000000  0.4393360000000 1.0
C      1  0.5813560000000  0.5877800000000  0.4420860000000 1.0
C      1  0.4266460000000  0.4956440000000  0.5497890000000 1.0
C      1  0.4526740000000  0.4052330000000  0.4235160000000 1.0
C      1  0.4605180000000  0.4513180000000  0.5015780000000 1.0
C      1  0.4551290000000  0.6232460000000  0.5785930000000 1.0
C      1  0.4354260000000  0.5216220000000  0.5621460000000 1.0
C      1  0.4863280000000  0.5196740000000  0.5887530000000 1.0
C      1  0.5820780000000  0.4326490000000  0.5656090000000 1.0
C      1  0.6020070000000  0.5179570000000  0.4588960000000 1.0
C      1  0.4507540000000  0.5549570000000  0.4533180000000 1.0
C      1  0.4357760000000  0.4840310000000  0.4777950000000 1.0
C      1  0.5686330000000  0.4866320000000  0.5273620000000 1.0
C      1  0.4457860000000  0.5942340000000  0.4823160000000 1.0
C      1  0.4927130000000  0.5058280000000  0.4002870000000 1.0
C      1  0.4702020000000  0.4154400000000  0.5820260000000 1.0
C      1  0.4816890000000  0.4084560000000  0.4272640000000 1.0
C      1  0.4839290000000  0.4450770000000  0.4616470000000 1.0
C      1  0.5199460000000  0.4762410000000  0.4726100000000 1.0
C      1  0.5137660000000  0.5675060000000  0.3927990000000 1.0
C      1  0.4139730000000  0.3997530000000  0.4826940000000 1.0
C      1  0.4839500000000  0.3975170000000  0.5336860000000 1.0
C      1  0.5125150000000  0.5484910000000  0.5313530000000 1.0
C      1  0.4523750000000  0.4780510000000  0.5004510000000 1.0
C      1  0.5505230000000  0.4289300000000  0.4991590000000 1.0
C      1  0.5387310000000  0.5002610000000  0.3844670000000 1.0
C      1  0.4924890000000  0.5326950000000  0.4651960000000 1.0
C      1  0.4425980000000  0.4578450000000  0.5829120000000 1.0
C      1  0.4452890000000  0.4010660000000  0.5849360000000 1.0
C      1  0.4605840000000  0.4886330000000  0.4349280000000 1.0
C      1  0.3924740000000  0.4463300000000  0.5237550000000 1.0
C      1  0.5959150000000  0.5411980000000  0.4423960000000 1.0
C      1  0.5351500000000  0.4318410000000  0.5602540000000 1.0
C      1  0.6026660000000  0.5220820000000  0.4881210000000 1.0
C      1  0.6227080000000  0.4873110000000  0.5263510000000 1.0
C      1  0.5816490000000  0.5410850000000  0.5649900000000 1.0
C      1  0.5104640000000  0.4476040000000  0.4742850000000 1.0
C      1  0.5839570000000  0.5396600000000  0.5021490000000 1.0
C      1  0.5425640000000  0.4923200000000  0.4854290000000 1.0
C      1  0.4995980000000  0.4775330000000  0.3996410000000 1.0
C      1  0.5589100000000  0.5504130000000  0.5119240000000 1.0
C      1  0.4231320000000  0.5466300000000  0.5552720000000 1.0
C      1  0.4379450000000  0.3975650000000  0.4969730000000 1.0
C      1  0.5387760000000  0.6011140000000  0.4561720000000 1.0
C      1  0.5258510000000  0.4340770000000  0.5867140000000 1.0
C      1  0.5235240000000  0.4463650000000  0.5385060000000 1.0
C      1  0.4892840000000  0.4006430000000  0.5629650000000 1.0
C      1  0.4230120000000  0.3980660000000  0.5700090000000 1.0
C      1  0.4638820000000  0.6037260000000  0.5636920000000 1.0
C      1  0.4424550000000  0.4724850000000  0.5585130000000 1.0
C      1  0.5141620000000  0.4673790000000  0.4199230000000 1.0
C      1  0.4000910000000  0.5272970000000  0.4362410000000 1.0
C      1  0.4898040000000  0.3945480000000  0.4969540000000 1.0
C      1  0.4985970000000  0.5350790000000  0.5106800000000 1.0
C      1  0.5654620000000  0.4697220000000  0.4143900000000 1.0
C      1  0.4339510000000  0.4260020000000  0.4243480000000 1.0
C      1  0.5710250000000  0.4481360000000  0.4349670000000 1.0
C      1  0.5106480000000  0.3957980000000  0.4670200000000 1.0
C      1  0.5693560000000  0.4015090000000  0.4234170000000 1.0
C      1  0.5768840000000  0.4314850000000  0.5059170000000 1.0
C      1  0.4939390000000  0.4904570000000  0.5904440000000 1.0
C      1  0.4184370000000  0.5271330000000  0.4165270000000 1.0
C      1  0.5058980000000  0.4335450000000  0.5205390000000 1.0
C      1  0.5362710000000  0.5206110000000  0.4774670000000 1.0
C      1  0.5695020000000  0.4821500000000  0.4802190000000 1.0
C      1  0.5327530000000  0.5812230000000  0.4753840000000 1.0
C      1  0.5300680000000  0.5465570000000  0.4008210000000 1.0
C      1  0.5911670000000  0.5652730000000  0.5741520000000 1.0
C      1  0.4873860000000  0.5833270000000  0.4613230000000 1.0
C      1  0.4522870000000  0.5029640000000  0.4606610000000 1.0
C      1  0.4078040000000  0.4931680000000  0.5260930000000 1.0
C      1  0.5753290000000  0.4945090000000  0.4262940000000 1.0
C      1  0.5219540000000  0.4781350000000  0.4432050000000 1.0
C      1  0.4607400000000  0.5005020000000  0.5153510000000 1.0
C      1  0.4720490000000  0.3679140000000  0.4449760000000 1.0
C      1  0.4682880000000  0.6078890000000  0.4258030000000 1.0
C      1  0.4490540000000  0.3776630000000  0.4325280000000 1.0
C      1  0.5215310000000  0.4327080000000  0.4960730000000 1.0
C      1  0.4188500000000  0.4434010000000  0.4383310000000 1.0
C      1  0.5669340000000  0.6056430000000  0.4590010000000 1.0
C      1  0.5102610000000  0.4865180000000  0.5659000000000 1.0
C      1  0.5466130000000  0.5165170000000  0.6039060000000 1.0
C      1  0.4160200000000  0.4054520000000  0.5436720000000 1.0
C      1  0.5363130000000  0.6033770000000  0.5545870000000 1.0
C      1  0.4033590000000  0.6354950000000  0.5266360000000 1.0
C      1  0.5125020000000  0.6175870000000  0.5152350000000 1.0
C      1  0.5464790000000  0.5682250000000  0.4940580000000 1.0
C      1  0.5361180000000  0.5331870000000  0.5838240000000 1.0
C      1  0.5964740000000  0.4912540000000  0.4459320000000 1.0
C      1  0.4070650000000  0.4460440000000  0.4640400000000 1.0
C      1  0.5596710000000  0.4172920000000  0.5580680000000 1.0
C      1  0.4390480000000  0.5817030000000  0.4562390000000 1.0
C      1  0.4747050000000  0.5959250000000  0.4842740000000 1.0
C      1  0.4669950000000  0.4444400000000  0.5907010000000 1.0
C      1  0.4119030000000  0.4681730000000  0.4819310000000 1.0
C      1  0.5578600000000  0.4214370000000  0.4395430000000 1.0
C      1  0.6011360000000  0.4401150000000  0.5152860000000 1.0
C      1  0.5082000000000  0.5411870000000  0.5874850000000 1.0
C      1  0.5436420000000  0.4896230000000  0.5151410000000 1.0
C      1  0.5005490000000  0.4839850000000  0.5181160000000 1.0
C      1  0.4723350000000  0.4627150000000  0.4415040000000 1.0
C      1  0.4930400000000  0.3881440000000  0.4456700000000 1.0
C      1  0.4659740000000  0.5070620000000  0.4125790000000 1.0
C      1  0.5832580000000  0.4595440000000  0.5652210000000 1.0
C      1  0.6095230000000  0.4988080000000  0.5034960000000 1.0
C      1  0.5559970000000  0.5546340000000  0.4126900000000 1.0
C      1  0.4966500000000  0.4890420000000  0.4885960000000 1.0
C      1  0.4799080000000  0.5563160000000  0.4556040000000 1.0
C      1  0.4429970000000  0.5224180000000  0.4062430000000 1.0
C      1  0.4902490000000  0.6106180000000  0.5022420000000 1.0
C      1  0.5460360000000  0.5273080000000  0.4522720000000 1.0
C      1  0.5652930000000  0.4787180000000  0.5546100000000 1.0
C      1  0.4275120000000  0.5510860000000  0.5093060000000 1.0
C      1  0.5416900000000  0.5447970000000  0.5350800000000 1.0
C      1  0.5257350000000  0.4719080000000  0.5249920000000 1.0
C      1  0.5570800000000  0.5145860000000  0.4318020000000 1.0
C      1  0.4037170000000  0.6125480000000  0.5421440000000 1.0
C      1  0.4882890000000  0.4624240000000  0.5999710000000 1.0
C      1  0.3897760000000  0.5261420000000  0.4610680000000 1.0
C      1  0.4435990000000  0.5989280000000  0.4336530000000 1.0
C      1  0.4639390000000  0.4055220000000  0.4863880000000 1.0
END
