TITL C-627113-6568-952 3.93971403379315e-07 125000 -1051.47982965123 0 0 172 (C1) n - 1
REM
REM in /home/nfs/bkarasulu/CARBON/AIRSS/Generating-Clusters/LCBOP/Only-C1/SD-CG/FIRE-CG
REM
REM
REM
REM
REM
REM ./C.cell (11c1c37f851c82e70ff6c80c92926a4b)
REM AIRSS Version 0.9.1 bugfix July 2018 build 013d7b7c2542+ Fri, 06 Jul 2018 19:26:36 +0100
REM compiler GCC version 9.2.1 20190827 (Red Hat 9.2.1-1)
REM options -cpp -mtune=generic -march=x86-64 -g -O0 -fpre-include=/usr/include/finclude/math-vector-fortran.h
REM seed 1233673531 -1986360229 138438585 -471956092 -282381174 255643534 -307357682 -1779076262 1600271775 -1177396226 2078553584 1554573405 -2101983896 -547444969 -171489278 -681640018 1062836524 346658667 -675535122 557280019 -1446548856 143312906 -1289662265 787408708 1303877982 276424449 1546710243 1036843282 -17444748 997466273 1637153548 1473749205 -1004898474
REM
CELL 1.54180   50.00000   50.00000   50.00000   90.00000   90.00000   90.00000
LATT -1
SFAC C  
C      1  0.5546730000000  0.3882920000000  0.5121380000000 1.0
C      1  0.4862340000000  0.5297460000000  0.5216730000000 1.0
C      1  0.4132610000000  0.6023900000000  0.4847740000000 1.0
C      1  0.5207870000000  0.5259060000000  0.4796120000000 1.0
C      1  0.5283880000000  0.4088490000000  0.5532360000000 1.0
C      1  0.6108040000000  0.5069880000000  0.5727030000000 1.0
C      1  0.4982830000000  0.4095120000000  0.4081930000000 1.0
C      1  0.4887460000000  0.4563400000000  0.3975080000000 1.0
C      1  0.4544970000000  0.5622170000000  0.5638920000000 1.0
C      1  0.5237610000000  0.5688150000000  0.5239020000000 1.0
C      1  0.4614850000000  0.3891150000000  0.5281000000000 1.0
C      1  0.4199260000000  0.4462150000000  0.4393610000000 1.0
C      1  0.5435320000000  0.4322380000000  0.5649720000000 1.0
C      1  0.4491600000000  0.4337290000000  0.5722970000000 1.0
C      1  0.5902790000000  0.5586230000000  0.4768790000000 1.0
C      1  0.5905130000000  0.5365090000000  0.4958880000000 1.0
C      1  0.5364790000000  0.5156520000000  0.5200490000000 1.0
C      1  0.4587170000000  0.5307730000000  0.5263840000000 1.0
C      1  0.4956390000000  0.4791270000000  0.6093080000000 1.0
C      1  0.5009260000000  0.5526240000000  0.5242450000000 1.0
C      1  0.4320430000000  0.3983960000000  0.4798230000000 1.0
C      1  0.5805820000000  0.4655950000000  0.4433620000000 1.0
C      1  0.6024350000000  0.4397140000000  0.4881850000000 1.0
C      1  0.5204060000000  0.5807540000000  0.5944880000000 1.0
C      1  0.4652790000000  0.5403010000000  0.4535010000000 1.0
C      1  0.4764290000000  0.5252400000000  0.6222850000000 1.0
C      1  0.4492960000000  0.5004490000000  0.4890870000000 1.0
C      1  0.4796970000000  0.3954360000000  0.5474840000000 1.0
C      1  0.4231910000000  0.5617380000000  0.5242570000000 1.0
C      1  0.4082750000000  0.4148900000000  0.4776020000000 1.0
C      1  0.5891480000000  0.5826640000000  0.4951540000000 1.0
C      1  0.4775750000000  0.5801210000000  0.5670600000000 1.0
C      1  0.4979920000000  0.4311260000000  0.5804090000000 1.0
C      1  0.4529660000000  0.4492350000000  0.4834190000000 1.0
C      1  0.4395030000000  0.4516690000000  0.4213180000000 1.0
C      1  0.5741240000000  0.4088830000000  0.5120110000000 1.0
C      1  0.3976950000000  0.5500610000000  0.5264420000000 1.0
C      1  0.5313760000000  0.5543460000000  0.3754860000000 1.0
C      1  0.4605190000000  0.5141120000000  0.3904340000000 1.0
C      1  0.4043180000000  0.4518330000000  0.5726560000000 1.0
C      1  0.5221890000000  0.4978250000000  0.3943110000000 1.0
C      1  0.5723780000000  0.5432450000000  0.5187220000000 1.0
C      1  0.5527510000000  0.3714200000000  0.4628780000000 1.0
C      1  0.6145230000000  0.4900660000000  0.4820890000000 1.0
C      1  0.5093420000000  0.4598620000000  0.4657870000000 1.0
C      1  0.6068950000000  0.5010000000000  0.5252030000000 1.0
C      1  0.4904930000000  0.5952050000000  0.5465410000000 1.0
C      1  0.5111990000000  0.5256040000000  0.5622030000000 1.0
C      1  0.4464150000000  0.5533270000000  0.5376680000000 1.0
C      1  0.5459200000000  0.5689560000000  0.5908660000000 1.0
C      1  0.4376120000000  0.5073950000000  0.4022880000000 1.0
C      1  0.5158960000000  0.5978520000000  0.5288800000000 1.0
C      1  0.4907050000000  0.4799030000000  0.4740750000000 1.0
C      1  0.4640120000000  0.5669670000000  0.4116030000000 1.0
C      1  0.3867300000000  0.5044940000000  0.4987010000000 1.0
C      1  0.5282060000000  0.5713270000000  0.4689940000000 1.0
C      1  0.4712700000000  0.4913660000000  0.5684560000000 1.0
C      1  0.4584040000000  0.4868440000000  0.5417830000000 1.0
C      1  0.4627410000000  0.4759820000000  0.4799150000000 1.0
C      1  0.3940830000000  0.4536760000000  0.5279670000000 1.0
C      1  0.5540950000000  0.4055320000000  0.4238870000000 1.0
C      1  0.4610740000000  0.5418320000000  0.6079890000000 1.0
C      1  0.4355770000000  0.5954730000000  0.4704010000000 1.0
C      1  0.5494700000000  0.4918690000000  0.4729880000000 1.0
C      1  0.5649520000000  0.5942610000000  0.5445220000000 1.0
C      1  0.4243290000000  0.5076320000000  0.4253620000000 1.0
C      1  0.5485290000000  0.4732800000000  0.5215640000000 1.0
C      1  0.5538410000000  0.3838480000000  0.4393410000000 1.0
C      1  0.3725060000000  0.4867210000000  0.5610760000000 1.0
C      1  0.4841800000000  0.5563270000000  0.3946730000000 1.0
C      1  0.5464960000000  0.5557480000000  0.5108960000000 1.0
C      1  0.5218330000000  0.5837060000000  0.4100030000000 1.0
C      1  0.4605200000000  0.6052900000000  0.4784170000000 1.0
C      1  0.4255480000000  0.4386120000000  0.5579640000000 1.0
C      1  0.4656930000000  0.4267710000000  0.4694200000000 1.0
C      1  0.5637740000000  0.4997860000000  0.5811340000000 1.0
C      1  0.4431040000000  0.5476160000000  0.5865980000000 1.0
C      1  0.3892670000000  0.5287940000000  0.5098410000000 1.0
C      1  0.4326690000000  0.5797170000000  0.4468420000000 1.0
C      1  0.5273340000000  0.4466430000000  0.4229390000000 1.0
C      1  0.4744940000000  0.4716120000000  0.5902220000000 1.0
C      1  0.5062110000000  0.5160390000000  0.4088630000000 1.0
C      1  0.4220930000000  0.5185480000000  0.4511420000000 1.0
C      1  0.3830040000000  0.4576900000000  0.4703420000000 1.0
C      1  0.3877230000000  0.5517600000000  0.5527220000000 1.0
C      1  0.5374260000000  0.3901490000000  0.5342860000000 1.0
C      1  0.5108810000000  0.5186610000000  0.4371670000000 1.0
C      1  0.5629510000000  0.5793650000000  0.5696170000000 1.0
C      1  0.4614730000000  0.4567190000000  0.4061600000000 1.0
C      1  0.5508200000000  0.5035640000000  0.3947780000000 1.0
C      1  0.6283310000000  0.4916130000000  0.4587150000000 1.0
C      1  0.5349540000000  0.5233010000000  0.5472070000000 1.0
C      1  0.5754880000000  0.4491460000000  0.4227120000000 1.0
C      1  0.5525400000000  0.5525760000000  0.3953480000000 1.0
C      1  0.5236570000000  0.4712130000000  0.6021920000000 1.0
C      1  0.4183350000000  0.5113310000000  0.6071270000000 1.0
C      1  0.6045150000000  0.5176750000000  0.5472960000000 1.0
C      1  0.5178100000000  0.4804020000000  0.5605540000000 1.0
C      1  0.5911070000000  0.4950730000000  0.5870830000000 1.0
C      1  0.5484130000000  0.5886000000000  0.4596180000000 1.0
C      1  0.5802210000000  0.5324990000000  0.5451440000000 1.0
C      1  0.5679240000000  0.4871310000000  0.3808450000000 1.0
C      1  0.4475610000000  0.4084690000000  0.4560290000000 1.0
C      1  0.4984620000000  0.5012640000000  0.5663170000000 1.0
C      1  0.4942520000000  0.5408390000000  0.4491560000000 1.0
C      1  0.5046750000000  0.4359520000000  0.4094180000000 1.0
C      1  0.4786240000000  0.4076830000000  0.4872710000000 1.0
C      1  0.4939640000000  0.5796240000000  0.5901320000000 1.0
C      1  0.5556890000000  0.4435880000000  0.4797070000000 1.0
C      1  0.3771040000000  0.5104780000000  0.5724540000000 1.0
C      1  0.5768110000000  0.4274990000000  0.4907100000000 1.0
C      1  0.4666200000000  0.4419390000000  0.5254670000000 1.0
C      1  0.5722520000000  0.4636980000000  0.5341110000000 1.0
C      1  0.6066180000000  0.5129590000000  0.4983480000000 1.0
C      1  0.5523840000000  0.4332770000000  0.4203120000000 1.0
C      1  0.5408090000000  0.5202010000000  0.6139860000000 1.0
C      1  0.5049330000000  0.5886220000000  0.4320880000000 1.0
C      1  0.5299420000000  0.4969380000000  0.4483790000000 1.0
C      1  0.4994910000000  0.4781530000000  0.5212580000000 1.0
C      1  0.5323050000000  0.5460230000000  0.3496760000000 1.0
C      1  0.5270200000000  0.4426620000000  0.4805480000000 1.0
C      1  0.5056980000000  0.4761300000000  0.3852200000000 1.0
C      1  0.5093650000000  0.5684440000000  0.3884750000000 1.0
C      1  0.4892950000000  0.5018470000000  0.6248810000000 1.0
C      1  0.5052570000000  0.6113570000000  0.5046020000000 1.0
C      1  0.6082120000000  0.4656630000000  0.4970330000000 1.0
C      1  0.5641160000000  0.5777010000000  0.4387200000000 1.0
C      1  0.5005850000000  0.4094460000000  0.5610790000000 1.0
C      1  0.5248050000000  0.4451520000000  0.5858850000000 1.0
C      1  0.4101530000000  0.5830410000000  0.4314270000000 1.0
C      1  0.5618130000000  0.5279500000000  0.4069320000000 1.0
C      1  0.5019250000000  0.5050950000000  0.4841540000000 1.0
C      1  0.5817580000000  0.4178150000000  0.5380220000000 1.0
C      1  0.4551360000000  0.3942190000000  0.5006270000000 1.0
C      1  0.5351440000000  0.5494620000000  0.4849850000000 1.0
C      1  0.4969980000000  0.5051790000000  0.5119730000000 1.0
C      1  0.4761290000000  0.4669550000000  0.5307370000000 1.0
C      1  0.4843560000000  0.5278880000000  0.3952670000000 1.0
C      1  0.5476920000000  0.4957200000000  0.5028230000000 1.0
C      1  0.4036830000000  0.4394130000000  0.4623180000000 1.0
C      1  0.4464980000000  0.5209030000000  0.4667570000000 1.0
C      1  0.5521970000000  0.3721320000000  0.4895390000000 1.0
C      1  0.5680430000000  0.4397250000000  0.5502060000000 1.0
C      1  0.4727740000000  0.4440290000000  0.5835580000000 1.0
C      1  0.3934050000000  0.5336370000000  0.5732950000000 1.0
C      1  0.5809950000000  0.5558020000000  0.4484590000000 1.0
C      1  0.4836010000000  0.6128510000000  0.4891610000000 1.0
C      1  0.3878540000000  0.4817740000000  0.4844370000000 1.0
C      1  0.5234090000000  0.4709470000000  0.5346190000000 1.0
C      1  0.4914390000000  0.6121730000000  0.4342340000000 1.0
C      1  0.4141520000000  0.4852080000000  0.6107060000000 1.0
C      1  0.4529020000000  0.5620480000000  0.4376170000000 1.0
C      1  0.5221420000000  0.4683690000000  0.4410230000000 1.0
C      1  0.4203260000000  0.4414190000000  0.5283680000000 1.0
C      1  0.5976270000000  0.4734860000000  0.5236080000000 1.0
C      1  0.5036690000000  0.3977130000000  0.4866770000000 1.0
C      1  0.5822050000000  0.5910390000000  0.5208280000000 1.0
C      1  0.3991930000000  0.5319430000000  0.4577130000000 1.0
C      1  0.4480420000000  0.5048490000000  0.5195600000000 1.0
C      1  0.5488860000000  0.5452200000000  0.6065600000000 1.0
C      1  0.4424540000000  0.4419530000000  0.5103680000000 1.0
C      1  0.3570570000000  0.4514290000000  0.4638050000000 1.0
C      1  0.5410870000000  0.6094750000000  0.5395380000000 1.0
C      1  0.3853590000000  0.4631380000000  0.5537700000000 1.0
C      1  0.5430650000000  0.4942940000000  0.6009370000000 1.0
C      1  0.5593180000000  0.5204230000000  0.5606530000000 1.0
C      1  0.5651970000000  0.4680920000000  0.4667420000000 1.0
C      1  0.5500250000000  0.5753280000000  0.4137570000000 1.0
C      1  0.4178390000000  0.5329830000000  0.5885690000000 1.0
C      1  0.5778120000000  0.5324690000000  0.4310670000000 1.0
C      1  0.4077840000000  0.4624500000000  0.5982480000000 1.0
C      1  0.5061430000000  0.5676880000000  0.4515950000000 1.0
END
