TITL C-627111-6168-920 -2.13445440967746e-07 125000 -993.278487665061 0 0 160 (C1) n - 1
REM
REM in /home/nfs/bkarasulu/CARBON/AIRSS/Generating-Clusters/LCBOP/Only-C1/SD-CG/FIRE-CG
REM
REM
REM
REM
REM
REM ./C.cell (11c1c37f851c82e70ff6c80c92926a4b)
REM AIRSS Version 0.9.1 bugfix July 2018 build 013d7b7c2542+ Fri, 06 Jul 2018 19:26:36 +0100
REM compiler GCC version 9.2.1 20190827 (Red Hat 9.2.1-1)
REM options -cpp -mtune=generic -march=x86-64 -g -O0 -fpre-include=/usr/include/finclude/math-vector-fortran.h
REM seed 374690209 -662452641 1269389414 72497347 -1555244794 1669943896 -1474267921 -34875516 -1029587192 742942453 -865930672 1451639277 -1165581874 -1713646067 -957382713 1209535803 -1335871834 1778686241 -492216461 1754722791 2083274419 293440108 2020791249 351708576 1641485411 1057037887 281609068 -460514894 1211142446 -932913550 1819980172 3225935 -1738707826
REM
CELL 1.54180   50.00000   50.00000   50.00000   90.00000   90.00000   90.00000
LATT -1
SFAC C  
C      1  0.5347300000000  0.5564430000000  0.4086240000000 1.0
C      1  0.5857390000000  0.4269200000000  0.5690460000000 1.0
C      1  0.5397230000000  0.4754430000000  0.5751030000000 1.0
C      1  0.5565510000000  0.4981270000000  0.5687310000000 1.0
C      1  0.5116130000000  0.6081900000000  0.4562170000000 1.0
C      1  0.5505190000000  0.4831020000000  0.4149580000000 1.0
C      1  0.5078550000000  0.5359900000000  0.4968490000000 1.0
C      1  0.4671440000000  0.4757950000000  0.6049880000000 1.0
C      1  0.4950980000000  0.5197500000000  0.5747950000000 1.0
C      1  0.4750400000000  0.5071310000000  0.3863390000000 1.0
C      1  0.5001380000000  0.6030590000000  0.5291660000000 1.0
C      1  0.4761570000000  0.5155140000000  0.4465840000000 1.0
C      1  0.3887480000000  0.4842490000000  0.5412540000000 1.0
C      1  0.6544660000000  0.4509570000000  0.5202750000000 1.0
C      1  0.4520980000000  0.4919210000000  0.3927250000000 1.0
C      1  0.4825210000000  0.5470890000000  0.5035410000000 1.0
C      1  0.4863880000000  0.6098070000000  0.4418300000000 1.0
C      1  0.4330040000000  0.5250320000000  0.4188500000000 1.0
C      1  0.4336700000000  0.4210790000000  0.5450500000000 1.0
C      1  0.4837430000000  0.4053800000000  0.4629190000000 1.0
C      1  0.4647850000000  0.5910460000000  0.4979570000000 1.0
C      1  0.4657400000000  0.5639150000000  0.4834300000000 1.0
C      1  0.4122630000000  0.5490090000000  0.5285630000000 1.0
C      1  0.5021980000000  0.4974410000000  0.3868290000000 1.0
C      1  0.5733960000000  0.5253910000000  0.4833580000000 1.0
C      1  0.5714330000000  0.4780570000000  0.4337470000000 1.0
C      1  0.4907840000000  0.6029580000000  0.5024330000000 1.0
C      1  0.4358030000000  0.4456800000000  0.4145150000000 1.0
C      1  0.5059640000000  0.4113160000000  0.5520040000000 1.0
C      1  0.5753020000000  0.4465960000000  0.5871770000000 1.0
C      1  0.5411040000000  0.4555650000000  0.5086930000000 1.0
C      1  0.4663300000000  0.4444870000000  0.5145890000000 1.0
C      1  0.4553750000000  0.5001170000000  0.6024150000000 1.0
C      1  0.4507310000000  0.5458710000000  0.4083970000000 1.0
C      1  0.5894240000000  0.5815630000000  0.5465430000000 1.0
C      1  0.4880070000000  0.4973260000000  0.5625510000000 1.0
C      1  0.6112990000000  0.5485660000000  0.5009840000000 1.0
C      1  0.3685390000000  0.5342800000000  0.5280790000000 1.0
C      1  0.4400350000000  0.5484280000000  0.4774130000000 1.0
C      1  0.5253060000000  0.4340490000000  0.5920140000000 1.0
C      1  0.5370920000000  0.5725680000000  0.5211600000000 1.0
C      1  0.4624100000000  0.5036430000000  0.4680460000000 1.0
C      1  0.5136870000000  0.5796210000000  0.5374430000000 1.0
C      1  0.5024180000000  0.5587700000000  0.4441180000000 1.0
C      1  0.5116950000000  0.5993650000000  0.4838920000000 1.0
C      1  0.4960780000000  0.4745490000000  0.5488080000000 1.0
C      1  0.6207600000000  0.5113560000000  0.5377350000000 1.0
C      1  0.5903600000000  0.5497970000000  0.4821930000000 1.0
C      1  0.4918650000000  0.5541090000000  0.3831850000000 1.0
C      1  0.5754210000000  0.5576000000000  0.5489200000000 1.0
C      1  0.5472960000000  0.4520250000000  0.5891260000000 1.0
C      1  0.5017650000000  0.5110650000000  0.4407730000000 1.0
C      1  0.4145320000000  0.5605340000000  0.4711060000000 1.0
C      1  0.3619370000000  0.5110830000000  0.5124280000000 1.0
C      1  0.6499280000000  0.4736470000000  0.5339800000000 1.0
C      1  0.4633710000000  0.4461780000000  0.4063360000000 1.0
C      1  0.4442190000000  0.5981180000000  0.5158600000000 1.0
C      1  0.4120980000000  0.4714540000000  0.5908600000000 1.0
C      1  0.4780660000000  0.5671240000000  0.4559700000000 1.0
C      1  0.4351710000000  0.5861410000000  0.5653060000000 1.0
C      1  0.4577550000000  0.4158680000000  0.5595130000000 1.0
C      1  0.3391240000000  0.5076270000000  0.4981130000000 1.0
C      1  0.5769220000000  0.5664180000000  0.4599030000000 1.0
C      1  0.4681220000000  0.5872380000000  0.4373390000000 1.0
C      1  0.5807650000000  0.5395440000000  0.5697270000000 1.0
C      1  0.6076900000000  0.4400620000000  0.5534360000000 1.0
C      1  0.6019050000000  0.4834270000000  0.6091770000000 1.0
C      1  0.3918710000000  0.5583930000000  0.4884230000000 1.0
C      1  0.4115820000000  0.4983770000000  0.5812050000000 1.0
C      1  0.5256320000000  0.4639670000000  0.4843160000000 1.0
C      1  0.4360860000000  0.5981010000000  0.5413640000000 1.0
C      1  0.4765130000000  0.5470250000000  0.5321660000000 1.0
C      1  0.6274210000000  0.4853820000000  0.5468260000000 1.0
C      1  0.4053920000000  0.4952740000000  0.4970410000000 1.0
C      1  0.5236040000000  0.4695870000000  0.5513240000000 1.0
C      1  0.4709930000000  0.5349200000000  0.3892330000000 1.0
C      1  0.5620470000000  0.5444420000000  0.4449760000000 1.0
C      1  0.5491080000000  0.5330850000000  0.4687010000000 1.0
C      1  0.5197780000000  0.4405620000000  0.4662860000000 1.0
C      1  0.4586730000000  0.4255850000000  0.4971180000000 1.0
C      1  0.4291790000000  0.4508490000000  0.5944050000000 1.0
C      1  0.4599740000000  0.5750530000000  0.4125400000000 1.0
C      1  0.5197700000000  0.5198550000000  0.5162510000000 1.0
C      1  0.3834260000000  0.4920500000000  0.5145540000000 1.0
C      1  0.4036740000000  0.4858910000000  0.4706450000000 1.0
C      1  0.4444450000000  0.5362580000000  0.5709280000000 1.0
C      1  0.4115100000000  0.5751120000000  0.4480680000000 1.0
C      1  0.5028200000000  0.4198600000000  0.4796600000000 1.0
C      1  0.5824800000000  0.4992020000000  0.4782400000000 1.0
C      1  0.5549530000000  0.5855320000000  0.4659540000000 1.0
C      1  0.4572880000000  0.4125690000000  0.4713320000000 1.0
C      1  0.5017500000000  0.3996020000000  0.4407570000000 1.0
C      1  0.4334750000000  0.4198720000000  0.4567260000000 1.0
C      1  0.4576830000000  0.4508030000000  0.5954110000000 1.0
C      1  0.5235810000000  0.5160770000000  0.3885440000000 1.0
C      1  0.4725440000000  0.4316160000000  0.5804620000000 1.0
C      1  0.6015900000000  0.6043970000000  0.5434250000000 1.0
C      1  0.4334530000000  0.4956690000000  0.4146420000000 1.0
C      1  0.5180410000000  0.5448420000000  0.3882190000000 1.0
C      1  0.5537430000000  0.5511380000000  0.5316530000000 1.0
C      1  0.5021720000000  0.4264760000000  0.5773110000000 1.0
C      1  0.5229810000000  0.4999540000000  0.4519910000000 1.0
C      1  0.5455280000000  0.3965370000000  0.4710280000000 1.0
C      1  0.5812580000000  0.3978860000000  0.5052460000000 1.0
C      1  0.5347020000000  0.5936250000000  0.4445960000000 1.0
C      1  0.5151010000000  0.5572290000000  0.5963270000000 1.0
C      1  0.5279460000000  0.5483220000000  0.4811000000000 1.0
C      1  0.4174980000000  0.4400240000000  0.4702370000000 1.0
C      1  0.5537760000000  0.5288100000000  0.6074550000000 1.0
C      1  0.4777750000000  0.4413750000000  0.4306220000000 1.0
C      1  0.4361560000000  0.5133110000000  0.5858920000000 1.0
C      1  0.4181060000000  0.4281520000000  0.5237710000000 1.0
C      1  0.4534090000000  0.5336610000000  0.5433400000000 1.0
C      1  0.4433480000000  0.5197920000000  0.4814910000000 1.0
C      1  0.4796060000000  0.5789410000000  0.3908890000000 1.0
C      1  0.5448740000000  0.5236730000000  0.5286630000000 1.0
C      1  0.5536910000000  0.5366440000000  0.4190350000000 1.0
C      1  0.4142830000000  0.4651810000000  0.4549860000000 1.0
C      1  0.6197680000000  0.5323260000000  0.5208770000000 1.0
C      1  0.5347910000000  0.5776690000000  0.4901100000000 1.0
C      1  0.4296760000000  0.4212600000000  0.4285840000000 1.0
C      1  0.5014740000000  0.4251310000000  0.4273880000000 1.0
C      1  0.5224380000000  0.4437030000000  0.4358320000000 1.0
C      1  0.4386030000000  0.5628940000000  0.5783370000000 1.0
C      1  0.5810050000000  0.4027760000000  0.5544320000000 1.0
C      1  0.4975780000000  0.4752840000000  0.4894020000000 1.0
C      1  0.5433890000000  0.4269780000000  0.5137260000000 1.0
C      1  0.5672680000000  0.4825940000000  0.4613650000000 1.0
C      1  0.5017210000000  0.5469630000000  0.5739940000000 1.0
C      1  0.6117360000000  0.4672610000000  0.5626850000000 1.0
C      1  0.5236910000000  0.5715230000000  0.4296460000000 1.0
C      1  0.5277560000000  0.3905720000000  0.4508100000000 1.0
C      1  0.5064260000000  0.4700430000000  0.3943390000000 1.0
C      1  0.5278010000000  0.4642190000000  0.4145160000000 1.0
C      1  0.5346580000000  0.5471970000000  0.6117710000000 1.0
C      1  0.4314980000000  0.5285910000000  0.5262400000000 1.0
C      1  0.6390640000000  0.4289850000000  0.5179070000000 1.0
C      1  0.3753190000000  0.5271170000000  0.5557570000000 1.0
C      1  0.4721050000000  0.4582490000000  0.4527200000000 1.0
C      1  0.3877230000000  0.5514530000000  0.5154490000000 1.0
C      1  0.5957700000000  0.4682540000000  0.5873680000000 1.0
C      1  0.5424760000000  0.4745270000000  0.5295450000000 1.0
C      1  0.5466060000000  0.5104990000000  0.4061930000000 1.0
C      1  0.4252100000000  0.4702840000000  0.4277330000000 1.0
C      1  0.5203710000000  0.4150940000000  0.5276120000000 1.0
C      1  0.5952720000000  0.4024040000000  0.5289350000000 1.0
C      1  0.5553800000000  0.4994880000000  0.5391990000000 1.0
C      1  0.6153900000000  0.4231250000000  0.5314240000000 1.0
C      1  0.4837750000000  0.4533980000000  0.3878950000000 1.0
C      1  0.5660750000000  0.5200050000000  0.5837430000000 1.0
C      1  0.4790770000000  0.3996020000000  0.5483250000000 1.0
C      1  0.4119030000000  0.4356450000000  0.4982400000000 1.0
C      1  0.4969440000000  0.5593820000000  0.5490550000000 1.0
C      1  0.5395410000000  0.4834800000000  0.4673880000000 1.0
C      1  0.5568660000000  0.4080340000000  0.4951960000000 1.0
C      1  0.5042170000000  0.4089390000000  0.5052290000000 1.0
C      1  0.4784680000000  0.4602890000000  0.5323790000000 1.0
C      1  0.3911560000000  0.5038790000000  0.5621100000000 1.0
C      1  0.4741320000000  0.4778100000000  0.4732670000000 1.0
C      1  0.4283820000000  0.5109700000000  0.5039190000000 1.0
END
