TITL C-627112-676-1003 2.89393488897399e-06 125000 -876.778899389837 0 0 142 (C1) n - 1
REM
REM in /home/nfs/bkarasulu/CARBON/AIRSS/Generating-Clusters/LCBOP/Only-C1/SD-CG/FIRE-CG
REM
REM
REM
REM
REM
REM ./C.cell (11c1c37f851c82e70ff6c80c92926a4b)
REM AIRSS Version 0.9.1 bugfix July 2018 build 013d7b7c2542+ Fri, 06 Jul 2018 19:26:36 +0100
REM compiler GCC version 9.2.1 20190827 (Red Hat 9.2.1-1)
REM options -cpp -mtune=generic -march=x86-64 -g -O0 -fpre-include=/usr/include/finclude/math-vector-fortran.h
REM seed 1144273082 412689203 1726263828 628930636 -572888354 -1967890890 -1789727966 -805565435 -851430908 -80381505 1990070730 27895539 1255829121 -1014193594 -966355983 1652003859 -1976922635 -1060478132 747209081 -345369087 -1722241623 1894752424 1318955037 527796638 1402585415 1238232209 757803304 174846656 361857276 742885723 -1299905724 -960375278 -404686636
REM
CELL 1.54180   50.00000   50.00000   50.00000   90.00000   90.00000   90.00000
LATT -1
SFAC C  
C      1  0.5103690000000  0.5419650000000  0.3731810000000 1.0
C      1  0.5203870000000  0.5108740000000  0.5431230000000 1.0
C      1  0.5003280000000  0.3982910000000  0.5877160000000 1.0
C      1  0.5544300000000  0.5203140000000  0.6082150000000 1.0
C      1  0.5281430000000  0.5252830000000  0.6166410000000 1.0
C      1  0.5229300000000  0.5203680000000  0.4375870000000 1.0
C      1  0.6026060000000  0.4918510000000  0.4877790000000 1.0
C      1  0.4893160000000  0.5508350000000  0.5040790000000 1.0
C      1  0.4779200000000  0.4865070000000  0.5585470000000 1.0
C      1  0.5192020000000  0.6046760000000  0.3904160000000 1.0
C      1  0.5423400000000  0.6081620000000  0.5059910000000 1.0
C      1  0.4593630000000  0.5978650000000  0.5226790000000 1.0
C      1  0.5126710000000  0.4727680000000  0.4542080000000 1.0
C      1  0.4013610000000  0.4420040000000  0.5529950000000 1.0
C      1  0.4858500000000  0.4228260000000  0.5938370000000 1.0
C      1  0.4821000000000  0.5861170000000  0.5370450000000 1.0
C      1  0.4746360000000  0.4361570000000  0.5520710000000 1.0
C      1  0.4919300000000  0.5692250000000  0.4819320000000 1.0
C      1  0.4862790000000  0.4197160000000  0.5313250000000 1.0
C      1  0.4686380000000  0.6059050000000  0.4961020000000 1.0
C      1  0.4463960000000  0.4814050000000  0.4126850000000 1.0
C      1  0.5688290000000  0.5141240000000  0.3987280000000 1.0
C      1  0.5544180000000  0.4705870000000  0.4149740000000 1.0
C      1  0.3925890000000  0.4591810000000  0.4788440000000 1.0
C      1  0.5641820000000  0.4822170000000  0.5075850000000 1.0
C      1  0.4656130000000  0.4856070000000  0.5307690000000 1.0
C      1  0.4224270000000  0.5238130000000  0.4650350000000 1.0
C      1  0.4091670000000  0.4998550000000  0.5778720000000 1.0
C      1  0.4795590000000  0.5029780000000  0.4505260000000 1.0
C      1  0.5321780000000  0.5871300000000  0.3746800000000 1.0
C      1  0.4350450000000  0.5079060000000  0.4857060000000 1.0
C      1  0.5804350000000  0.5201120000000  0.4226190000000 1.0
C      1  0.4464340000000  0.4822670000000  0.4788240000000 1.0
C      1  0.5644510000000  0.5689610000000  0.4699800000000 1.0
C      1  0.4828950000000  0.4019450000000  0.4275590000000 1.0
C      1  0.5193420000000  0.4043160000000  0.5667990000000 1.0
C      1  0.5001770000000  0.4587920000000  0.3390320000000 1.0
C      1  0.5484560000000  0.5888420000000  0.5513470000000 1.0
C      1  0.4103700000000  0.5249670000000  0.5679290000000 1.0
C      1  0.6203200000000  0.5313740000000  0.5105310000000 1.0
C      1  0.4790390000000  0.4257380000000  0.5040040000000 1.0
C      1  0.4793510000000  0.5380720000000  0.5510490000000 1.0
C      1  0.5059870000000  0.4449740000000  0.5848920000000 1.0
C      1  0.4621670000000  0.4261510000000  0.5768210000000 1.0
C      1  0.4674150000000  0.5843660000000  0.4766260000000 1.0
C      1  0.5601620000000  0.5058580000000  0.4908020000000 1.0
C      1  0.5299880000000  0.4701620000000  0.4765390000000 1.0
C      1  0.5796990000000  0.5022300000000  0.4444960000000 1.0
C      1  0.5279030000000  0.5615080000000  0.3678740000000 1.0
C      1  0.4108660000000  0.4380140000000  0.4725580000000 1.0
C      1  0.3732580000000  0.5048210000000  0.5060310000000 1.0
C      1  0.5837680000000  0.5580530000000  0.6189530000000 1.0
C      1  0.5376740000000  0.5659990000000  0.4615470000000 1.0
C      1  0.5364830000000  0.4483940000000  0.4169530000000 1.0
C      1  0.5164980000000  0.4599870000000  0.4994190000000 1.0
C      1  0.5872470000000  0.5266580000000  0.5563370000000 1.0
C      1  0.5818600000000  0.5067980000000  0.4721780000000 1.0
C      1  0.5515800000000  0.4420790000000  0.5595190000000 1.0
C      1  0.5309620000000  0.4310070000000  0.5762420000000 1.0
C      1  0.6457400000000  0.5349040000000  0.5198970000000 1.0
C      1  0.5736660000000  0.4760180000000  0.5871850000000 1.0
C      1  0.4199940000000  0.4504100000000  0.5727370000000 1.0
C      1  0.4553020000000  0.4165900000000  0.4903880000000 1.0
C      1  0.4963460000000  0.4211550000000  0.4151150000000 1.0
C      1  0.4405200000000  0.4732080000000  0.5239320000000 1.0
C      1  0.5889080000000  0.5050030000000  0.5381850000000 1.0
C      1  0.4449000000000  0.5711550000000  0.4653790000000 1.0
C      1  0.4783230000000  0.5414930000000  0.6110940000000 1.0
C      1  0.4355210000000  0.4296370000000  0.5849660000000 1.0
C      1  0.4271000000000  0.4779480000000  0.5781780000000 1.0
C      1  0.3897700000000  0.4858240000000  0.4644590000000 1.0
C      1  0.4721240000000  0.4834470000000  0.3999930000000 1.0
C      1  0.5475730000000  0.4285460000000  0.4344450000000 1.0
C      1  0.4549690000000  0.5428350000000  0.5653050000000 1.0
C      1  0.6063350000000  0.5519460000000  0.4971360000000 1.0
C      1  0.4589740000000  0.5458650000000  0.5930700000000 1.0
C      1  0.4785290000000  0.5096400000000  0.3913890000000 1.0
C      1  0.4272700000000  0.5141360000000  0.5123570000000 1.0
C      1  0.5342850000000  0.4139460000000  0.5224000000000 1.0
C      1  0.4291650000000  0.5399990000000  0.5525080000000 1.0
C      1  0.4766420000000  0.5243200000000  0.4678540000000 1.0
C      1  0.4249570000000  0.5524160000000  0.4739300000000 1.0
C      1  0.5266310000000  0.4622180000000  0.5250210000000 1.0
C      1  0.4792220000000  0.5827660000000  0.4095350000000 1.0
C      1  0.4244050000000  0.4136910000000  0.6042190000000 1.0
C      1  0.5086250000000  0.4457920000000  0.4085580000000 1.0
C      1  0.4920530000000  0.4634450000000  0.3925230000000 1.0
C      1  0.5028530000000  0.5335910000000  0.6180650000000 1.0
C      1  0.4178600000000  0.5571390000000  0.5020690000000 1.0
C      1  0.4782590000000  0.5026600000000  0.5116980000000 1.0
C      1  0.4929030000000  0.4463550000000  0.4900830000000 1.0
C      1  0.5306970000000  0.5300160000000  0.5248750000000 1.0
C      1  0.4876320000000  0.4588870000000  0.4640320000000 1.0
C      1  0.4173890000000  0.4912260000000  0.5257350000000 1.0
C      1  0.4967350000000  0.6026220000000  0.4050750000000 1.0
C      1  0.4687860000000  0.3917420000000  0.4476720000000 1.0
C      1  0.3901680000000  0.4859670000000  0.5189950000000 1.0
C      1  0.6065950000000  0.5061070000000  0.5137960000000 1.0
C      1  0.5953570000000  0.5733590000000  0.6365750000000 1.0
C      1  0.5616830000000  0.4135630000000  0.4782790000000 1.0
C      1  0.5749330000000  0.5463740000000  0.5721590000000 1.0
C      1  0.5337630000000  0.4863700000000  0.5404730000000 1.0
C      1  0.3900440000000  0.4402460000000  0.5284740000000 1.0
C      1  0.4349560000000  0.4362530000000  0.4876530000000 1.0
C      1  0.4672200000000  0.4788630000000  0.4603820000000 1.0
C      1  0.4546160000000  0.4857420000000  0.5778640000000 1.0
C      1  0.6007290000000  0.4647330000000  0.4767220000000 1.0
C      1  0.5645640000000  0.4944520000000  0.6042170000000 1.0
C      1  0.4250030000000  0.4906090000000  0.4268250000000 1.0
C      1  0.5728830000000  0.4748530000000  0.4375420000000 1.0
C      1  0.5312100000000  0.5448860000000  0.4441110000000 1.0
C      1  0.5207960000000  0.6062490000000  0.4868000000000 1.0
C      1  0.4909710000000  0.4592100000000  0.5633400000000 1.0
C      1  0.5690810000000  0.4649690000000  0.5617590000000 1.0
C      1  0.5168940000000  0.5809150000000  0.4740030000000 1.0
C      1  0.4249850000000  0.5399430000000  0.5237950000000 1.0
C      1  0.5475200000000  0.4054240000000  0.4994630000000 1.0
C      1  0.5657990000000  0.4306510000000  0.4564460000000 1.0
C      1  0.4957640000000  0.4605980000000  0.3646520000000 1.0
C      1  0.5642280000000  0.5697260000000  0.5609530000000 1.0
C      1  0.4098070000000  0.5017130000000  0.4486650000000 1.0
C      1  0.4820780000000  0.5251730000000  0.4954420000000 1.0
C      1  0.5068170000000  0.4981890000000  0.4424300000000 1.0
C      1  0.5653840000000  0.4849640000000  0.5380200000000 1.0
C      1  0.3867890000000  0.4596130000000  0.5080730000000 1.0
C      1  0.4757870000000  0.5570740000000  0.4027960000000 1.0
C      1  0.3713020000000  0.5029780000000  0.4787880000000 1.0
C      1  0.5558200000000  0.4905190000000  0.3948970000000 1.0
C      1  0.5116770000000  0.4057770000000  0.5383890000000 1.0
C      1  0.4943470000000  0.5130600000000  0.5554770000000 1.0
C      1  0.5041530000000  0.6045270000000  0.5306560000000 1.0
C      1  0.4860240000000  0.5581420000000  0.5317540000000 1.0
C      1  0.4966410000000  0.6143710000000  0.5022500000000 1.0
C      1  0.5418260000000  0.4393830000000  0.5328680000000 1.0
C      1  0.5330150000000  0.6024510000000  0.5328030000000 1.0
C      1  0.5873010000000  0.5642130000000  0.4829740000000 1.0
C      1  0.5817840000000  0.4547240000000  0.4567400000000 1.0
C      1  0.5711290000000  0.5419100000000  0.6000500000000 1.0
C      1  0.4417250000000  0.4616780000000  0.4980370000000 1.0
C      1  0.4876510000000  0.5357620000000  0.3886630000000 1.0
C      1  0.5443780000000  0.5261740000000  0.5019290000000 1.0
C      1  0.4578490000000  0.3959980000000  0.4716250000000 1.0
END
