TITL C-627106-156-413 -1376.13985761657 125000 -268.959653272142 0 0 46 (C1) n - 1
REM
REM in /home/nfs/bkarasulu/CARBON/AIRSS/Generating-Clusters/LCBOP/Only-C1/SD-CG/FIRE-CG
REM
REM
REM
REM
REM
REM ./C.cell (11c1c37f851c82e70ff6c80c92926a4b)
REM AIRSS Version 0.9.1 bugfix July 2018 build 013d7b7c2542+ Fri, 06 Jul 2018 19:26:36 +0100
REM compiler GCC version 9.2.1 20190827 (Red Hat 9.2.1-1)
REM options -cpp -mtune=generic -march=x86-64 -g -O0 -fpre-include=/usr/include/finclude/math-vector-fortran.h
REM seed 385961223 -1333791949 1330245880 69939192 2103745384 -510949192 -161848053 984165391 -1813416046 898071066 28622372 211284104 -331645221 482073684 517399167 -1544392119 312633857 -1859159332 -1832501459 1768227237 -1994447763 1454920944 396693345 1384534843 1537471262 -1131333255 269628932 -1279185818 190215941 -444139705 -918677915 728229433 -433497038
REM
CELL 1.54180   50.00000   50.00000   50.00000   90.00000   90.00000   90.00000
LATT -1
SFAC C  
C      1  0.5800360000000  0.6101140000000  0.5109000000000 1.0
C      1  0.4474690000000  0.4919050000000  0.5829080000000 1.0
C      1  0.4513470000000  0.3086300000000  0.5279380000000 1.0
C      1  0.5063680000000  0.5688930000000  0.5186090000000 1.0
C      1  0.5443960000000  0.6268340000000  0.4858340000000 1.0
C      1  0.5334440000000  0.4216530000000  0.4298510000000 1.0
C      1  0.5508890000000  0.5311340000000  0.4811820000000 1.0
C      1  0.5109430000000  0.5627330000000  0.4733350000000 1.0
C      1  0.5502200000000  0.5036100000000  0.4765700000000 1.0
C      1  0.4291000000000  0.2361490000000  0.5504040000000 1.0
C      1  0.4577160000000  0.4979520000000  0.5592430000000 1.0
C      1  0.5711010000000  0.6316520000000  0.4959760000000 1.0
C      1  0.4588120000000  0.3329280000000  0.5204460000000 1.0
C      1  0.4819420000000  0.4783090000000  0.4891590000000 1.0
C      1  0.5219100000000  0.4583200000000  0.4683870000000 1.0
C      1  0.5618200000000  0.5419050000000  0.5050420000000 1.0
C      1  0.4685050000000  0.5043060000000  0.5343640000000 1.0
C      1  0.4738820000000  0.5309280000000  0.5272200000000 1.0
C      1  0.5151340000000  0.5832770000000  0.4938720000000 1.0
C      1  0.5548090000000  0.5635680000000  0.5219470000000 1.0
C      1  0.4881860000000  0.5466540000000  0.4817940000000 1.0
C      1  0.5289790000000  0.5619740000000  0.5346190000000 1.0
C      1  0.4766930000000  0.4982090000000  0.4700250000000 1.0
C      1  0.5132760000000  0.6817420000000  0.4458870000000 1.0
C      1  0.5100330000000  0.6557160000000  0.4536260000000 1.0
C      1  0.4372040000000  0.4858450000000  0.6065830000000 1.0
C      1  0.5393520000000  0.4795640000000  0.4736800000000 1.0
C      1  0.4862560000000  0.5496280000000  0.5108260000000 1.0
C      1  0.4877220000000  0.6410880000000  0.4452250000000 1.0
C      1  0.5289670000000  0.6433450000000  0.4700450000000 1.0
C      1  0.4271070000000  0.4798810000000  0.6298670000000 1.0
C      1  0.4662920000000  0.3572360000000  0.5130040000000 1.0
C      1  0.4975160000000  0.4554980000000  0.4828730000000 1.0
C      1  0.5341030000000  0.5482500000000  0.4658060000000 1.0
C      1  0.4779180000000  0.5248150000000  0.4679860000000 1.0
C      1  0.4438880000000  0.2843390000000  0.5354580000000 1.0
C      1  0.4889900000000  0.4301630000000  0.4910020000000 1.0
C      1  0.4744020000000  0.4843070000000  0.5155450000000 1.0
C      1  0.5383930000000  0.4035330000000  0.4117740000000 1.0
C      1  0.4737990000000  0.3815570000000  0.5056300000000 1.0
C      1  0.4676160000000  0.6259970000000  0.4383510000000 1.0
C      1  0.4364310000000  0.2600440000000  0.5429930000000 1.0
C      1  0.4813310000000  0.4058930000000  0.4983350000000 1.0
C      1  0.5373420000000  0.6004880000000  0.4957410000000 1.0
C      1  0.5282560000000  0.4399130000000  0.4483320000000 1.0
C      1  0.5601050000000  0.5895170000000  0.5118060000000 1.0
END
