TITL C-627111-6168-2090 -0.00521233266763421 125000 -668.149897492556 0 0 113 (C1) n - 1
REM
REM in /home/nfs/bkarasulu/CARBON/AIRSS/Generating-Clusters/LCBOP/Only-C1/SD-CG/FIRE-CG
REM
REM
REM
REM
REM
REM ./C.cell (11c1c37f851c82e70ff6c80c92926a4b)
REM AIRSS Version 0.9.1 bugfix July 2018 build 013d7b7c2542+ Fri, 06 Jul 2018 19:26:36 +0100
REM compiler GCC version 9.2.1 20190827 (Red Hat 9.2.1-1)
REM options -cpp -mtune=generic -march=x86-64 -g -O0 -fpre-include=/usr/include/finclude/math-vector-fortran.h
REM seed 1267413900 640343082 1091712286 32807142 -368719065 1938012505 1061900546 -1199782134 1449526966 -619425993 -625048981 522047542 -1369115503 -571770739 565553077 161549536 2092695543 -1499780795 1703513265 -1540406699 -1455796055 -37683503 1192752294 1863387559 -2092815976 -125579758 1148083554 2062619811 166578296 1988337567 1279448850 725584750 704097702
REM
CELL 1.54180   50.00000   50.00000   50.00000   90.00000   90.00000   90.00000
LATT -1
SFAC C  
C      1  0.4750850000000  0.5024160000000  0.5629870000000 1.0
C      1  0.4260840000000  0.4790310000000  0.4866200000000 1.0
C      1  0.4908250000000  0.4428450000000  0.5856200000000 1.0
C      1  0.4934810000000  0.5950490000000  0.5338000000000 1.0
C      1  0.4380040000000  0.5009980000000  0.4701260000000 1.0
C      1  0.4821700000000  0.4825750000000  0.3903910000000 1.0
C      1  0.4420640000000  0.4751860000000  0.4237160000000 1.0
C      1  0.4306860000000  0.5534050000000  0.5067370000000 1.0
C      1  0.5093480000000  0.5518320000000  0.5314930000000 1.0
C      1  0.4851760000000  0.4594900000000  0.4804340000000 1.0
C      1  0.4866110000000  0.5719490000000  0.5780600000000 1.0
C      1  0.5661770000000  0.5626600000000  0.4945790000000 1.0
C      1  0.5608630000000  0.4839430000000  0.5160790000000 1.0
C      1  0.5225420000000  0.5268920000000  0.4629960000000 1.0
C      1  0.4533010000000  0.5203040000000  0.5562150000000 1.0
C      1  0.4796060000000  0.5206300000000  0.6036130000000 1.0
C      1  0.4654410000000  0.4730330000000  0.5248160000000 1.0
C      1  0.4813610000000  0.4526120000000  0.5316670000000 1.0
C      1  0.5063560000000  0.5341170000000  0.4149890000000 1.0
C      1  0.4646330000000  0.4982910000000  0.5175720000000 1.0
C      1  0.5233600000000  0.5139870000000  0.4049320000000 1.0
C      1  0.6019970000000  0.4592920000000  0.5117550000000 1.0
C      1  0.4267320000000  0.5173300000000  0.5464160000000 1.0
C      1  0.4408330000000  0.4353370000000  0.5163070000000 1.0
C      1  0.4371460000000  0.4433760000000  0.5446460000000 1.0
C      1  0.4641760000000  0.5447920000000  0.5495780000000 1.0
C      1  0.5671880000000  0.4457460000000  0.4862380000000 1.0
C      1  0.5699430000000  0.5300010000000  0.4583190000000 1.0
C      1  0.5774050000000  0.3967060000000  0.5379240000000 1.0
C      1  0.5026920000000  0.5282500000000  0.4435890000000 1.0
C      1  0.5068520000000  0.4255690000000  0.5712070000000 1.0
C      1  0.4662690000000  0.5068240000000  0.4667350000000 1.0
C      1  0.5825260000000  0.5366750000000  0.4852830000000 1.0
C      1  0.5299950000000  0.5332780000000  0.5347620000000 1.0
C      1  0.4853950000000  0.4061010000000  0.5090170000000 1.0
C      1  0.5028620000000  0.4843400000000  0.4408320000000 1.0
C      1  0.5909900000000  0.4089100000000  0.5887250000000 1.0
C      1  0.4270340000000  0.5269210000000  0.4593660000000 1.0
C      1  0.5706590000000  0.5062600000000  0.4409340000000 1.0
C      1  0.5211570000000  0.4160640000000  0.5496310000000 1.0
C      1  0.5146650000000  0.5796140000000  0.4850320000000 1.0
C      1  0.5417210000000  0.5666050000000  0.4774560000000 1.0
C      1  0.5849820000000  0.4024520000000  0.5642030000000 1.0
C      1  0.5791710000000  0.4215840000000  0.4068890000000 1.0
C      1  0.4742310000000  0.5276740000000  0.4838360000000 1.0
C      1  0.4691260000000  0.4628240000000  0.5861680000000 1.0
C      1  0.5117490000000  0.4170220000000  0.4700530000000 1.0
C      1  0.5574850000000  0.5294840000000  0.5364980000000 1.0
C      1  0.5576850000000  0.4714060000000  0.4903550000000 1.0
C      1  0.5087710000000  0.4567070000000  0.5344470000000 1.0
C      1  0.5407770000000  0.5909370000000  0.5284510000000 1.0
C      1  0.5540800000000  0.4818910000000  0.4435820000000 1.0
C      1  0.4884100000000  0.5909930000000  0.4228700000000 1.0
C      1  0.4829200000000  0.5423750000000  0.5286350000000 1.0
C      1  0.4448610000000  0.5031800000000  0.4170260000000 1.0
C      1  0.5160530000000  0.5089940000000  0.5309090000000 1.0
C      1  0.5109530000000  0.4448850000000  0.4235370000000 1.0
C      1  0.4790240000000  0.5341960000000  0.4057010000000 1.0
C      1  0.4516470000000  0.5759360000000  0.5111200000000 1.0
C      1  0.4615220000000  0.4537660000000  0.4245210000000 1.0
C      1  0.5039680000000  0.4673790000000  0.4629870000000 1.0
C      1  0.5020580000000  0.4984770000000  0.5533260000000 1.0
C      1  0.5192360000000  0.5682810000000  0.6421120000000 1.0
C      1  0.5643480000000  0.5794810000000  0.5173550000000 1.0
C      1  0.4862350000000  0.4592620000000  0.4085470000000 1.0
C      1  0.4795010000000  0.5714300000000  0.4406230000000 1.0
C      1  0.4870960000000  0.5772600000000  0.4698470000000 1.0
C      1  0.4022860000000  0.4776590000000  0.5311560000000 1.0
C      1  0.4595740000000  0.4132470000000  0.5131170000000 1.0
C      1  0.5043710000000  0.5591940000000  0.6221560000000 1.0
C      1  0.5141630000000  0.4728260000000  0.5572090000000 1.0
C      1  0.5816710000000  0.4366430000000  0.5090920000000 1.0
C      1  0.5339790000000  0.5914160000000  0.5566620000000 1.0
C      1  0.5124080000000  0.4118060000000  0.4993730000000 1.0
C      1  0.5825980000000  0.3722770000000  0.5267580000000 1.0
C      1  0.4007950000000  0.5160270000000  0.5057110000000 1.0
C      1  0.4734150000000  0.4935370000000  0.5906280000000 1.0
C      1  0.5055300000000  0.5890550000000  0.5619460000000 1.0
C      1  0.5446480000000  0.4848420000000  0.4701870000000 1.0
C      1  0.4750080000000  0.5231180000000  0.5104760000000 1.0
C      1  0.4260990000000  0.5505590000000  0.4765960000000 1.0
C      1  0.5178660000000  0.4957030000000  0.5061660000000 1.0
C      1  0.5920580000000  0.5140460000000  0.5028050000000 1.0
C      1  0.4891310000000  0.5500900000000  0.5996980000000 1.0
C      1  0.4851630000000  0.5054830000000  0.4465610000000 1.0
C      1  0.5339280000000  0.5773110000000  0.6616630000000 1.0
C      1  0.4615240000000  0.5821780000000  0.4836250000000 1.0
C      1  0.4680190000000  0.4361190000000  0.4468880000000 1.0
C      1  0.5334260000000  0.4149330000000  0.5221910000000 1.0
C      1  0.4383640000000  0.5751000000000  0.4671570000000 1.0
C      1  0.5605160000000  0.4372070000000  0.4162140000000 1.0
C      1  0.4901880000000  0.4805610000000  0.3641050000000 1.0
C      1  0.5715810000000  0.5093380000000  0.5231750000000 1.0
C      1  0.5192510000000  0.4674220000000  0.5108450000000 1.0
C      1  0.4634190000000  0.5709070000000  0.5597360000000 1.0
C      1  0.5263920000000  0.5044830000000  0.4802800000000 1.0
C      1  0.5196970000000  0.4903560000000  0.4179300000000 1.0
C      1  0.4388740000000  0.4523440000000  0.4910980000000 1.0
C      1  0.4183810000000  0.5322460000000  0.5220420000000 1.0
C      1  0.5410030000000  0.4537480000000  0.4271730000000 1.0
C      1  0.4608270000000  0.4467690000000  0.4730310000000 1.0
C      1  0.4399260000000  0.5290810000000  0.4325760000000 1.0
C      1  0.5440570000000  0.5440790000000  0.4598940000000 1.0
C      1  0.4627180000000  0.5489090000000  0.4268450000000 1.0
C      1  0.4681940000000  0.5072740000000  0.3994270000000 1.0
C      1  0.5640190000000  0.4169340000000  0.5226290000000 1.0
C      1  0.4052200000000  0.4877140000000  0.5046100000000 1.0
C      1  0.5150320000000  0.5922580000000  0.5124960000000 1.0
C      1  0.4115310000000  0.4936320000000  0.5514000000000 1.0
C      1  0.4467200000000  0.4537910000000  0.5685470000000 1.0
C      1  0.6061330000000  0.4866000000000  0.5032060000000 1.0
C      1  0.4976950000000  0.4273270000000  0.4457760000000 1.0
C      1  0.4653020000000  0.5867350000000  0.5343550000000 1.0
END
