TITL C-627110-360-1338 0.00240863456079109 125000 -531.822026696048 0 0 88 (C1) n - 1
REM
REM in /home/nfs/bkarasulu/CARBON/AIRSS/Generating-Clusters/LCBOP/Only-C1/SD-CG/FIRE-CG
REM
REM
REM
REM
REM
REM ./C.cell (11c1c37f851c82e70ff6c80c92926a4b)
REM AIRSS Version 0.9.1 bugfix July 2018 build 013d7b7c2542+ Fri, 06 Jul 2018 19:26:36 +0100
REM compiler GCC version 9.2.1 20190827 (Red Hat 9.2.1-1)
REM options -cpp -mtune=generic -march=x86-64 -g -O0 -fpre-include=/usr/include/finclude/math-vector-fortran.h
REM seed 1746224586 -1686423357 -1995430894 814843387 -629586795 -1823764442 2086746142 -878199036 1120684453 -1127168346 -216058591 -743526374 1113063547 739642772 1761475870 193508327 -313865914 70476923 431489082 1469522886 442368102 136049572 2051165635 -1606392431 714868970 -1240584584 616612452 -647502149 613639821 -38291135 1405479889 805365600 -1833627116
REM
CELL 1.54180   50.00000   50.00000   50.00000   90.00000   90.00000   90.00000
LATT -1
SFAC C  
C      1  0.4616500000000  0.4769350000000  0.5569310000000 1.0
C      1  0.4984650000000  0.5647610000000  0.4184900000000 1.0
C      1  0.4923220000000  0.4840180000000  0.4587620000000 1.0
C      1  0.4441630000000  0.4287410000000  0.5022720000000 1.0
C      1  0.4707700000000  0.5701410000000  0.5697950000000 1.0
C      1  0.4799330000000  0.5001080000000  0.6151820000000 1.0
C      1  0.5919120000000  0.5583860000000  0.4688690000000 1.0
C      1  0.4916480000000  0.6145660000000  0.5246560000000 1.0
C      1  0.4218410000000  0.4470640000000  0.4040860000000 1.0
C      1  0.5132600000000  0.4336470000000  0.4326110000000 1.0
C      1  0.4778720000000  0.5742220000000  0.4355170000000 1.0
C      1  0.4766500000000  0.4295310000000  0.5576230000000 1.0
C      1  0.4953520000000  0.4210440000000  0.5380500000000 1.0
C      1  0.4640220000000  0.4776200000000  0.4541470000000 1.0
C      1  0.4387050000000  0.4484270000000  0.4239050000000 1.0
C      1  0.4854530000000  0.5027130000000  0.4159140000000 1.0
C      1  0.4866560000000  0.4050830000000  0.4931050000000 1.0
C      1  0.4673910000000  0.5673110000000  0.5960350000000 1.0
C      1  0.5555470000000  0.4473930000000  0.5543750000000 1.0
C      1  0.5853730000000  0.4218330000000  0.5246950000000 1.0
C      1  0.5370030000000  0.4624910000000  0.5703920000000 1.0
C      1  0.4642490000000  0.4910810000000  0.5086710000000 1.0
C      1  0.5454830000000  0.4462470000000  0.4661710000000 1.0
C      1  0.4332100000000  0.5204200000000  0.4574150000000 1.0
C      1  0.4441000000000  0.4945010000000  0.4656910000000 1.0
C      1  0.4619180000000  0.5160070000000  0.4179180000000 1.0
C      1  0.5324680000000  0.4526170000000  0.4409020000000 1.0
C      1  0.4568770000000  0.4514960000000  0.4448170000000 1.0
C      1  0.5222050000000  0.4805750000000  0.5038580000000 1.0
C      1  0.4677050000000  0.5498280000000  0.6161200000000 1.0
C      1  0.5211620000000  0.5365590000000  0.4682180000000 1.0
C      1  0.5092400000000  0.4127540000000  0.4761130000000 1.0
C      1  0.5498610000000  0.4870420000000  0.4101170000000 1.0
C      1  0.4406350000000  0.4931920000000  0.4941400000000 1.0
C      1  0.4916780000000  0.4337540000000  0.6057950000000 1.0
C      1  0.4178810000000  0.5294080000000  0.4814340000000 1.0
C      1  0.5949670000000  0.5325820000000  0.4742410000000 1.0
C      1  0.4220650000000  0.5124940000000  0.5052430000000 1.0
C      1  0.5608380000000  0.4322090000000  0.5304530000000 1.0
C      1  0.4798360000000  0.4697100000000  0.5008220000000 1.0
C      1  0.5019870000000  0.4769500000000  0.4843630000000 1.0
C      1  0.5103980000000  0.6827570000000  0.4522240000000 1.0
C      1  0.5568420000000  0.5967140000000  0.4663260000000 1.0
C      1  0.5780690000000  0.5808490000000  0.4661550000000 1.0
C      1  0.4465060000000  0.5326040000000  0.4354420000000 1.0
C      1  0.5456010000000  0.5128640000000  0.5286630000000 1.0
C      1  0.5647380000000  0.4646680000000  0.4755160000000 1.0
C      1  0.4862200000000  0.5889450000000  0.4579420000000 1.0
C      1  0.5308650000000  0.4786490000000  0.4288270000000 1.0
C      1  0.4902280000000  0.4810610000000  0.5978100000000 1.0
C      1  0.5329060000000  0.4587670000000  0.5984220000000 1.0
C      1  0.5533530000000  0.4562640000000  0.6162620000000 1.0
C      1  0.5054410000000  0.4583400000000  0.6061990000000 1.0
C      1  0.5162850000000  0.4809620000000  0.5553860000000 1.0
C      1  0.5177880000000  0.6582360000000  0.4570940000000 1.0
C      1  0.5303480000000  0.5073390000000  0.5506630000000 1.0
C      1  0.4536230000000  0.5598830000000  0.4355580000000 1.0
C      1  0.4786570000000  0.5388820000000  0.5291440000000 1.0
C      1  0.5157110000000  0.5442630000000  0.4215850000000 1.0
C      1  0.5148460000000  0.4387360000000  0.5276950000000 1.0
C      1  0.5335370000000  0.4265140000000  0.4846920000000 1.0
C      1  0.4577380000000  0.4492440000000  0.5485600000000 1.0
C      1  0.4893240000000  0.3998650000000  0.5204780000000 1.0
C      1  0.5308050000000  0.6066310000000  0.4686660000000 1.0
C      1  0.5150920000000  0.4670110000000  0.5286450000000 1.0
C      1  0.5378970000000  0.4288990000000  0.5134140000000 1.0
C      1  0.4755540000000  0.5590100000000  0.5461510000000 1.0
C      1  0.4984960000000  0.5988240000000  0.5044720000000 1.0
C      1  0.5249870000000  0.6332600000000  0.4622100000000 1.0
C      1  0.4722800000000  0.5244290000000  0.6226020000000 1.0
C      1  0.4237930000000  0.5097310000000  0.5339270000000 1.0
C      1  0.4793880000000  0.4226170000000  0.5846270000000 1.0
C      1  0.5084210000000  0.5888280000000  0.4783780000000 1.0
C      1  0.5081320000000  0.4970170000000  0.4365840000000 1.0
C      1  0.4881920000000  0.4828600000000  0.5689450000000 1.0
C      1  0.5453300000000  0.4968280000000  0.5052570000000 1.0
C      1  0.4759070000000  0.5145430000000  0.5189560000000 1.0
C      1  0.5177830000000  0.5600920000000  0.4806230000000 1.0
C      1  0.4623220000000  0.4184250000000  0.4833840000000 1.0
C      1  0.5680100000000  0.4961240000000  0.3937720000000 1.0
C      1  0.4422520000000  0.4410630000000  0.5261960000000 1.0
C      1  0.5862660000000  0.5084840000000  0.4811090000000 1.0
C      1  0.5180490000000  0.5251740000000  0.4426320000000 1.0
C      1  0.4402210000000  0.4958600000000  0.5513270000000 1.0
C      1  0.4963290000000  0.4217770000000  0.4512960000000 1.0
C      1  0.4688780000000  0.4289760000000  0.4570710000000 1.0
C      1  0.4855790000000  0.6317100000000  0.5433350000000 1.0
C      1  0.5666530000000  0.4899610000000  0.4878670000000 1.0
END
