TITL C-627106-156-1053 -29.9376464013044 125000 -621.570218321558 0 0 102 (C1) n - 1
REM
REM in /home/nfs/bkarasulu/CARBON/AIRSS/Generating-Clusters/LCBOP/Only-C1/SD-CG/FIRE-CG
REM
REM
REM
REM
REM
REM ./C.cell (11c1c37f851c82e70ff6c80c92926a4b)
REM AIRSS Version 0.9.1 bugfix July 2018 build 013d7b7c2542+ Fri, 06 Jul 2018 19:26:36 +0100
REM compiler GCC version 9.2.1 20190827 (Red Hat 9.2.1-1)
REM options -cpp -mtune=generic -march=x86-64 -g -O0 -fpre-include=/usr/include/finclude/math-vector-fortran.h
REM seed -718053062 -485494367 1928492126 2015072676 -1836383392 -1011291414 -1633672478 268388931 674358520 1681474374 -711531995 690807144 138080555 -1119229117 1837514872 -1198696129 -2040207931 -548725606 -1488599101 1050094966 17341072 1773033019 1059162760 -882908688 1324600424 728413040 -1762278423 1641053333 -1068721728 -514588656 -1150211996 -1684701856 955966615
REM
CELL 1.54180   50.00000   50.00000   50.00000   90.00000   90.00000   90.00000
LATT -1
SFAC C  
C      1  0.5888490000000  0.4770260000000  0.5205020000000 1.0
C      1  0.4552860000000  0.5167750000000  0.5470440000000 1.0
C      1  0.4833500000000  0.4664510000000  0.6433710000000 1.0
C      1  0.5111140000000  0.4264160000000  0.5617200000000 1.0
C      1  0.4567720000000  0.5102430000000  0.5211770000000 1.0
C      1  0.4787970000000  0.5276030000000  0.4540500000000 1.0
C      1  0.3863580000000  0.4879560000000  0.5567790000000 1.0
C      1  0.4724360000000  0.4374660000000  0.4967110000000 1.0
C      1  0.4219210000000  0.4537050000000  0.5024690000000 1.0
C      1  0.5595880000000  0.6535140000000  0.4061400000000 1.0
C      1  0.5117270000000  0.4169630000000  0.5346800000000 1.0
C      1  0.5532130000000  0.5467790000000  0.4698040000000 1.0
C      1  0.5830070000000  0.4628620000000  0.5455040000000 1.0
C      1  0.5625980000000  0.4166710000000  0.5003880000000 1.0
C      1  0.3783730000000  0.4934610000000  0.5809770000000 1.0
C      1  0.5546140000000  0.5456300000000  0.4985820000000 1.0
C      1  0.4308000000000  0.5271580000000  0.4588980000000 1.0
C      1  0.4827950000000  0.4428700000000  0.6306960000000 1.0
C      1  0.4930130000000  0.4671630000000  0.5298260000000 1.0
C      1  0.5062820000000  0.4430320000000  0.5848290000000 1.0
C      1  0.4573390000000  0.4216890000000  0.5160160000000 1.0
C      1  0.4558700000000  0.3732940000000  0.4768370000000 1.0
C      1  0.5572160000000  0.3891930000000  0.5022140000000 1.0
C      1  0.5213740000000  0.5052080000000  0.5307380000000 1.0
C      1  0.4661960000000  0.5694390000000  0.5207830000000 1.0
C      1  0.5297390000000  0.6978920000000  0.3960510000000 1.0
C      1  0.4380890000000  0.4928820000000  0.4215560000000 1.0
C      1  0.4158100000000  0.4247830000000  0.5423080000000 1.0
C      1  0.4875120000000  0.5136410000000  0.4774300000000 1.0
C      1  0.4219290000000  0.5014200000000  0.3707560000000 1.0
C      1  0.5324650000000  0.5077680000000  0.5055390000000 1.0
C      1  0.4546870000000  0.5423000000000  0.4576650000000 1.0
C      1  0.4706590000000  0.4667400000000  0.5455830000000 1.0
C      1  0.4581750000000  0.3905790000000  0.4563740000000 1.0
C      1  0.4612510000000  0.4776180000000  0.4264960000000 1.0
C      1  0.4062280000000  0.4982100000000  0.4875300000000 1.0
C      1  0.5853270000000  0.4301030000000  0.5111420000000 1.0
C      1  0.4710800000000  0.5203200000000  0.5684470000000 1.0
C      1  0.5590280000000  0.5182950000000  0.5061840000000 1.0
C      1  0.5164400000000  0.4702960000000  0.5835860000000 1.0
C      1  0.5277500000000  0.5915220000000  0.4499860000000 1.0
C      1  0.5385330000000  0.6125590000000  0.4351140000000 1.0
C      1  0.5878100000000  0.4349460000000  0.5395010000000 1.0
C      1  0.4311610000000  0.4332060000000  0.5212900000000 1.0
C      1  0.4952810000000  0.4498900000000  0.5073690000000 1.0
C      1  0.4905050000000  0.5662740000000  0.5316340000000 1.0
C      1  0.5487790000000  0.6324890000000  0.4210140000000 1.0
C      1  0.5485880000000  0.4558880000000  0.4734280000000 1.0
C      1  0.5142130000000  0.5094170000000  0.4843770000000 1.0
C      1  0.4179560000000  0.5252490000000  0.4856540000000 1.0
C      1  0.4917060000000  0.5276770000000  0.4293210000000 1.0
C      1  0.4991040000000  0.5170700000000  0.5716000000000 1.0
C      1  0.4607660000000  0.4172480000000  0.4540350000000 1.0
C      1  0.4582280000000  0.4386990000000  0.4720740000000 1.0
C      1  0.5376770000000  0.5487960000000  0.6324040000000 1.0
C      1  0.4763220000000  0.5853240000000  0.4653260000000 1.0
C      1  0.4967970000000  0.3931460000000  0.5280820000000 1.0
C      1  0.5345280000000  0.4726710000000  0.4548130000000 1.0
C      1  0.5438670000000  0.5696600000000  0.4568990000000 1.0
C      1  0.5232670000000  0.5272940000000  0.6267590000000 1.0
C      1  0.5330870000000  0.4718830000000  0.5606890000000 1.0
C      1  0.5554970000000  0.5211880000000  0.4565550000000 1.0
C      1  0.4477590000000  0.5638820000000  0.5002070000000 1.0
C      1  0.4329710000000  0.4506800000000  0.4762580000000 1.0
C      1  0.5080980000000  0.5051940000000  0.6190180000000 1.0
C      1  0.5372150000000  0.5588150000000  0.5174420000000 1.0
C      1  0.5182490000000  0.4331680000000  0.5105430000000 1.0
C      1  0.5903190000000  0.4569080000000  0.4994140000000 1.0
C      1  0.3953060000000  0.4824040000000  0.5324710000000 1.0
C      1  0.5445860000000  0.4980690000000  0.4435420000000 1.0
C      1  0.5149970000000  0.5525250000000  0.5350410000000 1.0
C      1  0.4690590000000  0.3955360000000  0.5201760000000 1.0
C      1  0.5112580000000  0.5187440000000  0.4134790000000 1.0
C      1  0.4686350000000  0.5075020000000  0.4974630000000 1.0
C      1  0.4249210000000  0.5467720000000  0.5027590000000 1.0
C      1  0.4849160000000  0.4680470000000  0.4342580000000 1.0
C      1  0.6105100000000  0.6501290000000  0.3872290000000 1.0
C      1  0.4922550000000  0.4341280000000  0.6072710000000 1.0
C      1  0.5518430000000  0.5700250000000  0.6377250000000 1.0
C      1  0.5607960000000  0.4698690000000  0.5607720000000 1.0
C      1  0.5008610000000  0.5923920000000  0.4578920000000 1.0
C      1  0.5765660000000  0.4615680000000  0.4753780000000 1.0
C      1  0.5807260000000  0.5031810000000  0.5147070000000 1.0
C      1  0.5089240000000  0.4648800000000  0.4455020000000 1.0
C      1  0.5382470000000  0.3716930000000  0.5095600000000 1.0
C      1  0.4574840000000  0.5662320000000  0.4731880000000 1.0
C      1  0.5336320000000  0.5045440000000  0.4180590000000 1.0
C      1  0.6349000000000  0.6485150000000  0.3781660000000 1.0
C      1  0.4235470000000  0.5040790000000  0.4429000000000 1.0
C      1  0.5407250000000  0.4347260000000  0.4928950000000 1.0
C      1  0.5134400000000  0.3717400000000  0.5200540000000 1.0
C      1  0.4048780000000  0.4897610000000  0.4595940000000 1.0
C      1  0.4935060000000  0.4905550000000  0.6379500000000 1.0
C      1  0.5857220000000  0.6517690000000  0.3964400000000 1.0
C      1  0.5141550000000  0.5264420000000  0.5481620000000 1.0
C      1  0.5171000000000  0.4792300000000  0.5387190000000 1.0
C      1  0.5154500000000  0.7191530000000  0.3912130000000 1.0
C      1  0.4075660000000  0.4781180000000  0.5077930000000 1.0
C      1  0.5442620000000  0.6762850000000  0.4009670000000 1.0
C      1  0.4586420000000  0.3750690000000  0.5035620000000 1.0
C      1  0.5075990000000  0.4970620000000  0.5916560000000 1.0
C      1  0.4296510000000  0.4970960000000  0.3952680000000 1.0
END
