TITL C-627106-156-1015 3164.3291333526 125000 -199.286596096077 0 0 35 (C1) n - 1
REM
REM in /home/nfs/bkarasulu/CARBON/AIRSS/Generating-Clusters/LCBOP/Only-C1/SD-CG/FIRE-CG
REM
REM
REM
REM
REM
REM ./C.cell (11c1c37f851c82e70ff6c80c92926a4b)
REM AIRSS Version 0.9.1 bugfix July 2018 build 013d7b7c2542+ Fri, 06 Jul 2018 19:26:36 +0100
REM compiler GCC version 9.2.1 20190827 (Red Hat 9.2.1-1)
REM options -cpp -mtune=generic -march=x86-64 -g -O0 -fpre-include=/usr/include/finclude/math-vector-fortran.h
REM seed 2072974406 -293678820 1552190510 -2081155447 1042879770 1128636769 -711295705 -1891031854 1199638533 -1155999736 158807031 -1367949478 1089927944 -510263219 -595458111 412630546 119294427 -1806514100 846111027 -1341350940 234686327 1678261063 -607711545 1641821284 129864894 1247206497 1329994226 444288528 -377333284 1209096986 -466198230 -2145556832 -1755899274
REM
CELL 1.54180   50.00000   50.00000   50.00000   90.00000   90.00000   90.00000
LATT -1
SFAC C  
C      1  0.4097240000000  0.4262880000000  0.5548560000000 1.0
C      1  0.4893220000000  0.4416120000000  0.4607130000000 1.0
C      1  0.4327810000000  0.5136820000000  0.4945460000000 1.0
C      1  0.4159890000000  0.4980500000000  0.5069280000000 1.0
C      1  0.5313740000000  0.5595510000000  0.4624030000000 1.0
C      1  0.5783810000000  0.5634230000000  0.4736940000000 1.0
C      1  0.5518600000000  0.4825580000000  0.4455460000000 1.0
C      1  0.5320520000000  0.4652530000000  0.4422480000000 1.0
C      1  0.6203690000000  0.5070770000000  0.4459800000000 1.0
C      1  0.5102520000000  0.4510830000000  0.4474660000000 1.0
C      1  0.5061160000000  0.5656860000000  0.4573530000000 1.0
C      1  0.4622330000000  0.5489390000000  0.4681760000000 1.0
C      1  0.4481900000000  0.5308360000000  0.4814730000000 1.0
C      1  0.4312810000000  0.4359180000000  0.5428490000000 1.0
C      1  0.5278320000000  0.5008040000000  0.5180350000000 1.0
C      1  0.5090860000000  0.4922270000000  0.5346880000000 1.0
C      1  0.5678680000000  0.5021800000000  0.4573660000000 1.0
C      1  0.3880920000000  0.4167680000000  0.5668560000000 1.0
C      1  0.4718890000000  0.4377000000000  0.4803060000000 1.0
C      1  0.5950230000000  0.5039990000000  0.4512040000000 1.0
C      1  0.3667750000000  0.4074830000000  0.5786480000000 1.0
C      1  0.5441090000000  0.5101040000000  0.4993020000000 1.0
C      1  0.6014690000000  0.5762200000000  0.4759440000000 1.0
C      1  0.4884800000000  0.4842210000000  0.5517880000000 1.0
C      1  0.4849760000000  0.5052770000000  0.6018510000000 1.0
C      1  0.4697290000000  0.4653840000000  0.5432180000000 1.0
C      1  0.4834090000000  0.5152420000000  0.6258900000000 1.0
C      1  0.5561300000000  0.5200440000000  0.4761100000000 1.0
C      1  0.4866340000000  0.4950670000000  0.5774590000000 1.0
C      1  0.5553890000000  0.5479070000000  0.4706300000000 1.0
C      1  0.4783250000000  0.5675680000000  0.4549010000000 1.0
C      1  0.4670460000000  0.5873330000000  0.4397360000000 1.0
C      1  0.4597930000000  0.4394030000000  0.5038250000000 1.0
C      1  0.4535380000000  0.4468270000000  0.5300260000000 1.0
C      1  0.6244870000000  0.5882870000000  0.4779850000000 1.0
END
