TITL C-627107-135-347 27.1432232432175 125000 -163.593212610171 0 0 29 (C1) n - 1
REM
REM in /home/nfs/bkarasulu/CARBON/AIRSS/Generating-Clusters/LCBOP/Only-C1/SD-CG/FIRE-CG
REM
REM
REM
REM
REM
REM ./C.cell (11c1c37f851c82e70ff6c80c92926a4b)
REM AIRSS Version 0.9.1 bugfix July 2018 build 013d7b7c2542+ Fri, 06 Jul 2018 19:26:36 +0100
REM compiler GCC version 9.2.1 20190827 (Red Hat 9.2.1-1)
REM options -cpp -mtune=generic -march=x86-64 -g -O0 -fpre-include=/usr/include/finclude/math-vector-fortran.h
REM seed 1471210085 1257667761 -885825255 -1183422196 -57167223 578829973 804514897 780421025 -1353345388 -1495875531 -588212399 1194588133 55677658 -1069646581 -1627843185 -719090024 -1645115813 910161657 -331842312 967967267 -1037160136 -620202054 -2140797592 1384716303 -247407118 -1437927553 -1033267708 -1188951431 494381318 1233579040 263678745 -515510369 944397300
REM
CELL 1.54180   50.00000   50.00000   50.00000   90.00000   90.00000   90.00000
LATT -1
SFAC C  
C      1  0.5047310000000  0.4916580000000  0.5375780000000 1.0
C      1  0.4886190000000  0.4801590000000  0.6071370000000 1.0
C      1  0.4718160000000  0.5470570000000  0.5117810000000 1.0
C      1  0.4417500000000  0.5380040000000  0.4062050000000 1.0
C      1  0.5028100000000  0.4918720000000  0.5097690000000 1.0
C      1  0.4644230000000  0.4549170000000  0.4777100000000 1.0
C      1  0.5355380000000  0.4719390000000  0.4204520000000 1.0
C      1  0.5426850000000  0.4734880000000  0.4460590000000 1.0
C      1  0.5068180000000  0.4937860000000  0.5919300000000 1.0
C      1  0.4680560000000  0.5262180000000  0.4948940000000 1.0
C      1  0.5456590000000  0.5238300000000  0.6154550000000 1.0
C      1  0.4549410000000  0.4954140000000  0.4300750000000 1.0
C      1  0.4787930000000  0.4992480000000  0.4970270000000 1.0
C      1  0.4569510000000  0.5157170000000  0.4090120000000 1.0
C      1  0.4896160000000  0.4814800000000  0.3997850000000 1.0
C      1  0.5246700000000  0.4845190000000  0.4937980000000 1.0
C      1  0.4530120000000  0.5000990000000  0.4574890000000 1.0
C      1  0.5163970000000  0.4745210000000  0.4020320000000 1.0
C      1  0.4706580000000  0.4730700000000  0.4201720000000 1.0
C      1  0.5646170000000  0.5384790000000  0.6267780000000 1.0
C      1  0.5382670000000  0.4781110000000  0.4718780000000 1.0
C      1  0.5835820000000  0.5531300000000  0.6381050000000 1.0
C      1  0.4646770000000  0.4288630000000  0.4781600000000 1.0
C      1  0.5057300000000  0.4924740000000  0.5640220000000 1.0
C      1  0.5267200000000  0.5091880000000  0.6041160000000 1.0
C      1  0.4522550000000  0.5258060000000  0.4707060000000 1.0
C      1  0.6022350000000  0.5675370000000  0.6492470000000 1.0
C      1  0.4657200000000  0.4825670000000  0.4771930000000 1.0
C      1  0.4782540000000  0.5068480000000  0.3914310000000 1.0
END
