TITL C-627113-6568-1463 6.68533214472286e-07 125000 -490.702584270966 0 0 81 (C1) n - 1
REM
REM in /home/nfs/bkarasulu/CARBON/AIRSS/Generating-Clusters/LCBOP/Only-C1/SD-CG/FIRE-CG
REM
REM
REM
REM
REM
REM ./C.cell (11c1c37f851c82e70ff6c80c92926a4b)
REM AIRSS Version 0.9.1 bugfix July 2018 build 013d7b7c2542+ Fri, 06 Jul 2018 19:26:36 +0100
REM compiler GCC version 9.2.1 20190827 (Red Hat 9.2.1-1)
REM options -cpp -mtune=generic -march=x86-64 -g -O0 -fpre-include=/usr/include/finclude/math-vector-fortran.h
REM seed 479667615 500867193 -2115276334 -1963217708 1630754026 -1582868472 29848502 921747795 1675019536 1197412575 1613929566 594135308 2084035986 -500546659 -640797318 1877074220 -641528475 1554869001 -1263909397 -1333211097 1069623125 -389156509 -660714693 -1967453373 -1382754312 -1510781154 -390861781 -2037984574 228649065 -1580828404 -782913404 -807194810 -602479333
REM
CELL 1.54180   50.00000   50.00000   50.00000   90.00000   90.00000   90.00000
LATT -1
SFAC C  
C      1  0.4521800000000  0.5643720000000  0.4828190000000 1.0
C      1  0.3978260000000  0.5243380000000  0.4534510000000 1.0
C      1  0.4752710000000  0.5135600000000  0.4319640000000 1.0
C      1  0.4398200000000  0.5477360000000  0.5658390000000 1.0
C      1  0.5188130000000  0.5012140000000  0.4622860000000 1.0
C      1  0.4629490000000  0.5732210000000  0.5328690000000 1.0
C      1  0.5398130000000  0.5407830000000  0.4486590000000 1.0
C      1  0.4286050000000  0.4123390000000  0.5279760000000 1.0
C      1  0.4863720000000  0.4364600000000  0.5886320000000 1.0
C      1  0.5462810000000  0.5583260000000  0.4968610000000 1.0
C      1  0.6197590000000  0.5069980000000  0.5151580000000 1.0
C      1  0.4788750000000  0.5767830000000  0.4430370000000 1.0
C      1  0.5211990000000  0.5547760000000  0.5110480000000 1.0
C      1  0.5338690000000  0.5473290000000  0.5550190000000 1.0
C      1  0.4416180000000  0.5422110000000  0.4668250000000 1.0
C      1  0.4929570000000  0.5084290000000  0.5062400000000 1.0
C      1  0.4794960000000  0.4360450000000  0.6137480000000 1.0
C      1  0.5478870000000  0.4931320000000  0.4996930000000 1.0
C      1  0.4765040000000  0.4184870000000  0.5432530000000 1.0
C      1  0.5906140000000  0.4558180000000  0.4736800000000 1.0
C      1  0.5899410000000  0.4456090000000  0.5003440000000 1.0
C      1  0.5167300000000  0.5469460000000  0.4314160000000 1.0
C      1  0.4881840000000  0.5600260000000  0.5736370000000 1.0
C      1  0.4937820000000  0.4376810000000  0.5597840000000 1.0
C      1  0.5073070000000  0.5785520000000  0.5156880000000 1.0
C      1  0.5115320000000  0.6048830000000  0.4744320000000 1.0
C      1  0.5217380000000  0.4251970000000  0.5561060000000 1.0
C      1  0.4322150000000  0.4677260000000  0.5012540000000 1.0
C      1  0.5404950000000  0.4091790000000  0.5450510000000 1.0
C      1  0.4850980000000  0.5886440000000  0.5261230000000 1.0
C      1  0.5364300000000  0.4668820000000  0.4998060000000 1.0
C      1  0.4488530000000  0.4139990000000  0.5455600000000 1.0
C      1  0.4871480000000  0.4674650000000  0.4455550000000 1.0
C      1  0.4205950000000  0.5427960000000  0.5473860000000 1.0
C      1  0.4844940000000  0.6047140000000  0.4794850000000 1.0
C      1  0.5066950000000  0.5725470000000  0.4391230000000 1.0
C      1  0.4774620000000  0.4447510000000  0.4607880000000 1.0
C      1  0.5660030000000  0.4964490000000  0.4505160000000 1.0
C      1  0.4980460000000  0.5277290000000  0.4227070000000 1.0
C      1  0.5126500000000  0.4745080000000  0.4573560000000 1.0
C      1  0.5059050000000  0.5110590000000  0.5311260000000 1.0
C      1  0.4896030000000  0.4669290000000  0.5498780000000 1.0
C      1  0.5150890000000  0.5564290000000  0.5741720000000 1.0
C      1  0.4146970000000  0.5341810000000  0.4724490000000 1.0
C      1  0.4887730000000  0.4078760000000  0.5201560000000 1.0
C      1  0.5193890000000  0.4566860000000  0.4794170000000 1.0
C      1  0.5592580000000  0.5572910000000  0.5452720000000 1.0
C      1  0.4459000000000  0.5638600000000  0.5115340000000 1.0
C      1  0.4635440000000  0.4735700000000  0.5410380000000 1.0
C      1  0.4566560000000  0.5274430000000  0.4481030000000 1.0
C      1  0.4732870000000  0.4851490000000  0.4283150000000 1.0
C      1  0.5590690000000  0.4068970000000  0.5251710000000 1.0
C      1  0.4071210000000  0.5376280000000  0.4993520000000 1.0
C      1  0.5428880000000  0.5625500000000  0.4687370000000 1.0
C      1  0.5566990000000  0.4767020000000  0.5603850000000 1.0
C      1  0.5431930000000  0.5130840000000  0.4533630000000 1.0
C      1  0.5084520000000  0.4888050000000  0.5494910000000 1.0
C      1  0.5203240000000  0.5354000000000  0.5325840000000 1.0
C      1  0.5242550000000  0.5840280000000  0.4598480000000 1.0
C      1  0.4576020000000  0.4750690000000  0.4075330000000 1.0
C      1  0.4224990000000  0.5488050000000  0.5198880000000 1.0
C      1  0.5674780000000  0.4639400000000  0.5381970000000 1.0
C      1  0.4680860000000  0.5837970000000  0.4687920000000 1.0
C      1  0.4971950000000  0.4147440000000  0.4959320000000 1.0
C      1  0.4506460000000  0.4396320000000  0.4668250000000 1.0
C      1  0.5321090000000  0.4865050000000  0.5645300000000 1.0
C      1  0.4443230000000  0.4773270000000  0.5230420000000 1.0
C      1  0.4260780000000  0.4550830000000  0.3705280000000 1.0
C      1  0.5716560000000  0.5052010000000  0.5046010000000 1.0
C      1  0.5014010000000  0.5128150000000  0.4811770000000 1.0
C      1  0.4988890000000  0.4363390000000  0.4787520000000 1.0
C      1  0.5656380000000  0.5607260000000  0.5183890000000 1.0
C      1  0.5493230000000  0.4506940000000  0.5188870000000 1.0
C      1  0.4322900000000  0.4428970000000  0.4878610000000 1.0
C      1  0.5918740000000  0.4667560000000  0.5219000000000 1.0
C      1  0.4417720000000  0.4650220000000  0.3888180000000 1.0
C      1  0.4637550000000  0.5611810000000  0.5592340000000 1.0
C      1  0.5670320000000  0.4289630000000  0.5091380000000 1.0
C      1  0.5812480000000  0.4751770000000  0.4572510000000 1.0
C      1  0.5960070000000  0.4938950000000  0.5139030000000 1.0
C      1  0.4228900000000  0.4212280000000  0.5032590000000 1.0
END
