TITL C-627113-6568-1139 4.09796339027472e-08 125000 -1200.96232231013 0 0 195 (C1) n - 1
REM
REM in /home/nfs/bkarasulu/CARBON/AIRSS/Generating-Clusters/LCBOP/Only-C1/SD-CG/FIRE-CG
REM
REM
REM
REM
REM
REM ./C.cell (11c1c37f851c82e70ff6c80c92926a4b)
REM AIRSS Version 0.9.1 bugfix July 2018 build 013d7b7c2542+ Fri, 06 Jul 2018 19:26:36 +0100
REM compiler GCC version 9.2.1 20190827 (Red Hat 9.2.1-1)
REM options -cpp -mtune=generic -march=x86-64 -g -O0 -fpre-include=/usr/include/finclude/math-vector-fortran.h
REM seed -112169516 729755006 -1637804448 -1189220473 -2030104347 -1901371128 926817165 1023031085 -2030982000 1667540781 -1294296731 -498352144 318747982 -373009720 -510805354 -2142278768 1864625487 1052388546 606631225 -2144618061 -2080956072 1190263657 -1743600231 776368502 532903859 1373789594 -335478920 216214799 922191916 1512701391 1102783431 -870011816 954546013
REM
CELL 1.54180   50.00000   50.00000   50.00000   90.00000   90.00000   90.00000
LATT -1
SFAC C  
C      1  0.4619330000000  0.6255900000000  0.4567640000000 1.0
C      1  0.4471580000000  0.5872880000000  0.3875370000000 1.0
C      1  0.5069080000000  0.4005830000000  0.5397200000000 1.0
C      1  0.4775580000000  0.5217040000000  0.3835610000000 1.0
C      1  0.5701940000000  0.4370070000000  0.4247300000000 1.0
C      1  0.4470420000000  0.4918860000000  0.4069260000000 1.0
C      1  0.4184790000000  0.5249030000000  0.5792970000000 1.0
C      1  0.6065360000000  0.5383420000000  0.5859010000000 1.0
C      1  0.4176240000000  0.4491440000000  0.5297150000000 1.0
C      1  0.5327350000000  0.3939190000000  0.5283520000000 1.0
C      1  0.5003190000000  0.4460200000000  0.5976540000000 1.0
C      1  0.5000350000000  0.4411900000000  0.4139210000000 1.0
C      1  0.4540110000000  0.4932490000000  0.4346180000000 1.0
C      1  0.5859610000000  0.4594670000000  0.5519150000000 1.0
C      1  0.4658970000000  0.5803810000000  0.4057050000000 1.0
C      1  0.5257250000000  0.4366340000000  0.4028110000000 1.0
C      1  0.5910560000000  0.4729220000000  0.4816400000000 1.0
C      1  0.4971190000000  0.5040690000000  0.3704990000000 1.0
C      1  0.4757020000000  0.6463850000000  0.5294890000000 1.0
C      1  0.5587420000000  0.5074890000000  0.5209740000000 1.0
C      1  0.5470040000000  0.4860670000000  0.3828880000000 1.0
C      1  0.4988250000000  0.6096250000000  0.4204250000000 1.0
C      1  0.4042060000000  0.5258650000000  0.4772010000000 1.0
C      1  0.4336540000000  0.5904870000000  0.5356870000000 1.0
C      1  0.4135880000000  0.5537270000000  0.4722970000000 1.0
C      1  0.4752640000000  0.6038260000000  0.5616790000000 1.0
C      1  0.5225120000000  0.4939430000000  0.3735650000000 1.0
C      1  0.5550370000000  0.4496750000000  0.4682870000000 1.0
C      1  0.5918070000000  0.5901560000000  0.5642360000000 1.0
C      1  0.4736060000000  0.4178860000000  0.5715400000000 1.0
C      1  0.4861220000000  0.3658450000000  0.4778660000000 1.0
C      1  0.5786940000000  0.5187310000000  0.4409270000000 1.0
C      1  0.4571190000000  0.5450790000000  0.4483440000000 1.0
C      1  0.4881940000000  0.4728850000000  0.4708690000000 1.0
C      1  0.4639890000000  0.5562120000000  0.5586000000000 1.0
C      1  0.4801010000000  0.3946320000000  0.4347110000000 1.0
C      1  0.5824590000000  0.5485310000000  0.5488980000000 1.0
C      1  0.5442090000000  0.4451950000000  0.5686580000000 1.0
C      1  0.3478740000000  0.4438080000000  0.4694290000000 1.0
C      1  0.6011910000000  0.4998650000000  0.4876110000000 1.0
C      1  0.4178900000000  0.6010610000000  0.4628380000000 1.0
C      1  0.4794700000000  0.5218660000000  0.6007120000000 1.0
C      1  0.5456020000000  0.5979590000000  0.5400750000000 1.0
C      1  0.4552260000000  0.4670230000000  0.6277790000000 1.0
C      1  0.4605910000000  0.4769890000000  0.5353980000000 1.0
C      1  0.6071760000000  0.4638390000000  0.4337230000000 1.0
C      1  0.5056490000000  0.5358490000000  0.5618180000000 1.0
C      1  0.4556270000000  0.5118620000000  0.6112770000000 1.0
C      1  0.4189150000000  0.5806800000000  0.4833940000000 1.0
C      1  0.6193460000000  0.5195100000000  0.5672320000000 1.0
C      1  0.5885910000000  0.5681860000000  0.4369780000000 1.0
C      1  0.4683230000000  0.5174220000000  0.4404010000000 1.0
C      1  0.5394870000000  0.5865710000000  0.4878460000000 1.0
C      1  0.5859400000000  0.5151500000000  0.6045310000000 1.0
C      1  0.4573510000000  0.4936920000000  0.6331960000000 1.0
C      1  0.6107640000000  0.4310480000000  0.4846060000000 1.0
C      1  0.5779790000000  0.5868750000000  0.4535170000000 1.0
C      1  0.4106890000000  0.5997540000000  0.5476930000000 1.0
C      1  0.3913720000000  0.4859850000000  0.4499980000000 1.0
C      1  0.6296970000000  0.5007740000000  0.4974950000000 1.0
C      1  0.3893060000000  0.4812260000000  0.5562590000000 1.0
C      1  0.5074120000000  0.4253410000000  0.4767400000000 1.0
C      1  0.5358010000000  0.4071560000000  0.4380910000000 1.0
C      1  0.4515860000000  0.4473390000000  0.4137600000000 1.0
C      1  0.5747920000000  0.4369100000000  0.4530430000000 1.0
C      1  0.5082980000000  0.4533020000000  0.4686800000000 1.0
C      1  0.4026060000000  0.4075050000000  0.4969820000000 1.0
C      1  0.5894390000000  0.5851710000000  0.5002880000000 1.0
C      1  0.4826210000000  0.5853320000000  0.5013480000000 1.0
C      1  0.5081510000000  0.4910550000000  0.4278960000000 1.0
C      1  0.3224640000000  0.4427710000000  0.4637410000000 1.0
C      1  0.4635080000000  0.5667500000000  0.4300240000000 1.0
C      1  0.6393430000000  0.5122040000000  0.5202480000000 1.0
C      1  0.6237100000000  0.5268490000000  0.5390280000000 1.0
C      1  0.5460510000000  0.4241880000000  0.4177790000000 1.0
C      1  0.4934180000000  0.4665740000000  0.4238360000000 1.0
C      1  0.5967370000000  0.5622210000000  0.5707420000000 1.0
C      1  0.4274300000000  0.5483220000000  0.4474410000000 1.0
C      1  0.4886830000000  0.4193040000000  0.4983430000000 1.0
C      1  0.4630250000000  0.4677130000000  0.4450720000000 1.0
C      1  0.6016600000000  0.4510290000000  0.4620950000000 1.0
C      1  0.5711370000000  0.4581660000000  0.5774500000000 1.0
C      1  0.4798730000000  0.4565990000000  0.5279340000000 1.0
C      1  0.5566810000000  0.5398320000000  0.4826530000000 1.0
C      1  0.4956370000000  0.5963500000000  0.5796600000000 1.0
C      1  0.4355450000000  0.6171500000000  0.4499920000000 1.0
C      1  0.4432710000000  0.4540810000000  0.4625360000000 1.0
C      1  0.4795740000000  0.3757830000000  0.4537630000000 1.0
C      1  0.5594700000000  0.5243670000000  0.6071770000000 1.0
C      1  0.5682680000000  0.5899300000000  0.4801290000000 1.0
C      1  0.4716220000000  0.4412240000000  0.5897240000000 1.0
C      1  0.5400630000000  0.5319640000000  0.4615090000000 1.0
C      1  0.4937920000000  0.5350300000000  0.4041590000000 1.0
C      1  0.4489940000000  0.5161770000000  0.3916970000000 1.0
C      1  0.5075960000000  0.5603380000000  0.4065170000000 1.0
C      1  0.4227050000000  0.5121430000000  0.4944590000000 1.0
C      1  0.5785670000000  0.5440150000000  0.4255230000000 1.0
C      1  0.6064540000000  0.4942850000000  0.5705460000000 1.0
C      1  0.6006520000000  0.4443900000000  0.5335030000000 1.0
C      1  0.4838660000000  0.6231540000000  0.4387520000000 1.0
C      1  0.4940180000000  0.5858990000000  0.4051900000000 1.0
C      1  0.4004460000000  0.5031200000000  0.5412070000000 1.0
C      1  0.3937170000000  0.4593760000000  0.4590350000000 1.0
C      1  0.4355080000000  0.5902800000000  0.5065440000000 1.0
C      1  0.5845340000000  0.4600400000000  0.4136120000000 1.0
C      1  0.3901940000000  0.4485990000000  0.5207050000000 1.0
C      1  0.5982300000000  0.4272690000000  0.5111030000000 1.0
C      1  0.5354820000000  0.5937010000000  0.5154530000000 1.0
C      1  0.5384730000000  0.5058410000000  0.6117170000000 1.0
C      1  0.5266710000000  0.4063730000000  0.4647800000000 1.0
C      1  0.5017370000000  0.4143580000000  0.5637080000000 1.0
C      1  0.5384310000000  0.4911020000000  0.5105870000000 1.0
C      1  0.4340210000000  0.5059340000000  0.5933100000000 1.0
C      1  0.5013920000000  0.5188820000000  0.5837620000000 1.0
C      1  0.4303580000000  0.4775230000000  0.5885490000000 1.0
C      1  0.4699660000000  0.5070540000000  0.5031780000000 1.0
C      1  0.4897620000000  0.3967760000000  0.5159190000000 1.0
C      1  0.5363480000000  0.5652370000000  0.5911760000000 1.0
C      1  0.4058930000000  0.4679060000000  0.5769960000000 1.0
C      1  0.4684200000000  0.5048410000000  0.5329790000000 1.0
C      1  0.5386160000000  0.3861670000000  0.4806850000000 1.0
C      1  0.4430900000000  0.5419190000000  0.5224480000000 1.0
C      1  0.5894680000000  0.4872890000000  0.5935960000000 1.0
C      1  0.5176250000000  0.5714540000000  0.4722370000000 1.0
C      1  0.5692550000000  0.4763210000000  0.3955120000000 1.0
C      1  0.4754150000000  0.6295580000000  0.5502980000000 1.0
C      1  0.5506170000000  0.5095300000000  0.4463510000000 1.0
C      1  0.4196270000000  0.4306380000000  0.5510320000000 1.0
C      1  0.5521960000000  0.5427020000000  0.5861100000000 1.0
C      1  0.5378640000000  0.4929140000000  0.5656170000000 1.0
C      1  0.4713590000000  0.4400420000000  0.5061530000000 1.0
C      1  0.5614970000000  0.5335280000000  0.5601970000000 1.0
C      1  0.4150560000000  0.4166980000000  0.4483940000000 1.0
C      1  0.4568600000000  0.5836110000000  0.5526040000000 1.0
C      1  0.5134040000000  0.5301220000000  0.5123820000000 1.0
C      1  0.5773570000000  0.4081540000000  0.5155270000000 1.0
C      1  0.4911490000000  0.4942560000000  0.4894200000000 1.0
C      1  0.5266520000000  0.5544310000000  0.4507760000000 1.0
C      1  0.6030900000000  0.6023780000000  0.5178790000000 1.0
C      1  0.4172430000000  0.4956070000000  0.5182510000000 1.0
C      1  0.4541540000000  0.4016430000000  0.5585680000000 1.0
C      1  0.4653740000000  0.6266990000000  0.4851280000000 1.0
C      1  0.4865690000000  0.4173070000000  0.4219370000000 1.0
C      1  0.4183540000000  0.3971080000000  0.5190880000000 1.0
C      1  0.4075170000000  0.5276260000000  0.5532880000000 1.0
C      1  0.5840210000000  0.3816170000000  0.5124640000000 1.0
C      1  0.4219320000000  0.4104360000000  0.4219390000000 1.0
C      1  0.5073770000000  0.4530690000000  0.5347770000000 1.0
C      1  0.5984500000000  0.5387320000000  0.5254930000000 1.0
C      1  0.4068070000000  0.4395000000000  0.5742650000000 1.0
C      1  0.5852590000000  0.5129490000000  0.5118260000000 1.0
C      1  0.5642860000000  0.5974490000000  0.5596550000000 1.0
C      1  0.3993340000000  0.5130480000000  0.4501380000000 1.0
C      1  0.5226310000000  0.5005530000000  0.5885670000000 1.0
C      1  0.5164410000000  0.5829520000000  0.5896140000000 1.0
C      1  0.3749900000000  0.4450780000000  0.4754920000000 1.0
C      1  0.6084670000000  0.6021750000000  0.5444780000000 1.0
C      1  0.4987330000000  0.3728490000000  0.5019790000000 1.0
C      1  0.5965600000000  0.5574430000000  0.5017380000000 1.0
C      1  0.4136960000000  0.5299150000000  0.4295670000000 1.0
C      1  0.5304400000000  0.5582240000000  0.4226150000000 1.0
C      1  0.4331240000000  0.4725560000000  0.5262680000000 1.0
C      1  0.5278590000000  0.3765430000000  0.5048340000000 1.0
C      1  0.4904090000000  0.5657030000000  0.4827410000000 1.0
C      1  0.4251680000000  0.5302630000000  0.4024770000000 1.0
C      1  0.3742680000000  0.4635720000000  0.5388660000000 1.0
C      1  0.4509540000000  0.4589360000000  0.6003400000000 1.0
C      1  0.4374260000000  0.4269500000000  0.4072800000000 1.0
C      1  0.5083220000000  0.4556960000000  0.6218950000000 1.0
C      1  0.4673840000000  0.5473110000000  0.4768800000000 1.0
C      1  0.5513710000000  0.4154890000000  0.5265110000000 1.0
C      1  0.5948720000000  0.5200010000000  0.4653190000000 1.0
C      1  0.5547060000000  0.5492730000000  0.4110930000000 1.0
C      1  0.4513610000000  0.4468730000000  0.4882370000000 1.0
C      1  0.5611380000000  0.5046080000000  0.5505120000000 1.0
C      1  0.5329190000000  0.4875130000000  0.4425540000000 1.0
C      1  0.5328920000000  0.4631510000000  0.4582320000000 1.0
C      1  0.4940400000000  0.5167570000000  0.4269530000000 1.0
C      1  0.4177160000000  0.4448470000000  0.4545320000000 1.0
C      1  0.3860110000000  0.4318060000000  0.4986030000000 1.0
C      1  0.5389450000000  0.4450240000000  0.5343470000000 1.0
C      1  0.5191340000000  0.4337970000000  0.5787420000000 1.0
C      1  0.5115530000000  0.5413600000000  0.5364640000000 1.0
C      1  0.4090800000000  0.4001470000000  0.4703150000000 1.0
C      1  0.4174490000000  0.5460420000000  0.5341680000000 1.0
C      1  0.4724430000000  0.6473320000000  0.5027710000000 1.0
C      1  0.5878660000000  0.4879530000000  0.5499790000000 1.0
C      1  0.5847610000000  0.5426570000000  0.4804920000000 1.0
C      1  0.4305860000000  0.4060250000000  0.5435810000000 1.0
C      1  0.5156120000000  0.5040680000000  0.5011460000000 1.0
C      1  0.5662390000000  0.4609570000000  0.4915900000000 1.0
C      1  0.4605070000000  0.6018400000000  0.4982640000000 1.0
C      1  0.5482340000000  0.4646420000000  0.5123970000000 1.0
C      1  0.4617470000000  0.5323790000000  0.5427730000000 1.0
C      1  0.4497880000000  0.5285790000000  0.4961760000000 1.0
END
