TITL C-627106-156-1504 -4.79796664947348e-06 125000 -714.966442430488 0 0 119 (C1) n - 1
REM
REM in /home/nfs/bkarasulu/CARBON/AIRSS/Generating-Clusters/LCBOP/Only-C1/SD-CG/FIRE-CG
REM
REM
REM
REM
REM
REM ./C.cell (11c1c37f851c82e70ff6c80c92926a4b)
REM AIRSS Version 0.9.1 bugfix July 2018 build 013d7b7c2542+ Fri, 06 Jul 2018 19:26:36 +0100
REM compiler GCC version 9.2.1 20190827 (Red Hat 9.2.1-1)
REM options -cpp -mtune=generic -march=x86-64 -g -O0 -fpre-include=/usr/include/finclude/math-vector-fortran.h
REM seed 1788129088 -518904935 -1493313336 2021029263 -965256969 -1837139130 -1585811264 -981854921 -800208456 2032678584 657731316 919812613 -118439106 -530195312 1078516618 1283656148 535265306 -210389888 -1885308625 -1742575671 669385525 -276783783 -416329257 -1981690113 1261728030 -294741244 -772458417 299213892 -1970077128 -1280103600 703579997 -1458868212 -1395758771
REM
CELL 1.54180   50.00000   50.00000   50.00000   90.00000   90.00000   90.00000
LATT -1
SFAC C  
C      1  0.5580250000000  0.5778090000000  0.5106820000000 1.0
C      1  0.3894950000000  0.4888620000000  0.4329670000000 1.0
C      1  0.5355930000000  0.4565590000000  0.4092980000000 1.0
C      1  0.5276400000000  0.4542920000000  0.4742710000000 1.0
C      1  0.4845590000000  0.5501240000000  0.5226110000000 1.0
C      1  0.5107830000000  0.5700790000000  0.4840730000000 1.0
C      1  0.4244030000000  0.4618840000000  0.5306190000000 1.0
C      1  0.6051490000000  0.5124420000000  0.5710550000000 1.0
C      1  0.4437220000000  0.5226340000000  0.4201140000000 1.0
C      1  0.4257740000000  0.4187570000000  0.4825820000000 1.0
C      1  0.4963940000000  0.3995760000000  0.4958540000000 1.0
C      1  0.6019830000000  0.5197410000000  0.5216060000000 1.0
C      1  0.4866060000000  0.5434830000000  0.4135990000000 1.0
C      1  0.4239930000000  0.5531240000000  0.4865460000000 1.0
C      1  0.4552900000000  0.4215150000000  0.5305150000000 1.0
C      1  0.4623660000000  0.4948620000000  0.5328800000000 1.0
C      1  0.5359400000000  0.4128750000000  0.5402600000000 1.0
C      1  0.4778820000000  0.4901640000000  0.4145500000000 1.0
C      1  0.4945950000000  0.5146840000000  0.5713740000000 1.0
C      1  0.4662130000000  0.5903420000000  0.5836750000000 1.0
C      1  0.5383890000000  0.5334000000000  0.5707000000000 1.0
C      1  0.5622250000000  0.6027260000000  0.5513310000000 1.0
C      1  0.5602030000000  0.4121410000000  0.5551360000000 1.0
C      1  0.4023860000000  0.5151590000000  0.5199770000000 1.0
C      1  0.5920180000000  0.5373250000000  0.4782520000000 1.0
C      1  0.5786850000000  0.5498780000000  0.5482160000000 1.0
C      1  0.4685880000000  0.6091000000000  0.5339560000000 1.0
C      1  0.4603590000000  0.5081820000000  0.5072860000000 1.0
C      1  0.4438960000000  0.4764890000000  0.5443740000000 1.0
C      1  0.4569670000000  0.4647040000000  0.5878960000000 1.0
C      1  0.5607780000000  0.5261010000000  0.4438120000000 1.0
C      1  0.4947420000000  0.5921450000000  0.4919710000000 1.0
C      1  0.5141410000000  0.4599130000000  0.4255910000000 1.0
C      1  0.4416700000000  0.4255070000000  0.4584620000000 1.0
C      1  0.4298070000000  0.4605690000000  0.5025590000000 1.0
C      1  0.4771620000000  0.5985380000000  0.5587710000000 1.0
C      1  0.4393210000000  0.4810630000000  0.5723480000000 1.0
C      1  0.4739910000000  0.4152100000000  0.4874820000000 1.0
C      1  0.6081740000000  0.4896340000000  0.5843100000000 1.0
C      1  0.4452400000000  0.4880770000000  0.4577960000000 1.0
C      1  0.5391120000000  0.5576640000000  0.4029720000000 1.0
C      1  0.4801210000000  0.4511700000000  0.4875560000000 1.0
C      1  0.4783940000000  0.6054860000000  0.5088490000000 1.0
C      1  0.5501710000000  0.5834150000000  0.5684500000000 1.0
C      1  0.4473640000000  0.4149530000000  0.5034400000000 1.0
C      1  0.5051080000000  0.5174500000000  0.4723710000000 1.0
C      1  0.5798980000000  0.4214840000000  0.5702650000000 1.0
C      1  0.3963390000000  0.4694300000000  0.5323660000000 1.0
C      1  0.5442380000000  0.5085710000000  0.5571400000000 1.0
C      1  0.6051360000000  0.5150050000000  0.4644730000000 1.0
C      1  0.4684760000000  0.5346470000000  0.5083940000000 1.0
C      1  0.6049710000000  0.5219960000000  0.4357750000000 1.0
C      1  0.5966930000000  0.5271510000000  0.5491990000000 1.0
C      1  0.5148510000000  0.5419070000000  0.4076480000000 1.0
C      1  0.4998850000000  0.4843180000000  0.4323610000000 1.0
C      1  0.4564950000000  0.4647630000000  0.4938550000000 1.0
C      1  0.5228180000000  0.4699980000000  0.5348480000000 1.0
C      1  0.4657380000000  0.5627960000000  0.4244100000000 1.0
C      1  0.5268770000000  0.5171690000000  0.4910950000000 1.0
C      1  0.4034770000000  0.5105080000000  0.4415010000000 1.0
C      1  0.4501150000000  0.4522500000000  0.4522670000000 1.0
C      1  0.4967500000000  0.4300440000000  0.5758420000000 1.0
C      1  0.5583140000000  0.6024110000000  0.5243940000000 1.0
C      1  0.4283230000000  0.4636230000000  0.4163450000000 1.0
C      1  0.4103110000000  0.5363480000000  0.5027070000000 1.0
C      1  0.5373600000000  0.5650160000000  0.4952480000000 1.0
C      1  0.5012750000000  0.5637530000000  0.5379550000000 1.0
C      1  0.5961420000000  0.5431460000000  0.5051360000000 1.0
C      1  0.4418070000000  0.5658660000000  0.4707080000000 1.0
C      1  0.4776120000000  0.4467100000000  0.5861900000000 1.0
C      1  0.4403990000000  0.5506480000000  0.4148680000000 1.0
C      1  0.5403680000000  0.4106560000000  0.5109390000000 1.0
C      1  0.4988410000000  0.4383240000000  0.4379050000000 1.0
C      1  0.4710650000000  0.5173250000000  0.4124800000000 1.0
C      1  0.5233710000000  0.5894520000000  0.5733090000000 1.0
C      1  0.4087880000000  0.5154710000000  0.5487870000000 1.0
C      1  0.5662360000000  0.5522540000000  0.4066160000000 1.0
C      1  0.3938140000000  0.4889340000000  0.5098200000000 1.0
C      1  0.4997420000000  0.4558680000000  0.5329490000000 1.0
C      1  0.5964950000000  0.4915080000000  0.4807990000000 1.0
C      1  0.4429220000000  0.4097840000000  0.5518960000000 1.0
C      1  0.4703870000000  0.4479040000000  0.4321900000000 1.0
C      1  0.5567800000000  0.5554450000000  0.5655930000000 1.0
C      1  0.4982340000000  0.5532130000000  0.5986050000000 1.0
C      1  0.5196740000000  0.4281780000000  0.4658300000000 1.0
C      1  0.5649370000000  0.5360880000000  0.4695620000000 1.0
C      1  0.5695860000000  0.4840720000000  0.5232660000000 1.0
C      1  0.4998710000000  0.4917100000000  0.4606770000000 1.0
C      1  0.5022450000000  0.5851960000000  0.5557120000000 1.0
C      1  0.4318920000000  0.5083970000000  0.4415030000000 1.0
C      1  0.5250910000000  0.5156320000000  0.4125150000000 1.0
C      1  0.5131440000000  0.4177040000000  0.5575640000000 1.0
C      1  0.5923320000000  0.4954570000000  0.5098350000000 1.0
C      1  0.4996290000000  0.5463530000000  0.4699220000000 1.0
C      1  0.4201720000000  0.5032020000000  0.5710150000000 1.0
C      1  0.5455850000000  0.4869030000000  0.5386010000000 1.0
C      1  0.4779100000000  0.4394010000000  0.5333330000000 1.0
C      1  0.4065180000000  0.4725770000000  0.4875800000000 1.0
C      1  0.4041900000000  0.4641760000000  0.4358260000000 1.0
C      1  0.4821320000000  0.5038800000000  0.5506820000000 1.0
C      1  0.5788410000000  0.4723870000000  0.4697200000000 1.0
C      1  0.5450310000000  0.5382720000000  0.4886110000000 1.0
C      1  0.5418720000000  0.5092960000000  0.4324990000000 1.0
C      1  0.5024530000000  0.4679400000000  0.4780620000000 1.0
C      1  0.4642260000000  0.4079200000000  0.4602410000000 1.0
C      1  0.4779420000000  0.5712270000000  0.5993160000000 1.0
C      1  0.5788620000000  0.5602720000000  0.5205770000000 1.0
C      1  0.5952170000000  0.4394360000000  0.5824100000000 1.0
C      1  0.4593500000000  0.4671120000000  0.4118900000000 1.0
C      1  0.4554000000000  0.4923140000000  0.4842380000000 1.0
C      1  0.4000230000000  0.4285850000000  0.4751040000000 1.0
C      1  0.5213840000000  0.4099410000000  0.4889880000000 1.0
C      1  0.5809350000000  0.5348600000000  0.4246590000000 1.0
C      1  0.5669300000000  0.4082370000000  0.5031670000000 1.0
C      1  0.3996590000000  0.4555940000000  0.4644760000000 1.0
C      1  0.5539280000000  0.4628610000000  0.4714350000000 1.0
C      1  0.5117880000000  0.5341730000000  0.5824160000000 1.0
C      1  0.6049000000000  0.4635320000000  0.5879300000000 1.0
C      1  0.4595890000000  0.5716150000000  0.4509620000000 1.0
END
