TITL C-627113-6568-1004 -7.96552135490033e-07 125000 -636.202846362089 0 0 107 (C1) n - 1
REM
REM in /home/nfs/bkarasulu/CARBON/AIRSS/Generating-Clusters/LCBOP/Only-C1/SD-CG/FIRE-CG
REM
REM
REM
REM
REM
REM ./C.cell (11c1c37f851c82e70ff6c80c92926a4b)
REM AIRSS Version 0.9.1 bugfix July 2018 build 013d7b7c2542+ Fri, 06 Jul 2018 19:26:36 +0100
REM compiler GCC version 9.2.1 20190827 (Red Hat 9.2.1-1)
REM options -cpp -mtune=generic -march=x86-64 -g -O0 -fpre-include=/usr/include/finclude/math-vector-fortran.h
REM seed -422830052 -1265484824 -1517996166 -1200410704 -629228204 -831529563 1702546637 -1862550551 -1937848537 -1992424502 1285711566 -1685219140 -366182244 -1266365811 1106060032 -2103400424 1498624882 1909948761 628264298 1602206519 766294543 -1901733771 614621487 -2010059453 805721519 -1440045081 -1903494444 -1443050509 -1046152055 -1953448838 -1098542978 631448151 -602567464
REM
CELL 1.54180   50.00000   50.00000   50.00000   90.00000   90.00000   90.00000
LATT -1
SFAC C  
C      1  0.4045180000000  0.4815150000000  0.4509540000000 1.0
C      1  0.4808920000000  0.4792170000000  0.5345040000000 1.0
C      1  0.4636370000000  0.4195290000000  0.4860330000000 1.0
C      1  0.4908040000000  0.5094960000000  0.3803340000000 1.0
C      1  0.5251760000000  0.4649260000000  0.5836560000000 1.0
C      1  0.5084700000000  0.4208500000000  0.5058880000000 1.0
C      1  0.5175360000000  0.5653580000000  0.5882300000000 1.0
C      1  0.4835300000000  0.4694330000000  0.4690160000000 1.0
C      1  0.4047790000000  0.4640320000000  0.4738930000000 1.0
C      1  0.4125260000000  0.4366510000000  0.5142430000000 1.0
C      1  0.6038320000000  0.4460140000000  0.4530770000000 1.0
C      1  0.5150490000000  0.5433660000000  0.5061790000000 1.0
C      1  0.4180220000000  0.4342630000000  0.5401970000000 1.0
C      1  0.5523160000000  0.4739230000000  0.5381360000000 1.0
C      1  0.6126320000000  0.4914640000000  0.4409670000000 1.0
C      1  0.5114430000000  0.4697560000000  0.4752350000000 1.0
C      1  0.5053840000000  0.4438770000000  0.4361980000000 1.0
C      1  0.6246930000000  0.5107580000000  0.5372180000000 1.0
C      1  0.4490990000000  0.5280900000000  0.5518950000000 1.0
C      1  0.4846510000000  0.5785380000000  0.5528300000000 1.0
C      1  0.4697750000000  0.5355240000000  0.5736130000000 1.0
C      1  0.4505410000000  0.5626370000000  0.5145610000000 1.0
C      1  0.5096980000000  0.4228010000000  0.4556760000000 1.0
C      1  0.4179850000000  0.4431740000000  0.4875890000000 1.0
C      1  0.4245260000000  0.5054800000000  0.5003420000000 1.0
C      1  0.4676260000000  0.5652450000000  0.5731580000000 1.0
C      1  0.4431700000000  0.5115040000000  0.4236510000000 1.0
C      1  0.5777510000000  0.5205740000000  0.5265030000000 1.0
C      1  0.4815890000000  0.4580840000000  0.4428710000000 1.0
C      1  0.5313420000000  0.4349680000000  0.5164210000000 1.0
C      1  0.5251580000000  0.5406880000000  0.5971720000000 1.0
C      1  0.4681750000000  0.5651700000000  0.4639690000000 1.0
C      1  0.4335250000000  0.4369660000000  0.5617140000000 1.0
C      1  0.3989320000000  0.4986710000000  0.4919910000000 1.0
C      1  0.5415950000000  0.5066540000000  0.4237760000000 1.0
C      1  0.5098120000000  0.4468480000000  0.5635420000000 1.0
C      1  0.5327600000000  0.5219190000000  0.5042020000000 1.0
C      1  0.4911240000000  0.5366770000000  0.5192980000000 1.0
C      1  0.4557020000000  0.4453140000000  0.5739560000000 1.0
C      1  0.4776420000000  0.5984210000000  0.5005060000000 1.0
C      1  0.5251620000000  0.4570740000000  0.5369270000000 1.0
C      1  0.5202280000000  0.4978470000000  0.5107120000000 1.0
C      1  0.5684790000000  0.4688360000000  0.5103500000000 1.0
C      1  0.5638620000000  0.5036950000000  0.4664360000000 1.0
C      1  0.5571420000000  0.4384470000000  0.5036920000000 1.0
C      1  0.5027680000000  0.4180700000000  0.5532970000000 1.0
C      1  0.5136260000000  0.5808010000000  0.4760510000000 1.0
C      1  0.4250590000000  0.4816410000000  0.4312410000000 1.0
C      1  0.5970800000000  0.4797710000000  0.5103660000000 1.0
C      1  0.5247870000000  0.5689880000000  0.4990760000000 1.0
C      1  0.4869930000000  0.5238390000000  0.4653670000000 1.0
C      1  0.5128480000000  0.5755110000000  0.5615340000000 1.0
C      1  0.5801890000000  0.4355420000000  0.4594450000000 1.0
C      1  0.4857170000000  0.5857690000000  0.4755610000000 1.0
C      1  0.4643350000000  0.4842480000000  0.4837130000000 1.0
C      1  0.5392090000000  0.5819560000000  0.5197700000000 1.0
C      1  0.4378550000000  0.5272960000000  0.4805990000000 1.0
C      1  0.4392300000000  0.5696550000000  0.5739590000000 1.0
C      1  0.5452780000000  0.6296180000000  0.5180230000000 1.0
C      1  0.5322130000000  0.4928430000000  0.5794840000000 1.0
C      1  0.4265340000000  0.5521950000000  0.5549500000000 1.0
C      1  0.5366010000000  0.4164240000000  0.4609950000000 1.0
C      1  0.4538490000000  0.4843730000000  0.5320550000000 1.0
C      1  0.4348180000000  0.4338590000000  0.4447540000000 1.0
C      1  0.5519630000000  0.5481880000000  0.5543410000000 1.0
C      1  0.4159080000000  0.5281620000000  0.4590760000000 1.0
C      1  0.4881350000000  0.5101240000000  0.3544200000000 1.0
C      1  0.6145850000000  0.4709490000000  0.4603480000000 1.0
C      1  0.4932230000000  0.5080790000000  0.4085320000000 1.0
C      1  0.5387840000000  0.4640890000000  0.4709730000000 1.0
C      1  0.4712740000000  0.5220810000000  0.4230510000000 1.0
C      1  0.5070830000000  0.4784500000000  0.5258760000000 1.0
C      1  0.5159470000000  0.5150440000000  0.5886380000000 1.0
C      1  0.4932570000000  0.4206210000000  0.4796710000000 1.0
C      1  0.3969650000000  0.5072420000000  0.4641950000000 1.0
C      1  0.4192590000000  0.4918650000000  0.5667430000000 1.0
C      1  0.6142120000000  0.4756240000000  0.4881860000000 1.0
C      1  0.5540860000000  0.4370680000000  0.4730150000000 1.0
C      1  0.5512100000000  0.4965290000000  0.5578360000000 1.0
C      1  0.6472630000000  0.5170590000000  0.5486190000000 1.0
C      1  0.4243330000000  0.5633370000000  0.5288720000000 1.0
C      1  0.4486850000000  0.5555530000000  0.4848330000000 1.0
C      1  0.5656720000000  0.5077680000000  0.4385560000000 1.0
C      1  0.4711420000000  0.5841430000000  0.5251000000000 1.0
C      1  0.4906150000000  0.4126570000000  0.5277110000000 1.0
C      1  0.4645720000000  0.5115420000000  0.4760930000000 1.0
C      1  0.5172530000000  0.4930120000000  0.4176580000000 1.0
C      1  0.4640960000000  0.5376910000000  0.5264500000000 1.0
C      1  0.4781760000000  0.5426180000000  0.4451340000000 1.0
C      1  0.5557300000000  0.6044490000000  0.5153440000000 1.0
C      1  0.4447920000000  0.4852250000000  0.5055220000000 1.0
C      1  0.4643640000000  0.4602360000000  0.4213730000000 1.0
C      1  0.5819740000000  0.6007580000000  0.5084480000000 1.0
C      1  0.4393310000000  0.4298370000000  0.4729120000000 1.0
C      1  0.5359020000000  0.5702560000000  0.5454550000000 1.0
C      1  0.4811730000000  0.4533080000000  0.5736950000000 1.0
C      1  0.5573010000000  0.4825930000000  0.4834070000000 1.0
C      1  0.5921540000000  0.5046910000000  0.4291620000000 1.0
C      1  0.5607190000000  0.5265850000000  0.5048380000000 1.0
C      1  0.4882330000000  0.5165630000000  0.5828000000000 1.0
C      1  0.4646170000000  0.4113220000000  0.5146830000000 1.0
C      1  0.5190830000000  0.4637590000000  0.4198650000000 1.0
C      1  0.4246950000000  0.5311640000000  0.4325510000000 1.0
C      1  0.4376850000000  0.4567160000000  0.4275130000000 1.0
C      1  0.5625830000000  0.5220860000000  0.5506460000000 1.0
C      1  0.6005860000000  0.5041000000000  0.5250760000000 1.0
C      1  0.4401030000000  0.5001890000000  0.5512340000000 1.0
END
