TITL C-627112-676-402 0.686500253152134 125000 -1002.57315343944 0 0 164 (C1) n - 1
REM
REM in /home/nfs/bkarasulu/CARBON/AIRSS/Generating-Clusters/LCBOP/Only-C1/SD-CG/FIRE-CG
REM
REM
REM
REM
REM
REM ./C.cell (11c1c37f851c82e70ff6c80c92926a4b)
REM AIRSS Version 0.9.1 bugfix July 2018 build 013d7b7c2542+ Fri, 06 Jul 2018 19:26:36 +0100
REM compiler GCC version 9.2.1 20190827 (Red Hat 9.2.1-1)
REM options -cpp -mtune=generic -march=x86-64 -g -O0 -fpre-include=/usr/include/finclude/math-vector-fortran.h
REM seed 631753997 691575158 -849120402 538889102 -883670866 -1911661796 -1730988413 -1386291459 1315077670 -834862393 -2064037130 -1160597760 -1542967155 -1456710124 569767344 646340364 -1662423267 -1498098129 1243346910 -570943255 1173346677 -1998857148 -574933770 884066885 -1730447991 1018472271 -304926494 -1192605955 -2120133424 -62898357 -483870254 361245109 764687157
REM
CELL 1.54180   50.00000   50.00000   50.00000   90.00000   90.00000   90.00000
LATT -1
SFAC C  
C      1  0.4153510000000  0.3901110000000  0.5233370000000 1.0
C      1  0.4971790000000  0.5499490000000  0.4462480000000 1.0
C      1  0.4799560000000  0.5255090000000  0.4020690000000 1.0
C      1  0.4631430000000  0.5822470000000  0.4845620000000 1.0
C      1  0.5585350000000  0.4756890000000  0.5413860000000 1.0
C      1  0.4653800000000  0.5406110000000  0.5150640000000 1.0
C      1  0.4774680000000  0.5415130000000  0.4657250000000 1.0
C      1  0.5812170000000  0.5367910000000  0.4684020000000 1.0
C      1  0.5073300000000  0.5095370000000  0.4049720000000 1.0
C      1  0.5437630000000  0.4533820000000  0.4752370000000 1.0
C      1  0.4136710000000  0.5554810000000  0.4952550000000 1.0
C      1  0.5022760000000  0.4947560000000  0.4385960000000 1.0
C      1  0.5671040000000  0.4463330000000  0.5374930000000 1.0
C      1  0.4040860000000  0.5288110000000  0.5882870000000 1.0
C      1  0.6174500000000  0.4749020000000  0.4933910000000 1.0
C      1  0.4174710000000  0.4911450000000  0.5619750000000 1.0
C      1  0.5732640000000  0.5736900000000  0.5097690000000 1.0
C      1  0.5012750000000  0.4459200000000  0.4431140000000 1.0
C      1  0.4495370000000  0.5950170000000  0.4630280000000 1.0
C      1  0.5889570000000  0.4431020000000  0.5178940000000 1.0
C      1  0.5976940000000  0.4939900000000  0.4461160000000 1.0
C      1  0.4837570000000  0.5184050000000  0.5596800000000 1.0
C      1  0.4729350000000  0.4858630000000  0.3809460000000 1.0
C      1  0.4494430000000  0.4303330000000  0.4138860000000 1.0
C      1  0.5508040000000  0.5899380000000  0.4998380000000 1.0
C      1  0.5511500000000  0.4745790000000  0.5718350000000 1.0
C      1  0.5104500000000  0.4803550000000  0.5501710000000 1.0
C      1  0.5340250000000  0.5212530000000  0.3901490000000 1.0
C      1  0.4988170000000  0.3613390000000  0.5135950000000 1.0
C      1  0.5713950000000  0.5326580000000  0.4180240000000 1.0
C      1  0.4597180000000  0.3931830000000  0.4658670000000 1.0
C      1  0.5321780000000  0.4878610000000  0.5311960000000 1.0
C      1  0.4526880000000  0.5311900000000  0.5960160000000 1.0
C      1  0.5141810000000  0.4035590000000  0.4944150000000 1.0
C      1  0.4297890000000  0.4463650000000  0.5791720000000 1.0
C      1  0.5204570000000  0.4750880000000  0.5070300000000 1.0
C      1  0.4903840000000  0.5950650000000  0.4326710000000 1.0
C      1  0.5473110000000  0.4025540000000  0.5555360000000 1.0
C      1  0.4296130000000  0.5648360000000  0.5459740000000 1.0
C      1  0.4568530000000  0.5770170000000  0.5539610000000 1.0
C      1  0.4187670000000  0.4904470000000  0.4380460000000 1.0
C      1  0.5135760000000  0.4988510000000  0.4649920000000 1.0
C      1  0.6111850000000  0.4620570000000  0.5183040000000 1.0
C      1  0.4365740000000  0.6000660000000  0.5173970000000 1.0
C      1  0.5010920000000  0.4843080000000  0.3880060000000 1.0
C      1  0.4526690000000  0.4083830000000  0.4884030000000 1.0
C      1  0.4856840000000  0.4572420000000  0.5977380000000 1.0
C      1  0.3998210000000  0.5114890000000  0.4472210000000 1.0
C      1  0.3966760000000  0.3816390000000  0.5394300000000 1.0
C      1  0.4252370000000  0.5279690000000  0.4975340000000 1.0
C      1  0.4602540000000  0.5989950000000  0.5340240000000 1.0
C      1  0.5229120000000  0.5242050000000  0.6207950000000 1.0
C      1  0.4224880000000  0.5863750000000  0.4592500000000 1.0
C      1  0.5847710000000  0.5189750000000  0.5252580000000 1.0
C      1  0.5405130000000  0.4072950000000  0.4823700000000 1.0
C      1  0.5477450000000  0.6102300000000  0.4803100000000 1.0
C      1  0.5282120000000  0.5203470000000  0.5745860000000 1.0
C      1  0.6196300000000  0.4738100000000  0.5433150000000 1.0
C      1  0.4512780000000  0.4595270000000  0.4949320000000 1.0
C      1  0.5628900000000  0.3864970000000  0.5713360000000 1.0
C      1  0.4540270000000  0.5271080000000  0.4577020000000 1.0
C      1  0.5020430000000  0.5136270000000  0.5811860000000 1.0
C      1  0.4875370000000  0.6033350000000  0.5274780000000 1.0
C      1  0.4442900000000  0.4933130000000  0.4206280000000 1.0
C      1  0.5435850000000  0.5006120000000  0.4648840000000 1.0
C      1  0.4461120000000  0.4928820000000  0.5613080000000 1.0
C      1  0.4256250000000  0.5330280000000  0.6042450000000 1.0
C      1  0.4086850000000  0.5623430000000  0.4675380000000 1.0
C      1  0.4585770000000  0.5046350000000  0.3981060000000 1.0
C      1  0.4436640000000  0.5522070000000  0.4151230000000 1.0
C      1  0.5829320000000  0.4702400000000  0.4346520000000 1.0
C      1  0.5804100000000  0.4312820000000  0.4933600000000 1.0
C      1  0.5380120000000  0.5464500000000  0.6080890000000 1.0
C      1  0.4139070000000  0.4624410000000  0.5587060000000 1.0
C      1  0.4909490000000  0.5656160000000  0.5935590000000 1.0
C      1  0.5110630000000  0.4460020000000  0.5877350000000 1.0
C      1  0.5045330000000  0.4908590000000  0.4901720000000 1.0
C      1  0.5624590000000  0.4007530000000  0.4629580000000 1.0
C      1  0.5867260000000  0.5292200000000  0.5884790000000 1.0
C      1  0.6030880000000  0.5336670000000  0.5095640000000 1.0
C      1  0.4243460000000  0.5364780000000  0.5452930000000 1.0
C      1  0.4448270000000  0.4596980000000  0.5249820000000 1.0
C      1  0.4217810000000  0.4621860000000  0.4519670000000 1.0
C      1  0.5883460000000  0.4432840000000  0.4451170000000 1.0
C      1  0.4578580000000  0.4505970000000  0.5889120000000 1.0
C      1  0.5568400000000  0.4772060000000  0.4223860000000 1.0
C      1  0.5433520000000  0.4610140000000  0.4015950000000 1.0
C      1  0.5380520000000  0.5835010000000  0.5787110000000 1.0
C      1  0.4863560000000  0.4693820000000  0.5490490000000 1.0
C      1  0.5062500000000  0.5639360000000  0.5491520000000 1.0
C      1  0.5280750000000  0.3909660000000  0.5386350000000 1.0
C      1  0.5276810000000  0.5503110000000  0.4446750000000 1.0
C      1  0.4335580000000  0.3996250000000  0.5066100000000 1.0
C      1  0.4778070000000  0.3981930000000  0.4467880000000 1.0
C      1  0.5900620000000  0.5534290000000  0.4921720000000 1.0
C      1  0.3689090000000  0.4870580000000  0.4811040000000 1.0
C      1  0.5348000000000  0.5242970000000  0.5306720000000 1.0
C      1  0.5601410000000  0.4443560000000  0.3870330000000 1.0
C      1  0.4606580000000  0.4713030000000  0.4312330000000 1.0
C      1  0.5181220000000  0.6002910000000  0.4399260000000 1.0
C      1  0.4034100000000  0.4573120000000  0.5037720000000 1.0
C      1  0.5803480000000  0.4927800000000  0.5319450000000 1.0
C      1  0.4967640000000  0.4273990000000  0.4979610000000 1.0
C      1  0.4163080000000  0.4248790000000  0.5904490000000 1.0
C      1  0.6158660000000  0.4911650000000  0.5639890000000 1.0
C      1  0.5468540000000  0.5003840000000  0.5817500000000 1.0
C      1  0.5255620000000  0.5783090000000  0.5073190000000 1.0
C      1  0.4670150000000  0.6066570000000  0.4438670000000 1.0
C      1  0.5514620000000  0.4324210000000  0.4917870000000 1.0
C      1  0.4092980000000  0.5391560000000  0.4487360000000 1.0
C      1  0.5264610000000  0.4482410000000  0.4543320000000 1.0
C      1  0.5557490000000  0.4780860000000  0.4777070000000 1.0
C      1  0.5201640000000  0.5689810000000  0.5977630000000 1.0
C      1  0.5622600000000  0.5343780000000  0.5312350000000 1.0
C      1  0.4877430000000  0.4704480000000  0.4371190000000 1.0
C      1  0.5546020000000  0.5265790000000  0.4745020000000 1.0
C      1  0.4229380000000  0.4572460000000  0.4810360000000 1.0
C      1  0.4594370000000  0.4735490000000  0.5448430000000 1.0
C      1  0.5644470000000  0.5472460000000  0.5900080000000 1.0
C      1  0.4588210000000  0.5153270000000  0.5720410000000 1.0
C      1  0.4207750000000  0.5753210000000  0.5182770000000 1.0
C      1  0.6038550000000  0.5104810000000  0.5788650000000 1.0
C      1  0.4829370000000  0.5690010000000  0.5660470000000 1.0
C      1  0.5851530000000  0.4219860000000  0.4649740000000 1.0
C      1  0.5607590000000  0.5680470000000  0.5674300000000 1.0
C      1  0.4393140000000  0.5294660000000  0.5221600000000 1.0
C      1  0.5089410000000  0.5844920000000  0.5288860000000 1.0
C      1  0.5342790000000  0.5773970000000  0.4338560000000 1.0
C      1  0.4900340000000  0.4810410000000  0.6137210000000 1.0
C      1  0.4865850000000  0.5219790000000  0.5231830000000 1.0
C      1  0.4573040000000  0.4900120000000  0.4906750000000 1.0
C      1  0.4361320000000  0.5392730000000  0.4387600000000 1.0
C      1  0.3769210000000  0.5031180000000  0.4612570000000 1.0
C      1  0.4163410000000  0.4555110000000  0.5300550000000 1.0
C      1  0.5509040000000  0.4306100000000  0.5563690000000 1.0
C      1  0.5349430000000  0.5465120000000  0.4730310000000 1.0
C      1  0.4712470000000  0.5559240000000  0.4904430000000 1.0
C      1  0.5131860000000  0.3844270000000  0.5156400000000 1.0
C      1  0.5244790000000  0.5400370000000  0.5543570000000 1.0
C      1  0.5022050000000  0.5062220000000  0.6091320000000 1.0
C      1  0.5672820000000  0.5624290000000  0.5381580000000 1.0
C      1  0.5206640000000  0.5530330000000  0.4956400000000 1.0
C      1  0.4921910000000  0.4196030000000  0.4400030000000 1.0
C      1  0.5897450000000  0.5235650000000  0.4418870000000 1.0
C      1  0.5107710000000  0.4488300000000  0.5096150000000 1.0
C      1  0.3783980000000  0.4688200000000  0.4983050000000 1.0
C      1  0.5302470000000  0.6159480000000  0.4602280000000 1.0
C      1  0.5463730000000  0.5006160000000  0.4353120000000 1.0
C      1  0.5616910000000  0.5281470000000  0.3908360000000 1.0
C      1  0.6130410000000  0.4872440000000  0.4697390000000 1.0
C      1  0.4414430000000  0.5116610000000  0.4791510000000 1.0
C      1  0.4812630000000  0.4991810000000  0.5029710000000 1.0
C      1  0.5150420000000  0.4600590000000  0.3932920000000 1.0
C      1  0.5375770000000  0.4484050000000  0.5761230000000 1.0
C      1  0.5450850000000  0.5292540000000  0.4309670000000 1.0
C      1  0.4715900000000  0.4289790000000  0.3976060000000 1.0
C      1  0.4970990000000  0.4373690000000  0.3921740000000 1.0
C      1  0.4682770000000  0.4324330000000  0.4925180000000 1.0
C      1  0.4424300000000  0.4489300000000  0.4344800000000 1.0
C      1  0.4721060000000  0.5491920000000  0.6069990000000 1.0
C      1  0.4867320000000  0.5671650000000  0.4255070000000 1.0
C      1  0.4087150000000  0.5186780000000  0.5621530000000 1.0
C      1  0.5134290000000  0.5317250000000  0.5125690000000 1.0
C      1  0.4709320000000  0.5519680000000  0.4078720000000 1.0
END
