TITL C-627108-131-1729 -7.21493410966132e-07 125000 -484.937746792363 0 0 81 (C1) n - 1
REM
REM in /home/nfs/bkarasulu/CARBON/AIRSS/Generating-Clusters/LCBOP/Only-C1/SD-CG/FIRE-CG
REM
REM
REM
REM
REM
REM ./C.cell (11c1c37f851c82e70ff6c80c92926a4b)
REM AIRSS Version 0.9.1 bugfix July 2018 build 013d7b7c2542+ Fri, 06 Jul 2018 19:26:36 +0100
REM compiler GCC version 9.2.1 20190827 (Red Hat 9.2.1-1)
REM options -cpp -mtune=generic -march=x86-64 -g -O0 -fpre-include=/usr/include/finclude/math-vector-fortran.h
REM seed 1963634637 -573301207 1740786243 -823430175 726498601 -690708048 1439079480 -1646364261 1253066341 86177817 -1831877984 -1914482768 32784070 1941962447 -593548189 -357210535 1448719138 1464393008 -1245043002 1489979458 -2076893996 683464592 1517955274 -1119614504 -842928094 -1352614818 805805393 -1454292981 -715332485 -70382053 -301295936 -1303975736 997510079
REM
CELL 1.54180   50.00000   50.00000   50.00000   90.00000   90.00000   90.00000
LATT -1
SFAC C  
C      1  0.5034080000000  0.5221300000000  0.4985960000000 1.0
C      1  0.4234240000000  0.5437380000000  0.4405840000000 1.0
C      1  0.5353220000000  0.4257130000000  0.5090280000000 1.0
C      1  0.5164080000000  0.4895620000000  0.5481980000000 1.0
C      1  0.5103140000000  0.4406190000000  0.4378980000000 1.0
C      1  0.5689200000000  0.4891280000000  0.5649290000000 1.0
C      1  0.5856370000000  0.4896210000000  0.4808370000000 1.0
C      1  0.4790980000000  0.4861740000000  0.4625500000000 1.0
C      1  0.4880160000000  0.4450400000000  0.5708300000000 1.0
C      1  0.5612850000000  0.5341670000000  0.4845180000000 1.0
C      1  0.4408570000000  0.4653440000000  0.4440370000000 1.0
C      1  0.5219020000000  0.3951660000000  0.4108590000000 1.0
C      1  0.4640930000000  0.5178980000000  0.5579040000000 1.0
C      1  0.4312230000000  0.4439070000000  0.4858830000000 1.0
C      1  0.5643160000000  0.5407870000000  0.5563970000000 1.0
C      1  0.4746150000000  0.5712290000000  0.4643550000000 1.0
C      1  0.5709910000000  0.4629090000000  0.5191910000000 1.0
C      1  0.4398420000000  0.5637500000000  0.5020630000000 1.0
C      1  0.5299450000000  0.4619340000000  0.4367560000000 1.0
C      1  0.3793750000000  0.5559680000000  0.4561870000000 1.0
C      1  0.5764870000000  0.5436430000000  0.5304930000000 1.0
C      1  0.4177380000000  0.5597330000000  0.4852790000000 1.0
C      1  0.5188360000000  0.5397370000000  0.4208140000000 1.0
C      1  0.5162680000000  0.4171780000000  0.4236200000000 1.0
C      1  0.5847720000000  0.5166700000000  0.4906630000000 1.0
C      1  0.4923110000000  0.4819690000000  0.5361260000000 1.0
C      1  0.5099300000000  0.4170590000000  0.5087170000000 1.0
C      1  0.5306730000000  0.5527780000000  0.5175740000000 1.0
C      1  0.5074180000000  0.4604090000000  0.5829080000000 1.0
C      1  0.4707110000000  0.4916800000000  0.5496230000000 1.0
C      1  0.5311160000000  0.4913990000000  0.4301020000000 1.0
C      1  0.4635680000000  0.5774000000000  0.4906450000000 1.0
C      1  0.4889590000000  0.5113270000000  0.4548590000000 1.0
C      1  0.4461820000000  0.4215440000000  0.4754890000000 1.0
C      1  0.5125470000000  0.5729000000000  0.4930960000000 1.0
C      1  0.4402790000000  0.5244890000000  0.5404770000000 1.0
C      1  0.5946930000000  0.5258000000000  0.5165210000000 1.0
C      1  0.4817380000000  0.4793760000000  0.4892500000000 1.0
C      1  0.5459930000000  0.5005170000000  0.5787460000000 1.0
C      1  0.5500210000000  0.5021560000000  0.4499280000000 1.0
C      1  0.4247320000000  0.5008310000000  0.5309220000000 1.0
C      1  0.4829790000000  0.5362740000000  0.5112920000000 1.0
C      1  0.4987530000000  0.4736660000000  0.5098630000000 1.0
C      1  0.5264460000000  0.5219830000000  0.5154360000000 1.0
C      1  0.4836980000000  0.4251480000000  0.5028910000000 1.0
C      1  0.4404350000000  0.5522350000000  0.5294020000000 1.0
C      1  0.4690850000000  0.4649510000000  0.4470720000000 1.0
C      1  0.4662700000000  0.4423610000000  0.5522220000000 1.0
C      1  0.5276760000000  0.4730240000000  0.5069000000000 1.0
C      1  0.4747520000000  0.4250400000000  0.4749250000000 1.0
C      1  0.5632940000000  0.4845670000000  0.5371460000000 1.0
C      1  0.4061710000000  0.5532340000000  0.4605640000000 1.0
C      1  0.4849780000000  0.4410600000000  0.4520800000000 1.0
C      1  0.5585000000000  0.5525750000000  0.5086050000000 1.0
C      1  0.5365150000000  0.4958960000000  0.5267440000000 1.0
C      1  0.4321760000000  0.4723140000000  0.5322590000000 1.0
C      1  0.5465080000000  0.4512280000000  0.5088980000000 1.0
C      1  0.5042700000000  0.5682330000000  0.4640250000000 1.0
C      1  0.4234700000000  0.4610250000000  0.4646500000000 1.0
C      1  0.4884440000000  0.5872320000000  0.5034810000000 1.0
C      1  0.5108160000000  0.5204050000000  0.4714440000000 1.0
C      1  0.4407550000000  0.4525260000000  0.5116230000000 1.0
C      1  0.5419230000000  0.5290550000000  0.5714340000000 1.0
C      1  0.4472850000000  0.5349340000000  0.4328150000000 1.0
C      1  0.5134380000000  0.5570730000000  0.5423470000000 1.0
C      1  0.4717160000000  0.5259500000000  0.4383450000000 1.0
C      1  0.5686470000000  0.4823030000000  0.4592630000000 1.0
C      1  0.5226810000000  0.4833310000000  0.5750460000000 1.0
C      1  0.4864240000000  0.5557140000000  0.5328400000000 1.0
C      1  0.4419990000000  0.4588950000000  0.5566170000000 1.0
C      1  0.5206030000000  0.5130450000000  0.4149600000000 1.0
C      1  0.5402740000000  0.5222080000000  0.4675340000000 1.0
C      1  0.4621950000000  0.5659170000000  0.5425440000000 1.0
C      1  0.5159440000000  0.5590500000000  0.4397600000000 1.0
C      1  0.4000210000000  0.5063150000000  0.5196540000000 1.0
C      1  0.5926130000000  0.4834040000000  0.5770480000000 1.0
C      1  0.5151260000000  0.5400680000000  0.5660840000000 1.0
C      1  0.4650550000000  0.4369210000000  0.5225020000000 1.0
C      1  0.5560990000000  0.4577370000000  0.4502190000000 1.0
C      1  0.5907550000000  0.4694580000000  0.5001710000000 1.0
C      1  0.4872480000000  0.5302660000000  0.5718430000000 1.0
END
