TITL C-627110-360-1639 10639.0058743924 125000 -949.475128421446 0 0 157 (C1) n - 1
REM
REM in /home/nfs/bkarasulu/CARBON/AIRSS/Generating-Clusters/LCBOP/Only-C1/SD-CG/FIRE-CG
REM
REM
REM
REM
REM
REM ./C.cell (11c1c37f851c82e70ff6c80c92926a4b)
REM AIRSS Version 0.9.1 bugfix July 2018 build 013d7b7c2542+ Fri, 06 Jul 2018 19:26:36 +0100
REM compiler GCC version 9.2.1 20190827 (Red Hat 9.2.1-1)
REM options -cpp -mtune=generic -march=x86-64 -g -O0 -fpre-include=/usr/include/finclude/math-vector-fortran.h
REM seed 932617198 -1213703389 1659520918 -81453278 -1744967448 1146383750 1908029376 -2060664254 -1675753202 -961298787 2138246414 1188867149 512730382 -515571331 2090115416 -64947566 -588677630 1853784152 -16834206 -52841038 1298117020 -457155207 1490729273 506513841 -189981889 -27244055 129172214 1942908411 -478758719 -1974882065 1426695993 -1791032182 -761092998
REM
CELL 1.54180   50.00000   50.00000   50.00000   90.00000   90.00000   90.00000
LATT -1
SFAC C  
C      1  0.5168240000000  0.4457670000000  0.4014310000000 1.0
C      1  0.4316060000000  0.4243680000000  0.5121840000000 1.0
C      1  0.4419040000000  0.5749450000000  0.5657530000000 1.0
C      1  0.4118000000000  0.5742350000000  0.5117850000000 1.0
C      1  0.5081580000000  0.4032380000000  0.5600440000000 1.0
C      1  0.6091580000000  0.5449850000000  0.4950980000000 1.0
C      1  0.5304590000000  0.4948620000000  0.6056470000000 1.0
C      1  0.5247760000000  0.5230260000000  0.4871100000000 1.0
C      1  0.5911280000000  0.5173800000000  0.4021160000000 1.0
C      1  0.5666190000000  0.4334650000000  0.4351560000000 1.0
C      1  0.4849520000000  0.4822600000000  0.6191840000000 1.0
C      1  0.6182020000000  0.5166860000000  0.5624220000000 1.0
C      1  0.4246360000000  0.5365160000000  0.4836560000000 1.0
C      1  0.5108740000000  0.5341720000000  0.4644000000000 1.0
C      1  0.4854260000000  0.5285130000000  0.5645350000000 1.0
C      1  0.4804310000000  0.4075400000000  0.5662790000000 1.0
C      1  0.4551760000000  0.5993230000000  0.4847610000000 1.0
C      1  0.5092580000000  0.5011460000000  0.5010510000000 1.0
C      1  0.5106710000000  0.3854240000000  0.5381670000000 1.0
C      1  0.5753760000000  0.5808650000000  0.4745320000000 1.0
C      1  0.4127290000000  0.5250670000000  0.5424660000000 1.0
C      1  0.5358660000000  0.4604680000000  0.4635840000000 1.0
C      1  0.5646880000000  0.5225890000000  0.4078890000000 1.0
C      1  0.4658910000000  0.3951350000000  0.4645020000000 1.0
C      1  0.4687260000000  0.4195920000000  0.4162100000000 1.0
C      1  0.5282010000000  0.5078020000000  0.3803640000000 1.0
C      1  0.4231960000000  0.4302190000000  0.4508460000000 1.0
C      1  0.4362310000000  0.5509680000000  0.5814010000000 1.0
C      1  0.4874820000000  0.5134830000000  0.5173130000000 1.0
C      1  0.4638290000000  0.4996180000000  0.6259300000000 1.0
C      1  0.5091380000000  0.5932650000000  0.5364580000000 1.0
C      1  0.5503260000000  0.4389480000000  0.5709860000000 1.0
C      1  0.5163730000000  0.5822730000000  0.4297620000000 1.0
C      1  0.4648540000000  0.5311710000000  0.4598180000000 1.0
C      1  0.4523680000000  0.5735750000000  0.4110350000000 1.0
C      1  0.6018110000000  0.5851440000000  0.5580820000000 1.0
C      1  0.5018560000000  0.4606440000000  0.5471480000000 1.0
C      1  0.5099390000000  0.4157330000000  0.5002720000000 1.0
C      1  0.4718100000000  0.4509200000000  0.5081170000000 1.0
C      1  0.4007330000000  0.4390140000000  0.4628340000000 1.0
C      1  0.3952000000000  0.5265210000000  0.4368080000000 1.0
C      1  0.5720550000000  0.3778370000000  0.4974340000000 1.0
C      1  0.5558280000000  0.3978570000000  0.5013280000000 1.0
C      1  0.4736210000000  0.4191900000000  0.5912100000000 1.0
C      1  0.4854690000000  0.5163620000000  0.4184780000000 1.0
C      1  0.5767030000000  0.5925760000000  0.5631170000000 1.0
C      1  0.4764550000000  0.6062960000000  0.5027850000000 1.0
C      1  0.5307490000000  0.4101920000000  0.3653250000000 1.0
C      1  0.4666170000000  0.5794860000000  0.5514260000000 1.0
C      1  0.4621350000000  0.4689800000000  0.4490180000000 1.0
C      1  0.4714930000000  0.4687400000000  0.3942330000000 1.0
C      1  0.5195790000000  0.5744490000000  0.5176020000000 1.0
C      1  0.4295660000000  0.5549570000000  0.5045120000000 1.0
C      1  0.5470090000000  0.5771160000000  0.5126800000000 1.0
C      1  0.5708880000000  0.4066970000000  0.4312160000000 1.0
C      1  0.3641040000000  0.4936530000000  0.4717620000000 1.0
C      1  0.4680120000000  0.4418540000000  0.4001070000000 1.0
C      1  0.4462480000000  0.4440400000000  0.4513320000000 1.0
C      1  0.4824560000000  0.5559630000000  0.5589870000000 1.0
C      1  0.4306200000000  0.4760440000000  0.5671040000000 1.0
C      1  0.5556070000000  0.5339650000000  0.5592510000000 1.0
C      1  0.5086300000000  0.5266620000000  0.3788730000000 1.0
C      1  0.4504870000000  0.5222060000000  0.6202100000000 1.0
C      1  0.4925040000000  0.5402550000000  0.4002800000000 1.0
C      1  0.5113260000000  0.4648340000000  0.4212690000000 1.0
C      1  0.4704750000000  0.5586110000000  0.4660580000000 1.0
C      1  0.4247100000000  0.4682060000000  0.4928840000000 1.0
C      1  0.5303990000000  0.4847220000000  0.5162960000000 1.0
C      1  0.4978200000000  0.5583120000000  0.4754720000000 1.0
C      1  0.6062040000000  0.5011160000000  0.5220280000000 1.0
C      1  0.4154060000000  0.5009390000000  0.5268800000000 1.0
C      1  0.5556970000000  0.5065780000000  0.6018290000000 1.0
C      1  0.4805320000000  0.5972460000000  0.5316510000000 1.0
C      1  0.4477880000000  0.5854220000000  0.4349240000000 1.0
C      1  0.5452590000000  0.4418750000000  0.5202050000000 1.0
C      1  0.5173940000000  0.4929610000000  0.5801890000000 1.0
C      1  0.5478150000000  0.6172930000000  0.4885350000000 1.0
C      1  0.5670870000000  0.4562880000000  0.5071900000000 1.0
C      1  0.5947140000000  0.4908840000000  0.3954990000000 1.0
C      1  0.4812230000000  0.5411550000000  0.5153040000000 1.0
C      1  0.4666820000000  0.5077930000000  0.5584320000000 1.0
C      1  0.4523030000000  0.4036490000000  0.5167180000000 1.0
C      1  0.5593110000000  0.5842350000000  0.4512540000000 1.0
C      1  0.5271150000000  0.5557840000000  0.5961580000000 1.0
C      1  0.5623670000000  0.5939940000000  0.4964680000000 1.0
C      1  0.4259210000000  0.5272230000000  0.5680670000000 1.0
C      1  0.4021640000000  0.4641430000000  0.4755190000000 1.0
C      1  0.5583370000000  0.4834330000000  0.5068680000000 1.0
C      1  0.4825770000000  0.4654130000000  0.5958350000000 1.0
C      1  0.5061060000000  0.4585640000000  0.4711040000000 1.0
C      1  0.5244080000000  0.6117430000000  0.4725260000000 1.0
C      1  0.5378200000000  0.4185720000000  0.5065750000000 1.0
C      1  0.5426820000000  0.4855580000000  0.4504400000000 1.0
C      1  0.6144180000000  0.5288190000000  0.5173080000000 1.0
C      1  0.5762390000000  0.4445940000000  0.4831520000000 1.0
C      1  0.5237130000000  0.4283390000000  0.3826630000000 1.0
C      1  0.4357570000000  0.4268580000000  0.5574860000000 1.0
C      1  0.6025500000000  0.4948200000000  0.5503510000000 1.0
C      1  0.5035200000000  0.5606370000000  0.6080210000000 1.0
C      1  0.5500580000000  0.5273500000000  0.5014690000000 1.0
C      1  0.4788320000000  0.4674210000000  0.5311580000000 1.0
C      1  0.4556560000000  0.5821230000000  0.4619120000000 1.0
C      1  0.4486550000000  0.4867750000000  0.4287010000000 1.0
C      1  0.5464160000000  0.4977370000000  0.4020320000000 1.0
C      1  0.5004880000000  0.5590360000000  0.5037160000000 1.0
C      1  0.5647920000000  0.5106120000000  0.5748660000000 1.0
C      1  0.4020440000000  0.5004300000000  0.4419850000000 1.0
C      1  0.4632350000000  0.4456240000000  0.5918960000000 1.0
C      1  0.4998450000000  0.6146090000000  0.4870650000000 1.0
C      1  0.4894200000000  0.5220860000000  0.4465390000000 1.0
C      1  0.4668940000000  0.5561480000000  0.3962300000000 1.0
C      1  0.5028460000000  0.3912240000000  0.5128500000000 1.0
C      1  0.4678280000000  0.4878550000000  0.4731090000000 1.0
C      1  0.5782440000000  0.4874050000000  0.5633490000000 1.0
C      1  0.4130010000000  0.4781080000000  0.5444930000000 1.0
C      1  0.5273750000000  0.5990800000000  0.5571240000000 1.0
C      1  0.4001820000000  0.4619450000000  0.3815020000000 1.0
C      1  0.6187240000000  0.5656200000000  0.5514820000000 1.0
C      1  0.5657960000000  0.5053930000000  0.4905300000000 1.0
C      1  0.4409740000000  0.4499430000000  0.5743050000000 1.0
C      1  0.5121130000000  0.4886930000000  0.6262370000000 1.0
C      1  0.5501470000000  0.5842200000000  0.5656490000000 1.0
C      1  0.4608980000000  0.3928080000000  0.4913700000000 1.0
C      1  0.4545420000000  0.5503630000000  0.5166870000000 1.0
C      1  0.5254130000000  0.4603220000000  0.5313150000000 1.0
C      1  0.5105360000000  0.5174670000000  0.5689400000000 1.0
C      1  0.4730790000000  0.4953700000000  0.5338070000000 1.0
C      1  0.5629400000000  0.5009710000000  0.4626920000000 1.0
C      1  0.4523410000000  0.5464330000000  0.6055580000000 1.0
C      1  0.5452350000000  0.5571900000000  0.5742720000000 1.0
C      1  0.4689440000000  0.4938210000000  0.4093760000000 1.0
C      1  0.4431640000000  0.4482360000000  0.5018470000000 1.0
C      1  0.4767150000000  0.5604880000000  0.6099690000000 1.0
C      1  0.5703280000000  0.4756310000000  0.3990280000000 1.0
C      1  0.4420730000000  0.5026920000000  0.5713080000000 1.0
C      1  0.4933000000000  0.4848360000000  0.4819310000000 1.0
C      1  0.5666660000000  0.4609330000000  0.5676080000000 1.0
C      1  0.4101350000000  0.4749590000000  0.4017660000000 1.0
C      1  0.5535060000000  0.5330220000000  0.5300420000000 1.0
C      1  0.4164070000000  0.4273330000000  0.5361450000000 1.0
C      1  0.5699470000000  0.4515630000000  0.4135310000000 1.0
C      1  0.3890810000000  0.4862610000000  0.4632750000000 1.0
C      1  0.4206120000000  0.4876010000000  0.4245190000000 1.0
C      1  0.5960720000000  0.5627410000000  0.4798800000000 1.0
C      1  0.5307250000000  0.4861340000000  0.4248980000000 1.0
C      1  0.5320070000000  0.5943290000000  0.4497790000000 1.0
C      1  0.4945400000000  0.4388330000000  0.4921110000000 1.0
C      1  0.5305760000000  0.4197690000000  0.5688850000000 1.0
C      1  0.4285570000000  0.4949790000000  0.5016280000000 1.0
C      1  0.4924500000000  0.4597410000000  0.4429050000000 1.0
C      1  0.4433040000000  0.5127840000000  0.4805970000000 1.0
C      1  0.4692090000000  0.4039870000000  0.4387870000000 1.0
C      1  0.5585910000000  0.4428510000000  0.4609470000000 1.0
C      1  0.6214020000000  0.5389300000000  0.5440630000000 1.0
C      1  0.5016010000000  0.4701420000000  0.5745030000000 1.0
C      1  0.5098090000000  0.5614320000000  0.4142640000000 1.0
C      1  0.4583740000000  0.4087570000000  0.5470070000000 1.0
END
