TITL C-627109-622-743 -1.39389777791729e-06 125000 -879.873647559489 0 0 144 (C1) n - 1
REM
REM in /home/nfs/bkarasulu/CARBON/AIRSS/Generating-Clusters/LCBOP/Only-C1/SD-CG/FIRE-CG
REM
REM
REM
REM
REM
REM ./C.cell (11c1c37f851c82e70ff6c80c92926a4b)
REM AIRSS Version 0.9.1 bugfix July 2018 build 013d7b7c2542+ Fri, 06 Jul 2018 19:26:36 +0100
REM compiler GCC version 9.2.1 20190827 (Red Hat 9.2.1-1)
REM options -cpp -mtune=generic -march=x86-64 -g -O0 -fpre-include=/usr/include/finclude/math-vector-fortran.h
REM seed -97420657 -1908802037 1439770980 475824752 571283944 1174533363 -1479922773 769015730 1599591468 1642576503 -523206612 -816305033 -886734163 -808616281 418813889 -1752240044 959196451 -1966931300 1250254989 -395550959 -872612776 -1493912240 -1693420448 1895389374 1248313459 1675282675 -1547888308 1907180918 -669156637 1903272215 -2080708374 -555206159 -1757322379
REM
CELL 1.54180   50.00000   50.00000   50.00000   90.00000   90.00000   90.00000
LATT -1
SFAC C  
C      1  0.4545690000000  0.5293300000000  0.3999060000000 1.0
C      1  0.5319490000000  0.4890810000000  0.4856130000000 1.0
C      1  0.4456850000000  0.4071360000000  0.5328630000000 1.0
C      1  0.4380200000000  0.5652640000000  0.4911780000000 1.0
C      1  0.4647070000000  0.5525200000000  0.4138440000000 1.0
C      1  0.5373510000000  0.5564980000000  0.5168610000000 1.0
C      1  0.3708940000000  0.5321970000000  0.5161210000000 1.0
C      1  0.5558860000000  0.4596990000000  0.4389340000000 1.0
C      1  0.4814050000000  0.5580900000000  0.5863710000000 1.0
C      1  0.4396470000000  0.5094220000000  0.4161550000000 1.0
C      1  0.5037990000000  0.4606050000000  0.6232060000000 1.0
C      1  0.4834220000000  0.3953360000000  0.4698970000000 1.0
C      1  0.4666130000000  0.4144680000000  0.4826930000000 1.0
C      1  0.5468740000000  0.4699450000000  0.6031440000000 1.0
C      1  0.5472580000000  0.5214000000000  0.5638260000000 1.0
C      1  0.5292450000000  0.4403390000000  0.4004080000000 1.0
C      1  0.4468360000000  0.5249070000000  0.5942700000000 1.0
C      1  0.5133090000000  0.6051460000000  0.5599700000000 1.0
C      1  0.5698080000000  0.5420820000000  0.4797790000000 1.0
C      1  0.4908160000000  0.4568840000000  0.4565640000000 1.0
C      1  0.4925240000000  0.5614920000000  0.4088880000000 1.0
C      1  0.4627060000000  0.5825050000000  0.4545160000000 1.0
C      1  0.5889100000000  0.5217510000000  0.4719840000000 1.0
C      1  0.4750190000000  0.5332370000000  0.4773810000000 1.0
C      1  0.5119940000000  0.4509520000000  0.3798660000000 1.0
C      1  0.4756300000000  0.4869750000000  0.3947220000000 1.0
C      1  0.5053150000000  0.6007120000000  0.4657400000000 1.0
C      1  0.5428920000000  0.4432400000000  0.4816340000000 1.0
C      1  0.5163060000000  0.5600080000000  0.4973160000000 1.0
C      1  0.5167370000000  0.5144450000000  0.4873140000000 1.0
C      1  0.5253450000000  0.5606540000000  0.5430510000000 1.0
C      1  0.4618980000000  0.4846750000000  0.6156640000000 1.0
C      1  0.4985020000000  0.5269850000000  0.3769300000000 1.0
C      1  0.4696480000000  0.4956100000000  0.4477080000000 1.0
C      1  0.4642900000000  0.4705700000000  0.5235920000000 1.0
C      1  0.4288470000000  0.4324610000000  0.5345270000000 1.0
C      1  0.5621080000000  0.5242120000000  0.4118400000000 1.0
C      1  0.4692370000000  0.5124610000000  0.6099590000000 1.0
C      1  0.4045270000000  0.4662000000000  0.5660950000000 1.0
C      1  0.4810580000000  0.4302500000000  0.5493140000000 1.0
C      1  0.4049740000000  0.4946580000000  0.5727990000000 1.0
C      1  0.5792280000000  0.4167020000000  0.4940760000000 1.0
C      1  0.5012500000000  0.5164170000000  0.5445400000000 1.0
C      1  0.5640640000000  0.5324840000000  0.5834310000000 1.0
C      1  0.4552040000000  0.5480330000000  0.5795950000000 1.0
C      1  0.5256800000000  0.5969270000000  0.4155680000000 1.0
C      1  0.5896550000000  0.4992940000000  0.4536210000000 1.0
C      1  0.4820330000000  0.5798730000000  0.5292840000000 1.0
C      1  0.5476620000000  0.6026890000000  0.5935500000000 1.0
C      1  0.5332610000000  0.4870430000000  0.4086750000000 1.0
C      1  0.4697960000000  0.5538890000000  0.5343930000000 1.0
C      1  0.4479110000000  0.5530960000000  0.5526550000000 1.0
C      1  0.5067950000000  0.5832370000000  0.5439940000000 1.0
C      1  0.3899890000000  0.5161370000000  0.5284110000000 1.0
C      1  0.4678720000000  0.4793750000000  0.5509300000000 1.0
C      1  0.4841380000000  0.5194930000000  0.4534990000000 1.0
C      1  0.4108540000000  0.4742990000000  0.5150610000000 1.0
C      1  0.6423320000000  0.5001520000000  0.5436640000000 1.0
C      1  0.4973320000000  0.5357560000000  0.4972830000000 1.0
C      1  0.3542790000000  0.5479720000000  0.5037030000000 1.0
C      1  0.5118930000000  0.4727040000000  0.4471770000000 1.0
C      1  0.4227080000000  0.5610850000000  0.5460380000000 1.0
C      1  0.4749890000000  0.4412810000000  0.4382700000000 1.0
C      1  0.5058330000000  0.4917930000000  0.5870990000000 1.0
C      1  0.5604400000000  0.5761610000000  0.4446610000000 1.0
C      1  0.4259710000000  0.5135220000000  0.4413200000000 1.0
C      1  0.5775870000000  0.4606600000000  0.5512140000000 1.0
C      1  0.5671230000000  0.4297480000000  0.4714530000000 1.0
C      1  0.4189610000000  0.4469630000000  0.5105760000000 1.0
C      1  0.5449400000000  0.4610550000000  0.4128670000000 1.0
C      1  0.5280200000000  0.6177330000000  0.5802850000000 1.0
C      1  0.5233580000000  0.6438060000000  0.5869530000000 1.0
C      1  0.5000660000000  0.5862300000000  0.4206400000000 1.0
C      1  0.5364510000000  0.4675190000000  0.4632600000000 1.0
C      1  0.5034410000000  0.5399880000000  0.5859720000000 1.0
C      1  0.6224730000000  0.4776280000000  0.5056350000000 1.0
C      1  0.4423810000000  0.4253470000000  0.4705820000000 1.0
C      1  0.4874490000000  0.5936110000000  0.4452240000000 1.0
C      1  0.4294120000000  0.5179770000000  0.4995060000000 1.0
C      1  0.4565530000000  0.5851230000000  0.4833020000000 1.0
C      1  0.5133030000000  0.4727260000000  0.5034050000000 1.0
C      1  0.5400840000000  0.5375430000000  0.4014440000000 1.0
C      1  0.4880020000000  0.4274720000000  0.4178630000000 1.0
C      1  0.5687850000000  0.5555300000000  0.5960360000000 1.0
C      1  0.4721610000000  0.5936420000000  0.5059960000000 1.0
C      1  0.5618880000000  0.5149900000000  0.5175480000000 1.0
C      1  0.6021280000000  0.4337790000000  0.4986350000000 1.0
C      1  0.5536540000000  0.5526770000000  0.4585810000000 1.0
C      1  0.5198330000000  0.4731070000000  0.6035990000000 1.0
C      1  0.4903190000000  0.4670460000000  0.3816730000000 1.0
C      1  0.5057410000000  0.3914240000000  0.4551730000000 1.0
C      1  0.5121810000000  0.5442110000000  0.3951050000000 1.0
C      1  0.5032460000000  0.4392690000000  0.5612880000000 1.0
C      1  0.3905210000000  0.5118330000000  0.5561640000000 1.0
C      1  0.4503570000000  0.4655030000000  0.5696050000000 1.0
C      1  0.4656830000000  0.4775940000000  0.4947050000000 1.0
C      1  0.5165220000000  0.4951610000000  0.4298800000000 1.0
C      1  0.5598280000000  0.5413730000000  0.5073340000000 1.0
C      1  0.4258840000000  0.4889440000000  0.4596510000000 1.0
C      1  0.4124120000000  0.4642430000000  0.4654710000000 1.0
C      1  0.5308290000000  0.4616240000000  0.5266100000000 1.0
C      1  0.5125940000000  0.4632630000000  0.5500780000000 1.0
C      1  0.5158430000000  0.5843290000000  0.4838980000000 1.0
C      1  0.5554890000000  0.4751470000000  0.5405460000000 1.0
C      1  0.4702300000000  0.3929780000000  0.5297120000000 1.0
C      1  0.4438840000000  0.5374610000000  0.4821900000000 1.0
C      1  0.4723850000000  0.4418070000000  0.5249760000000 1.0
C      1  0.5304310000000  0.5386010000000  0.4496780000000 1.0
C      1  0.6232670000000  0.4838430000000  0.5330170000000 1.0
C      1  0.4969200000000  0.4885240000000  0.5577210000000 1.0
C      1  0.4347450000000  0.5390820000000  0.4526840000000 1.0
C      1  0.5954760000000  0.4705220000000  0.4635760000000 1.0
C      1  0.4981570000000  0.3900230000000  0.5259860000000 1.0
C      1  0.4958520000000  0.5155710000000  0.5992930000000 1.0
C      1  0.4487790000000  0.4331780000000  0.4441030000000 1.0
C      1  0.5781750000000  0.5081070000000  0.4277070000000 1.0
C      1  0.5255750000000  0.3943380000000  0.5213930000000 1.0
C      1  0.4102050000000  0.5026030000000  0.5134040000000 1.0
C      1  0.6085260000000  0.4607050000000  0.4881560000000 1.0
C      1  0.5397830000000  0.4378710000000  0.5107310000000 1.0
C      1  0.5621590000000  0.5811280000000  0.5992280000000 1.0
C      1  0.4801420000000  0.4331700000000  0.4990950000000 1.0
C      1  0.4859730000000  0.5315760000000  0.5251850000000 1.0
C      1  0.4443010000000  0.4789680000000  0.5939910000000 1.0
C      1  0.5155220000000  0.4206160000000  0.4160860000000 1.0
C      1  0.4615150000000  0.4892200000000  0.4202280000000 1.0
C      1  0.6030270000000  0.4722880000000  0.5486580000000 1.0
C      1  0.4894570000000  0.4590110000000  0.4865750000000 1.0
C      1  0.4744110000000  0.5141980000000  0.3840580000000 1.0
C      1  0.4277430000000  0.4501350000000  0.5584710000000 1.0
C      1  0.4277270000000  0.5028910000000  0.5881250000000 1.0
C      1  0.4533810000000  0.4869530000000  0.4701240000000 1.0
C      1  0.5560600000000  0.5041130000000  0.5428570000000 1.0
C      1  0.4782290000000  0.4666100000000  0.6291360000000 1.0
C      1  0.4509830000000  0.5601440000000  0.4386280000000 1.0
C      1  0.5482760000000  0.4117130000000  0.5146080000000 1.0
C      1  0.5582760000000  0.4954740000000  0.4972760000000 1.0
C      1  0.5205300000000  0.5353870000000  0.5602950000000 1.0
C      1  0.5216320000000  0.4006320000000  0.4351280000000 1.0
C      1  0.5498440000000  0.5929360000000  0.4266250000000 1.0
C      1  0.5744810000000  0.4365200000000  0.5636200000000 1.0
C      1  0.5102600000000  0.5202240000000  0.4419710000000 1.0
C      1  0.5785110000000  0.4494310000000  0.4525700000000 1.0
C      1  0.4219440000000  0.4418090000000  0.4824390000000 1.0
END
