TITL C-627109-622-1585 236.759904724935 125000 -1166.73184301332 0 0 191 (C1) n - 1
REM
REM in /home/nfs/bkarasulu/CARBON/AIRSS/Generating-Clusters/LCBOP/Only-C1/SD-CG/FIRE-CG
REM
REM
REM
REM
REM
REM ./C.cell (11c1c37f851c82e70ff6c80c92926a4b)
REM AIRSS Version 0.9.1 bugfix July 2018 build 013d7b7c2542+ Fri, 06 Jul 2018 19:26:36 +0100
REM compiler GCC version 9.2.1 20190827 (Red Hat 9.2.1-1)
REM options -cpp -mtune=generic -march=x86-64 -g -O0 -fpre-include=/usr/include/finclude/math-vector-fortran.h
REM seed 719475368 1763343354 -2146865793 -1211130261 114627629 -478036586 -1243430053 1951490667 1204552919 -128086412 1892296837 436406590 1404017444 1859909688 296613646 2143770410 -802599279 2123772444 -203160707 420131040 2130965718 -1791222946 -247987330 -759284122 -136678565 -438468330 -645864164 -2112147703 -626388276 115756220 -840853641 1997207449 -383853022
REM
CELL 1.54180   50.00000   50.00000   50.00000   90.00000   90.00000   90.00000
LATT -1
SFAC C  
C      1  0.5534740000000  0.5907600000000  0.4575420000000 1.0
C      1  0.3987410000000  0.4585250000000  0.5494080000000 1.0
C      1  0.4278410000000  0.5666320000000  0.4179760000000 1.0
C      1  0.5278050000000  0.5521320000000  0.5084250000000 1.0
C      1  0.4378350000000  0.4348090000000  0.5425600000000 1.0
C      1  0.4324170000000  0.6474360000000  0.4608470000000 1.0
C      1  0.4919390000000  0.4628810000000  0.3769740000000 1.0
C      1  0.4409780000000  0.4561450000000  0.4710660000000 1.0
C      1  0.5026780000000  0.4430860000000  0.5026110000000 1.0
C      1  0.5470050000000  0.4502630000000  0.4716910000000 1.0
C      1  0.4411780000000  0.4367880000000  0.6456850000000 1.0
C      1  0.4534120000000  0.4423950000000  0.6233610000000 1.0
C      1  0.5698790000000  0.4959080000000  0.5025040000000 1.0
C      1  0.6148870000000  0.4741450000000  0.5152800000000 1.0
C      1  0.5433940000000  0.5714000000000  0.4098090000000 1.0
C      1  0.5784310000000  0.4100150000000  0.5297410000000 1.0
C      1  0.4539810000000  0.4149510000000  0.4452000000000 1.0
C      1  0.5694390000000  0.5830860000000  0.4805390000000 1.0
C      1  0.5153660000000  0.5618260000000  0.5703560000000 1.0
C      1  0.4873940000000  0.4279410000000  0.5645720000000 1.0
C      1  0.5078600000000  0.5780980000000  0.4710750000000 1.0
C      1  0.5990350000000  0.5676580000000  0.5169710000000 1.0
C      1  0.3879270000000  0.5150730000000  0.5585980000000 1.0
C      1  0.4491400000000  0.3958490000000  0.5094690000000 1.0
C      1  0.3891610000000  0.4961200000000  0.4307250000000 1.0
C      1  0.4418000000000  0.5138300000000  0.3803790000000 1.0
C      1  0.5426400000000  0.5078420000000  0.5258590000000 1.0
C      1  0.5206080000000  0.5135240000000  0.5101560000000 1.0
C      1  0.5853090000000  0.4164030000000  0.4714440000000 1.0
C      1  0.5256800000000  0.4551840000000  0.5164120000000 1.0
C      1  0.4009200000000  0.5144770000000  0.5840960000000 1.0
C      1  0.5802810000000  0.4350080000000  0.5702140000000 1.0
C      1  0.4889360000000  0.5597810000000  0.5303020000000 1.0
C      1  0.5219600000000  0.4498820000000  0.6168370000000 1.0
C      1  0.4661860000000  0.4979570000000  0.5562160000000 1.0
C      1  0.6207150000000  0.4974450000000  0.5312120000000 1.0
C      1  0.4755190000000  0.5465430000000  0.4407390000000 1.0
C      1  0.3634400000000  0.4981580000000  0.4394850000000 1.0
C      1  0.5197310000000  0.5361780000000  0.3821380000000 1.0
C      1  0.4426390000000  0.4158200000000  0.5630210000000 1.0
C      1  0.4772050000000  0.5388490000000  0.5988110000000 1.0
C      1  0.5073350000000  0.4433270000000  0.4470620000000 1.0
C      1  0.3999100000000  0.5633580000000  0.4928130000000 1.0
C      1  0.4694200000000  0.4060610000000  0.5568570000000 1.0
C      1  0.5970520000000  0.5099760000000  0.4331720000000 1.0
C      1  0.3990490000000  0.5125120000000  0.5091860000000 1.0
C      1  0.4616700000000  0.4699660000000  0.4539170000000 1.0
C      1  0.4238510000000  0.5011810000000  0.3989870000000 1.0
C      1  0.4656190000000  0.5089400000000  0.4785830000000 1.0
C      1  0.4114830000000  0.4555390000000  0.4603720000000 1.0
C      1  0.5532820000000  0.4955750000000  0.4463410000000 1.0
C      1  0.4877080000000  0.5693480000000  0.4275070000000 1.0
C      1  0.5343820000000  0.4743020000000  0.5376830000000 1.0
C      1  0.4147330000000  0.5468980000000  0.5343950000000 1.0
C      1  0.6430610000000  0.5146140000000  0.6235860000000 1.0
C      1  0.6566970000000  0.5187980000000  0.6454080000000 1.0
C      1  0.5538360000000  0.5942580000000  0.5674810000000 1.0
C      1  0.5043560000000  0.4400330000000  0.4737980000000 1.0
C      1  0.4071870000000  0.4733810000000  0.4367940000000 1.0
C      1  0.5491400000000  0.5593330000000  0.5290010000000 1.0
C      1  0.5927690000000  0.4571880000000  0.5248530000000 1.0
C      1  0.5918000000000  0.5480800000000  0.4577840000000 1.0
C      1  0.5395110000000  0.5728890000000  0.5568990000000 1.0
C      1  0.4592110000000  0.4468360000000  0.5279260000000 1.0
C      1  0.5364560000000  0.5839940000000  0.4344740000000 1.0
C      1  0.3858490000000  0.5020870000000  0.5330000000000 1.0
C      1  0.5159660000000  0.5069980000000  0.3775090000000 1.0
C      1  0.4702490000000  0.5013840000000  0.4209510000000 1.0
C      1  0.3803150000000  0.4748510000000  0.5358970000000 1.0
C      1  0.4115140000000  0.4391970000000  0.5331420000000 1.0
C      1  0.6072020000000  0.4588480000000  0.4656180000000 1.0
C      1  0.4721320000000  0.5117650000000  0.6116230000000 1.0
C      1  0.4515150000000  0.5524520000000  0.4539800000000 1.0
C      1  0.4644350000000  0.3889450000000  0.5335330000000 1.0
C      1  0.4332660000000  0.5298300000000  0.5424570000000 1.0
C      1  0.5081060000000  0.4997670000000  0.5725560000000 1.0
C      1  0.4201760000000  0.4930180000000  0.5886260000000 1.0
C      1  0.4913090000000  0.4914050000000  0.3735060000000 1.0
C      1  0.5357980000000  0.4752310000000  0.4587660000000 1.0
C      1  0.4872130000000  0.4377080000000  0.3852410000000 1.0
C      1  0.5473050000000  0.4741110000000  0.5626150000000 1.0
C      1  0.6076810000000  0.4316560000000  0.4739590000000 1.0
C      1  0.4026890000000  0.5162840000000  0.4125210000000 1.0
C      1  0.4204640000000  0.4985310000000  0.4943320000000 1.0
C      1  0.6146690000000  0.5054130000000  0.5797830000000 1.0
C      1  0.4523000000000  0.5225730000000  0.5607000000000 1.0
C      1  0.5463340000000  0.4015110000000  0.5640320000000 1.0
C      1  0.4786140000000  0.5852520000000  0.5363830000000 1.0
C      1  0.5492950000000  0.4526670000000  0.4998870000000 1.0
C      1  0.6291160000000  0.5102890000000  0.6014660000000 1.0
C      1  0.5486230000000  0.4497520000000  0.4156750000000 1.0
C      1  0.5705060000000  0.5341950000000  0.3945020000000 1.0
C      1  0.6265670000000  0.5241590000000  0.5206560000000 1.0
C      1  0.5171800000000  0.5043210000000  0.5988610000000 1.0
C      1  0.4006920000000  0.5417240000000  0.5107970000000 1.0
C      1  0.5447800000000  0.5032970000000  0.6016650000000 1.0
C      1  0.4807140000000  0.4866200000000  0.4673360000000 1.0
C      1  0.3950780000000  0.5328100000000  0.6035230000000 1.0
C      1  0.5942200000000  0.4510440000000  0.5884890000000 1.0
C      1  0.5914390000000  0.5240560000000  0.4087790000000 1.0
C      1  0.4450300000000  0.4993190000000  0.6046200000000 1.0
C      1  0.4662510000000  0.4498370000000  0.6013740000000 1.0
C      1  0.4485320000000  0.5626060000000  0.3971970000000 1.0
C      1  0.3986010000000  0.4394340000000  0.4822580000000 1.0
C      1  0.4205840000000  0.4001160000000  0.5067990000000 1.0
C      1  0.5199800000000  0.5099860000000  0.4818430000000 1.0
C      1  0.5899060000000  0.4627010000000  0.4419800000000 1.0
C      1  0.3890300000000  0.5570820000000  0.4675820000000 1.0
C      1  0.5383810000000  0.4901840000000  0.3826660000000 1.0
C      1  0.4632840000000  0.4154600000000  0.4940990000000 1.0
C      1  0.4766850000000  0.6103730000000  0.5992770000000 1.0
C      1  0.5868540000000  0.5276350000000  0.5447690000000 1.0
C      1  0.4413070000000  0.5421430000000  0.3787660000000 1.0
C      1  0.4255030000000  0.4059120000000  0.5822480000000 1.0
C      1  0.4330260000000  0.5886650000000  0.5213230000000 1.0
C      1  0.4754830000000  0.5847160000000  0.5889100000000 1.0
C      1  0.4857100000000  0.4815970000000  0.5702170000000 1.0
C      1  0.5795120000000  0.4882240000000  0.4374410000000 1.0
C      1  0.5123480000000  0.5196680000000  0.4261400000000 1.0
C      1  0.5702710000000  0.5745710000000  0.5109970000000 1.0
C      1  0.5046430000000  0.5446480000000  0.5495760000000 1.0
C      1  0.6007150000000  0.5210430000000  0.4607370000000 1.0
C      1  0.5282980000000  0.5322700000000  0.4674930000000 1.0
C      1  0.4637950000000  0.4125650000000  0.4204680000000 1.0
C      1  0.5446040000000  0.4017580000000  0.4457170000000 1.0
C      1  0.6061560000000  0.5433910000000  0.5289220000000 1.0
C      1  0.5075830000000  0.3972990000000  0.4063750000000 1.0
C      1  0.5611660000000  0.4258100000000  0.4562250000000 1.0
C      1  0.4518070000000  0.4270940000000  0.4706830000000 1.0
C      1  0.4358190000000  0.4737500000000  0.4973250000000 1.0
C      1  0.4212320000000  0.5834420000000  0.4944560000000 1.0
C      1  0.4375530000000  0.5132300000000  0.4766840000000 1.0
C      1  0.5463750000000  0.3769310000000  0.4567880000000 1.0
C      1  0.4374130000000  0.5765880000000  0.4452220000000 1.0
C      1  0.4062020000000  0.4257370000000  0.5075650000000 1.0
C      1  0.4778050000000  0.4331930000000  0.5115610000000 1.0
C      1  0.4545550000000  0.4725410000000  0.5182810000000 1.0
C      1  0.5705610000000  0.4679440000000  0.5096030000000 1.0
C      1  0.5483620000000  0.4688580000000  0.3952930000000 1.0
C      1  0.4554060000000  0.4789300000000  0.4280250000000 1.0
C      1  0.5223660000000  0.5561030000000  0.4821050000000 1.0
C      1  0.4653950000000  0.5020720000000  0.3703260000000 1.0
C      1  0.4776850000000  0.5238700000000  0.4983150000000 1.0
C      1  0.4536160000000  0.5731220000000  0.5719930000000 1.0
C      1  0.4076170000000  0.3960790000000  0.5984510000000 1.0
C      1  0.5054610000000  0.4698990000000  0.6260450000000 1.0
C      1  0.5245560000000  0.4371470000000  0.4253070000000 1.0
C      1  0.5090920000000  0.5805460000000  0.4423890000000 1.0
C      1  0.5595260000000  0.5303830000000  0.5371120000000 1.0
C      1  0.4053070000000  0.5420510000000  0.4506190000000 1.0
C      1  0.6109770000000  0.4794030000000  0.4860880000000 1.0
C      1  0.4293500000000  0.4784570000000  0.4174170000000 1.0
C      1  0.4918540000000  0.5069930000000  0.5165660000000 1.0
C      1  0.4509580000000  0.5852800000000  0.5445610000000 1.0
C      1  0.5678110000000  0.6142300000000  0.5766900000000 1.0
C      1  0.5449860000000  0.5474590000000  0.3935640000000 1.0
C      1  0.5871930000000  0.4344870000000  0.5417710000000 1.0
C      1  0.6136750000000  0.5744090000000  0.4931430000000 1.0
C      1  0.5268010000000  0.4083580000000  0.4239110000000 1.0
C      1  0.5829190000000  0.4738420000000  0.5970190000000 1.0
C      1  0.4779190000000  0.5670410000000  0.4000960000000 1.0
C      1  0.4306240000000  0.5345880000000  0.4613460000000 1.0
C      1  0.4125960000000  0.4694690000000  0.5729990000000 1.0
C      1  0.5546880000000  0.4236870000000  0.5798820000000 1.0
C      1  0.4918270000000  0.6234390000000  0.4943940000000 1.0
C      1  0.4978170000000  0.5996170000000  0.4856470000000 1.0
C      1  0.4074540000000  0.5437480000000  0.4217290000000 1.0
C      1  0.5596060000000  0.4850840000000  0.5862880000000 1.0
C      1  0.5714570000000  0.4425860000000  0.4324330000000 1.0
C      1  0.5582710000000  0.3951040000000  0.5404050000000 1.0
C      1  0.5101350000000  0.4870690000000  0.4683570000000 1.0
C      1  0.5956420000000  0.5721130000000  0.4713740000000 1.0
C      1  0.4848510000000  0.4146590000000  0.4017770000000 1.0
C      1  0.4301020000000  0.5938400000000  0.4678460000000 1.0
C      1  0.4311670000000  0.6216340000000  0.4642760000000 1.0
C      1  0.5669430000000  0.5448170000000  0.4442200000000 1.0
C      1  0.4968910000000  0.5539700000000  0.3826780000000 1.0
C      1  0.6034610000000  0.5051530000000  0.5542050000000 1.0
C      1  0.5929380000000  0.5032750000000  0.4833410000000 1.0
C      1  0.4958360000000  0.5630120000000  0.5927180000000 1.0
C      1  0.5145750000000  0.5183440000000  0.5528560000000 1.0
C      1  0.4968340000000  0.4964520000000  0.6177080000000 1.0
C      1  0.5100180000000  0.3728280000000  0.3946500000000 1.0
C      1  0.4856480000000  0.5222400000000  0.4303700000000 1.0
C      1  0.5382570000000  0.4350840000000  0.6006800000000 1.0
C      1  0.4713320000000  0.4919920000000  0.5290310000000 1.0
C      1  0.4566750000000  0.5439840000000  0.5784620000000 1.0
C      1  0.5479040000000  0.5246740000000  0.4489210000000 1.0
C      1  0.4816830000000  0.4535700000000  0.5778150000000 1.0
C      1  0.4773730000000  0.5497460000000  0.5068510000000 1.0
C      1  0.4784050000000  0.6347970000000  0.6081970000000 1.0
END
