TITL C-627108-131-618 0.0579107914906011 125000 -520.264261252082 0 0 86 (C1) n - 1
REM
REM in /home/nfs/bkarasulu/CARBON/AIRSS/Generating-Clusters/LCBOP/Only-C1/SD-CG/FIRE-CG
REM
REM
REM
REM
REM
REM ./C.cell (11c1c37f851c82e70ff6c80c92926a4b)
REM AIRSS Version 0.9.1 bugfix July 2018 build 013d7b7c2542+ Fri, 06 Jul 2018 19:26:36 +0100
REM compiler GCC version 9.2.1 20190827 (Red Hat 9.2.1-1)
REM options -cpp -mtune=generic -march=x86-64 -g -O0 -fpre-include=/usr/include/finclude/math-vector-fortran.h
REM seed -359676320 -1080428926 -1598021267 1687156723 -1051857263 -1748204640 -387079722 694813167 302465832 -1852910646 1356792676 -594825507 2020537381 -1103137570 -553481721 2078076421 -2126857743 1142449265 -394803896 2131382621 131713031 1567470796 -2008876841 1906767378 -500765962 1843426592 -1836306550 -1490738514 841042465 753438617 -1515272755 996861067 259889939
REM
CELL 1.54180   50.00000   50.00000   50.00000   90.00000   90.00000   90.00000
LATT -1
SFAC C  
C      1  0.5013990000000  0.5393190000000  0.4829320000000 1.0
C      1  0.4626260000000  0.5453640000000  0.5830930000000 1.0
C      1  0.5477000000000  0.5545280000000  0.5400570000000 1.0
C      1  0.4758660000000  0.4780680000000  0.4492740000000 1.0
C      1  0.5855110000000  0.4733170000000  0.4401940000000 1.0
C      1  0.4283400000000  0.4816890000000  0.5383590000000 1.0
C      1  0.5300800000000  0.5526650000000  0.5601600000000 1.0
C      1  0.5311510000000  0.5823980000000  0.4890110000000 1.0
C      1  0.3872760000000  0.4844790000000  0.4030440000000 1.0
C      1  0.4633980000000  0.5149780000000  0.4230090000000 1.0
C      1  0.4520530000000  0.4860680000000  0.5237910000000 1.0
C      1  0.4976030000000  0.4902950000000  0.5439840000000 1.0
C      1  0.5507610000000  0.5623040000000  0.4923100000000 1.0
C      1  0.5515750000000  0.4727760000000  0.4755700000000 1.0
C      1  0.4814440000000  0.4307460000000  0.4611880000000 1.0
C      1  0.4882630000000  0.4912800000000  0.6024240000000 1.0
C      1  0.5086610000000  0.4737130000000  0.5922230000000 1.0
C      1  0.5091070000000  0.5238810000000  0.4069430000000 1.0
C      1  0.5751830000000  0.5010970000000  0.5659870000000 1.0
C      1  0.5699530000000  0.4898230000000  0.4254290000000 1.0
C      1  0.4367120000000  0.4481630000000  0.4452960000000 1.0
C      1  0.4910800000000  0.4292360000000  0.5370840000000 1.0
C      1  0.5457640000000  0.4941670000000  0.5241050000000 1.0
C      1  0.4087160000000  0.4784680000000  0.4165840000000 1.0
C      1  0.5713390000000  0.5005060000000  0.5391850000000 1.0
C      1  0.4747020000000  0.4743240000000  0.5366530000000 1.0
C      1  0.4488290000000  0.5205410000000  0.5871090000000 1.0
C      1  0.3995820000000  0.5149450000000  0.5883080000000 1.0
C      1  0.5765300000000  0.4647000000000  0.4642390000000 1.0
C      1  0.5565030000000  0.4943890000000  0.5844200000000 1.0
C      1  0.4977920000000  0.4351550000000  0.4345620000000 1.0
C      1  0.5466900000000  0.5441000000000  0.5138820000000 1.0
C      1  0.4734950000000  0.5876990000000  0.5577340000000 1.0
C      1  0.5463290000000  0.4469490000000  0.5194820000000 1.0
C      1  0.5321540000000  0.4837550000000  0.4556110000000 1.0
C      1  0.4945260000000  0.5170580000000  0.5527400000000 1.0
C      1  0.4365830000000  0.4193570000000  0.4472130000000 1.0
C      1  0.4864760000000  0.5072610000000  0.4066770000000 1.0
C      1  0.5081140000000  0.5377290000000  0.5628410000000 1.0
C      1  0.4611680000000  0.4950150000000  0.5936100000000 1.0
C      1  0.5035470000000  0.5855090000000  0.4943820000000 1.0
C      1  0.5494630000000  0.4710400000000  0.5038860000000 1.0
C      1  0.4221100000000  0.5367970000000  0.5504960000000 1.0
C      1  0.4902630000000  0.4946540000000  0.4980180000000 1.0
C      1  0.5317930000000  0.5196470000000  0.4204750000000 1.0
C      1  0.4500160000000  0.4705100000000  0.5822690000000 1.0
C      1  0.4920680000000  0.4784640000000  0.4035470000000 1.0
C      1  0.5030000000000  0.3954830000000  0.5050730000000 1.0
C      1  0.4615500000000  0.4986790000000  0.5006780000000 1.0
C      1  0.5340450000000  0.5183520000000  0.5107760000000 1.0
C      1  0.6417960000000  0.5191240000000  0.4068020000000 1.0
C      1  0.4607970000000  0.4089360000000  0.4571470000000 1.0
C      1  0.4598110000000  0.5636270000000  0.5611350000000 1.0
C      1  0.5441850000000  0.4984270000000  0.4336690000000 1.0
C      1  0.6262520000000  0.5322070000000  0.4238240000000 1.0
C      1  0.4223600000000  0.5224970000000  0.5753240000000 1.0
C      1  0.5039890000000  0.4783470000000  0.4590870000000 1.0
C      1  0.5119170000000  0.4357380000000  0.5569820000000 1.0
C      1  0.4570930000000  0.5366830000000  0.4406910000000 1.0
C      1  0.6095380000000  0.5436750000000  0.4408930000000 1.0
C      1  0.4853500000000  0.6030430000000  0.5394120000000 1.0
C      1  0.4950100000000  0.6029110000000  0.5145380000000 1.0
C      1  0.4416090000000  0.5548600000000  0.5402850000000 1.0
C      1  0.5266360000000  0.4810720000000  0.5468470000000 1.0
C      1  0.4707220000000  0.4473430000000  0.5454290000000 1.0
C      1  0.5311030000000  0.4844430000000  0.5776110000000 1.0
C      1  0.4692270000000  0.4500370000000  0.5748190000000 1.0
C      1  0.5723170000000  0.5596290000000  0.4749460000000 1.0
C      1  0.4591100000000  0.5592100000000  0.4875200000000 1.0
C      1  0.6568210000000  0.5059040000000  0.3900960000000 1.0
C      1  0.5914740000000  0.5529240000000  0.4579290000000 1.0
C      1  0.4976830000000  0.4536370000000  0.4140070000000 1.0
C      1  0.4278520000000  0.4730820000000  0.5642880000000 1.0
C      1  0.4458980000000  0.5610240000000  0.5128780000000 1.0
C      1  0.4317200000000  0.4726390000000  0.4308190000000 1.0
C      1  0.4960270000000  0.4215790000000  0.5101210000000 1.0
C      1  0.4990560000000  0.4692770000000  0.4869800000000 1.0
C      1  0.4507590000000  0.5385140000000  0.4688430000000 1.0
C      1  0.4467850000000  0.5138740000000  0.4824570000000 1.0
C      1  0.4873170000000  0.5634660000000  0.4866570000000 1.0
C      1  0.4624200000000  0.4544370000000  0.4581610000000 1.0
C      1  0.4546460000000  0.4903270000000  0.4335390000000 1.0
C      1  0.4984490000000  0.4485500000000  0.5812990000000 1.0
C      1  0.5319890000000  0.4510350000000  0.5437390000000 1.0
C      1  0.5088660000000  0.5165660000000  0.4973780000000 1.0
C      1  0.4945260000000  0.4399180000000  0.4879300000000 1.0
END
