TITL C-627109-622-1969 6.1681443648349e-07 125000 -154.828157481018 0 0 27 (C1) n - 1
REM
REM in /home/nfs/bkarasulu/CARBON/AIRSS/Generating-Clusters/LCBOP/Only-C1/SD-CG/FIRE-CG
REM
REM
REM
REM
REM
REM ./C.cell (11c1c37f851c82e70ff6c80c92926a4b)
REM AIRSS Version 0.9.1 bugfix July 2018 build 013d7b7c2542+ Fri, 06 Jul 2018 19:26:36 +0100
REM compiler GCC version 9.2.1 20190827 (Red Hat 9.2.1-1)
REM options -cpp -mtune=generic -march=x86-64 -g -O0 -fpre-include=/usr/include/finclude/math-vector-fortran.h
REM seed 41003725 -701143916 -1447980035 -1084794902 1114839287 1865466179 2033129799 1948911048 -2073396170 2067784895 481598297 1924798163 101181360 301510254 -1614350456 850597390 1919961512 149001474 1517003446 47928675 -1082167557 1345297313 -1620324834 -730981299 -937944024 1638068572 -1041328767 1970567011 -1013745519 -75032070 -115347596 250160296 1537404602
REM
CELL 1.54180   50.00000   50.00000   50.00000   90.00000   90.00000   90.00000
LATT -1
SFAC C  
C      1  0.4506290000000  0.4919580000000  0.5181430000000 1.0
C      1  0.4614320000000  0.5012090000000  0.4664210000000 1.0
C      1  0.4476800000000  0.5023550000000  0.4428110000000 1.0
C      1  0.4554880000000  0.5408730000000  0.5278690000000 1.0
C      1  0.5365950000000  0.4909850000000  0.5047390000000 1.0
C      1  0.5459550000000  0.4547170000000  0.4729110000000 1.0
C      1  0.4742760000000  0.5599900000000  0.5247920000000 1.0
C      1  0.4822360000000  0.5088870000000  0.5502640000000 1.0
C      1  0.4588450000000  0.5136830000000  0.5347680000000 1.0
C      1  0.5069220000000  0.4825580000000  0.4641490000000 1.0
C      1  0.5407630000000  0.4382830000000  0.4518750000000 1.0
C      1  0.4816870000000  0.4547300000000  0.5319380000000 1.0
C      1  0.5027210000000  0.4641000000000  0.4427400000000 1.0
C      1  0.5160000000000  0.5383640000000  0.5343630000000 1.0
C      1  0.5069440000000  0.4639290000000  0.5326350000000 1.0
C      1  0.4577770000000  0.4659300000000  0.5266540000000 1.0
C      1  0.5598390000000  0.5064050000000  0.5057910000000 1.0
C      1  0.5196880000000  0.4886540000000  0.5274170000000 1.0
C      1  0.5024370000000  0.5621250000000  0.5269520000000 1.0
C      1  0.5187420000000  0.4430040000000  0.4365920000000 1.0
C      1  0.5001080000000  0.5302140000000  0.4688900000000 1.0
C      1  0.5299340000000  0.4769440000000  0.4810180000000 1.0
C      1  0.5811290000000  0.5214170000000  0.5064880000000 1.0
C      1  0.4481020000000  0.4965420000000  0.4906370000000 1.0
C      1  0.4897580000000  0.5049360000000  0.4669320000000 1.0
C      1  0.5156630000000  0.5854670000000  0.5221270000000 1.0
C      1  0.5086520000000  0.5117420000000  0.5400800000000 1.0
END
