TITL C-627110-360-1523 404.383749430984 125000 -1116.40902218701 0 0 184 (C1) n - 1
REM
REM in /home/nfs/bkarasulu/CARBON/AIRSS/Generating-Clusters/LCBOP/Only-C1/SD-CG/FIRE-CG
REM
REM
REM
REM
REM
REM ./C.cell (11c1c37f851c82e70ff6c80c92926a4b)
REM AIRSS Version 0.9.1 bugfix July 2018 build 013d7b7c2542+ Fri, 06 Jul 2018 19:26:36 +0100
REM compiler GCC version 9.2.1 20190827 (Red Hat 9.2.1-1)
REM options -cpp -mtune=generic -march=x86-64 -g -O0 -fpre-include=/usr/include/finclude/math-vector-fortran.h
REM seed 534273402 -764712424 1276482301 126206669 -1601707258 2055182538 2012125361 -1421076896 -562306079 -1106176657 1096656316 -651370674 -935581476 -1047153935 -2049428208 -1490699906 1381022979 985121772 -1542676658 308879382 -1077371000 -2009837055 393340797 578732334 -1459456498 454980102 -1885839665 -1103868711 1802575715 1343483232 636017860 -1074934344 99442201
REM
CELL 1.54180   50.00000   50.00000   50.00000   90.00000   90.00000   90.00000
LATT -1
SFAC C  
C      1  0.4781360000000  0.5166940000000  0.4372640000000 1.0
C      1  0.4431120000000  0.4856180000000  0.3991460000000 1.0
C      1  0.4972780000000  0.5736010000000  0.4868570000000 1.0
C      1  0.4219340000000  0.5850360000000  0.4539340000000 1.0
C      1  0.4749310000000  0.5313710000000  0.4791630000000 1.0
C      1  0.4954360000000  0.5911810000000  0.5070290000000 1.0
C      1  0.5005730000000  0.4889810000000  0.6185610000000 1.0
C      1  0.5093020000000  0.4098260000000  0.5237890000000 1.0
C      1  0.5943850000000  0.5339420000000  0.5071970000000 1.0
C      1  0.4567330000000  0.4414310000000  0.6083800000000 1.0
C      1  0.6223490000000  0.4913890000000  0.5189020000000 1.0
C      1  0.4020580000000  0.5334710000000  0.4294880000000 1.0
C      1  0.4068190000000  0.4744830000000  0.5544250000000 1.0
C      1  0.3912970000000  0.4068410000000  0.4919280000000 1.0
C      1  0.4151750000000  0.5461700000000  0.5827740000000 1.0
C      1  0.5300230000000  0.4260140000000  0.4672550000000 1.0
C      1  0.5440960000000  0.5697090000000  0.6046780000000 1.0
C      1  0.4948150000000  0.5264740000000  0.5233700000000 1.0
C      1  0.5716710000000  0.5814530000000  0.5039300000000 1.0
C      1  0.4671620000000  0.4243720000000  0.5900100000000 1.0
C      1  0.4336310000000  0.5837890000000  0.5548580000000 1.0
C      1  0.4071010000000  0.4285400000000  0.4968630000000 1.0
C      1  0.4131840000000  0.5022280000000  0.6096260000000 1.0
C      1  0.5010920000000  0.5863350000000  0.5929490000000 1.0
C      1  0.5738810000000  0.5433040000000  0.5702480000000 1.0
C      1  0.5056210000000  0.4164040000000  0.4930940000000 1.0
C      1  0.4455500000000  0.5556440000000  0.4247280000000 1.0
C      1  0.4617280000000  0.5034460000000  0.5956030000000 1.0
C      1  0.5928380000000  0.5212240000000  0.4540180000000 1.0
C      1  0.4843570000000  0.2662590000000  0.4878600000000 1.0
C      1  0.5560400000000  0.4631740000000  0.4838670000000 1.0
C      1  0.5831290000000  0.4555620000000  0.5938310000000 1.0
C      1  0.3953490000000  0.5832980000000  0.4439290000000 1.0
C      1  0.5969830000000  0.4929830000000  0.4500480000000 1.0
C      1  0.5218320000000  0.5496350000000  0.5633780000000 1.0
C      1  0.5845920000000  0.4319020000000  0.4617170000000 1.0
C      1  0.4952500000000  0.5047290000000  0.4191070000000 1.0
C      1  0.4960840000000  0.5501290000000  0.4709950000000 1.0
C      1  0.4859810000000  0.5774780000000  0.3906130000000 1.0
C      1  0.5347310000000  0.5928490000000  0.5882970000000 1.0
C      1  0.4905210000000  0.4058880000000  0.5450530000000 1.0
C      1  0.6141750000000  0.3992220000000  0.4840600000000 1.0
C      1  0.5666060000000  0.5559560000000  0.5952160000000 1.0
C      1  0.4354560000000  0.5110690000000  0.5447430000000 1.0
C      1  0.5550550000000  0.5881030000000  0.4803040000000 1.0
C      1  0.5702780000000  0.5640610000000  0.4378660000000 1.0
C      1  0.4467520000000  0.6110550000000  0.5506660000000 1.0
C      1  0.5790930000000  0.4751130000000  0.4371140000000 1.0
C      1  0.5995870000000  0.5086680000000  0.5202600000000 1.0
C      1  0.4036160000000  0.4609290000000  0.4153660000000 1.0
C      1  0.5538810000000  0.4829740000000  0.4274110000000 1.0
C      1  0.5019450000000  0.3882990000000  0.4834180000000 1.0
C      1  0.5346590000000  0.4175790000000  0.5315750000000 1.0
C      1  0.5752900000000  0.4939730000000  0.5251700000000 1.0
C      1  0.4338820000000  0.4841230000000  0.5538120000000 1.0
C      1  0.4457420000000  0.5448450000000  0.5802040000000 1.0
C      1  0.4559210000000  0.5723720000000  0.5747070000000 1.0
C      1  0.5171030000000  0.5124540000000  0.6227170000000 1.0
C      1  0.4346420000000  0.5155470000000  0.4985840000000 1.0
C      1  0.5079000000000  0.5392980000000  0.6280840000000 1.0
C      1  0.5863850000000  0.5403270000000  0.4322780000000 1.0
C      1  0.4435590000000  0.5823270000000  0.4352640000000 1.0
C      1  0.5839510000000  0.5591760000000  0.5202700000000 1.0
C      1  0.5316110000000  0.4875810000000  0.5484590000000 1.0
C      1  0.5104880000000  0.3934660000000  0.4343700000000 1.0
C      1  0.6289440000000  0.4633930000000  0.5198500000000 1.0
C      1  0.5583190000000  0.4503330000000  0.3931130000000 1.0
C      1  0.4089670000000  0.4797010000000  0.4792290000000 1.0
C      1  0.6148050000000  0.4779440000000  0.4655310000000 1.0
C      1  0.4571140000000  0.5290480000000  0.6016850000000 1.0
C      1  0.5868400000000  0.4443780000000  0.5685180000000 1.0
C      1  0.6280420000000  0.4167070000000  0.4994020000000 1.0
C      1  0.4687600000000  0.5423390000000  0.4323670000000 1.0
C      1  0.4735960000000  0.5065900000000  0.4635750000000 1.0
C      1  0.5589140000000  0.5650560000000  0.4638250000000 1.0
C      1  0.4411190000000  0.5160100000000  0.3959320000000 1.0
C      1  0.4347950000000  0.4903440000000  0.4855240000000 1.0
C      1  0.4795690000000  0.5890100000000  0.5758000000000 1.0
C      1  0.4531050000000  0.4660600000000  0.6230430000000 1.0
C      1  0.4508030000000  0.5380920000000  0.4927470000000 1.0
C      1  0.4911100000000  0.4606430000000  0.4163120000000 1.0
C      1  0.4682060000000  0.5248710000000  0.3849450000000 1.0
C      1  0.5587330000000  0.4987630000000  0.3821480000000 1.0
C      1  0.5113080000000  0.6091170000000  0.4550120000000 1.0
C      1  0.5200020000000  0.3667230000000  0.4792300000000 1.0
C      1  0.4927680000000  0.4557730000000  0.5228800000000 1.0
C      1  0.5881100000000  0.5325310000000  0.4052850000000 1.0
C      1  0.5148840000000  0.5424470000000  0.4489560000000 1.0
C      1  0.5662150000000  0.4466830000000  0.5495540000000 1.0
C      1  0.5000330000000  0.4801510000000  0.5908960000000 1.0
C      1  0.4538850000000  0.5291620000000  0.5550320000000 1.0
C      1  0.5374990000000  0.5336050000000  0.4955810000000 1.0
C      1  0.3784900000000  0.5097360000000  0.4985060000000 1.0
C      1  0.4895360000000  0.4431820000000  0.4959420000000 1.0
C      1  0.5516970000000  0.4774690000000  0.3990300000000 1.0
C      1  0.5076010000000  0.4813500000000  0.4290380000000 1.0
C      1  0.4283390000000  0.5798760000000  0.4806050000000 1.0
C      1  0.5337500000000  0.6051310000000  0.4706380000000 1.0
C      1  0.4490050000000  0.4365580000000  0.5290140000000 1.0
C      1  0.3933890000000  0.5141500000000  0.4488310000000 1.0
C      1  0.5194080000000  0.5521920000000  0.4222800000000 1.0
C      1  0.5213910000000  0.4845020000000  0.5000970000000 1.0
C      1  0.5109470000000  0.3404200000000  0.4812350000000 1.0
C      1  0.5215720000000  0.4683520000000  0.5265550000000 1.0
C      1  0.5284400000000  0.5786950000000  0.4159890000000 1.0
C      1  0.4596390000000  0.4307270000000  0.4599580000000 1.0
C      1  0.5755110000000  0.5194130000000  0.3856790000000 1.0
C      1  0.5471150000000  0.3720440000000  0.4731290000000 1.0
C      1  0.5177840000000  0.5611520000000  0.6132090000000 1.0
C      1  0.4950610000000  0.4359400000000  0.4288170000000 1.0
C      1  0.5642060000000  0.5031290000000  0.5960510000000 1.0
C      1  0.4092330000000  0.5713820000000  0.5689160000000 1.0
C      1  0.4813050000000  0.5289720000000  0.5482550000000 1.0
C      1  0.4931230000000  0.2907020000000  0.4855450000000 1.0
C      1  0.6314850000000  0.4514240000000  0.5451560000000 1.0
C      1  0.4283820000000  0.4727100000000  0.4193820000000 1.0
C      1  0.4854100000000  0.5484730000000  0.3860990000000 1.0
C      1  0.4398360000000  0.5636180000000  0.5003410000000 1.0
C      1  0.3794450000000  0.4500860000000  0.4151800000000 1.0
C      1  0.3899040000000  0.5004740000000  0.4737370000000 1.0
C      1  0.5186880000000  0.4210030000000  0.4410850000000 1.0
C      1  0.4422130000000  0.4724820000000  0.4435220000000 1.0
C      1  0.4518410000000  0.6298650000000  0.4341310000000 1.0
C      1  0.4027320000000  0.4530090000000  0.4838980000000 1.0
C      1  0.4711600000000  0.4753200000000  0.3964460000000 1.0
C      1  0.4906930000000  0.6046460000000  0.5296990000000 1.0
C      1  0.5030680000000  0.5918200000000  0.4101000000000 1.0
C      1  0.5338680000000  0.4785760000000  0.4752510000000 1.0
C      1  0.4719790000000  0.4192640000000  0.4373900000000 1.0
C      1  0.4758060000000  0.6079210000000  0.5534080000000 1.0
C      1  0.3919780000000  0.5093800000000  0.5237800000000 1.0
C      1  0.5740770000000  0.4355980000000  0.4099290000000 1.0
C      1  0.5561220000000  0.4371840000000  0.4728020000000 1.0
C      1  0.5787900000000  0.4802700000000  0.6025870000000 1.0
C      1  0.4271210000000  0.5349560000000  0.4143900000000 1.0
C      1  0.6238770000000  0.4446620000000  0.4987210000000 1.0
C      1  0.4687140000000  0.4548200000000  0.5383360000000 1.0
C      1  0.5109030000000  0.5402480000000  0.3980190000000 1.0
C      1  0.4020140000000  0.5215730000000  0.5908110000000 1.0
C      1  0.5213120000000  0.4814780000000  0.5736620000000 1.0
C      1  0.4627320000000  0.6044410000000  0.4347280000000 1.0
C      1  0.6133240000000  0.4397130000000  0.5608640000000 1.0
C      1  0.5020460000000  0.3155580000000  0.4832830000000 1.0
C      1  0.4740010000000  0.4832360000000  0.5801590000000 1.0
C      1  0.5311350000000  0.4882770000000  0.4466340000000 1.0
C      1  0.5832260000000  0.4460110000000  0.4347540000000 1.0
C      1  0.3875380000000  0.4958770000000  0.5490940000000 1.0
C      1  0.4359940000000  0.5713500000000  0.5271780000000 1.0
C      1  0.4197750000000  0.5165380000000  0.5221900000000 1.0
C      1  0.3776070000000  0.6038940000000  0.4457720000000 1.0
C      1  0.5307160000000  0.5529430000000  0.5382800000000 1.0
C      1  0.5577440000000  0.5002920000000  0.5468860000000 1.0
C      1  0.3556150000000  0.4396150000000  0.4166040000000 1.0
C      1  0.5842250000000  0.5299860000000  0.4802480000000 1.0
C      1  0.5280950000000  0.5176850000000  0.4518260000000 1.0
C      1  0.4290000000000  0.4822550000000  0.6198780000000 1.0
C      1  0.4284190000000  0.4272500000000  0.5150440000000 1.0
C      1  0.5909420000000  0.4032280000000  0.4682540000000 1.0
C      1  0.4596220000000  0.4724460000000  0.5584400000000 1.0
C      1  0.5438570000000  0.5103670000000  0.6139990000000 1.0
C      1  0.4905810000000  0.5436810000000  0.6488780000000 1.0
C      1  0.6095040000000  0.4526840000000  0.4763480000000 1.0
C      1  0.4991340000000  0.5364240000000  0.5689440000000 1.0
C      1  0.4848820000000  0.5014870000000  0.3925780000000 1.0
C      1  0.4788520000000  0.4120680000000  0.5688280000000 1.0
C      1  0.3889430000000  0.5586340000000  0.4318350000000 1.0
C      1  0.5582060000000  0.5410710000000  0.4785850000000 1.0
C      1  0.3825730000000  0.5115460000000  0.5723370000000 1.0
C      1  0.5205750000000  0.5372830000000  0.5171760000000 1.0
C      1  0.5670000000000  0.5153890000000  0.5698290000000 1.0
C      1  0.5471920000000  0.6311090000000  0.5614780000000 1.0
C      1  0.4825530000000  0.3924960000000  0.4334770000000 1.0
C      1  0.5704130000000  0.3838510000000  0.4673570000000 1.0
C      1  0.5703340000000  0.5888830000000  0.5560650000000 1.0
C      1  0.4778180000000  0.4783720000000  0.6328970000000 1.0
C      1  0.4916690000000  0.6032130000000  0.4340420000000 1.0
C      1  0.5701040000000  0.4741340000000  0.5055600000000 1.0
C      1  0.4697300000000  0.4523460000000  0.4768100000000 1.0
C      1  0.5427770000000  0.4438350000000  0.5342090000000 1.0
C      1  0.4578460000000  0.4804360000000  0.4687530000000 1.0
C      1  0.3991890000000  0.4493310000000  0.5616080000000 1.0
C      1  0.5563860000000  0.5806780000000  0.4191240000000 1.0
C      1  0.5788030000000  0.5623360000000  0.5488010000000 1.0
C      1  0.5505880000000  0.6049640000000  0.5685420000000 1.0
END
