TITL C-627108-131-463 0.287472796914324 125000 -440.984466382832 0 0 75 (C1) n - 1
REM
REM in /home/nfs/bkarasulu/CARBON/AIRSS/Generating-Clusters/LCBOP/Only-C1/SD-CG/FIRE-CG
REM
REM
REM
REM
REM
REM ./C.cell (11c1c37f851c82e70ff6c80c92926a4b)
REM AIRSS Version 0.9.1 bugfix July 2018 build 013d7b7c2542+ Fri, 06 Jul 2018 19:26:36 +0100
REM compiler GCC version 9.2.1 20190827 (Red Hat 9.2.1-1)
REM options -cpp -mtune=generic -march=x86-64 -g -O0 -fpre-include=/usr/include/finclude/math-vector-fortran.h
REM seed 1091831114 -1367726850 1237696152 434826478 -810116171 -805283216 1513121169 207191695 -1053457396 627007840 -2117342048 -291862321 446312485 712573239 1372963662 1904458113 -559682825 488427393 -1674605326 -1061424820 1311212709 -1564497410 253105821 946638804 -341328452 629063407 2055540636 -280184724 1635862570 -1794126515 1535028491 -987431155 -607064433
REM
CELL 1.54180   50.00000   50.00000   50.00000   90.00000   90.00000   90.00000
LATT -1
SFAC C  
C      1  0.4731420000000  0.5075160000000  0.4974650000000 1.0
C      1  0.5180500000000  0.4219800000000  0.4853160000000 1.0
C      1  0.4988060000000  0.4330750000000  0.5342960000000 1.0
C      1  0.5793210000000  0.4476660000000  0.4866820000000 1.0
C      1  0.5265950000000  0.5519330000000  0.5598290000000 1.0
C      1  0.5412680000000  0.5054520000000  0.5286500000000 1.0
C      1  0.5107020000000  0.4761150000000  0.5679110000000 1.0
C      1  0.3923520000000  0.5231390000000  0.5166580000000 1.0
C      1  0.4826500000000  0.5066790000000  0.5918870000000 1.0
C      1  0.5163510000000  0.4591090000000  0.4212430000000 1.0
C      1  0.4302110000000  0.4631200000000  0.5298100000000 1.0
C      1  0.4326070000000  0.4936330000000  0.5877940000000 1.0
C      1  0.4776360000000  0.5605660000000  0.5400760000000 1.0
C      1  0.5719360000000  0.4967810000000  0.4477450000000 1.0
C      1  0.4531810000000  0.5592250000000  0.5004610000000 1.0
C      1  0.5681740000000  0.4463880000000  0.5115430000000 1.0
C      1  0.5034770000000  0.5463600000000  0.5025350000000 1.0
C      1  0.4586830000000  0.5328260000000  0.4872000000000 1.0
C      1  0.4798960000000  0.4419080000000  0.4540120000000 1.0
C      1  0.5627210000000  0.5213310000000  0.4339130000000 1.0
C      1  0.5145760000000  0.5009230000000  0.5277290000000 1.0
C      1  0.4938880000000  0.4613040000000  0.4375590000000 1.0
C      1  0.4721920000000  0.5794920000000  0.4876630000000 1.0
C      1  0.5842840000000  0.5194420000000  0.5459180000000 1.0
C      1  0.4520000000000  0.4486390000000  0.5412820000000 1.0
C      1  0.5845080000000  0.5021670000000  0.4729740000000 1.0
C      1  0.4886400000000  0.5933610000000  0.5075100000000 1.0
C      1  0.5257470000000  0.4682740000000  0.5011650000000 1.0
C      1  0.5243720000000  0.5728610000000  0.5395570000000 1.0
C      1  0.5220790000000  0.5469580000000  0.4816310000000 1.0
C      1  0.4522600000000  0.4503000000000  0.4596370000000 1.0
C      1  0.4706640000000  0.4319430000000  0.5272670000000 1.0
C      1  0.5618530000000  0.4686780000000  0.4437190000000 1.0
C      1  0.4955700000000  0.4383970000000  0.4778330000000 1.0
C      1  0.4595200000000  0.4242170000000  0.5018400000000 1.0
C      1  0.4906990000000  0.4848740000000  0.4536020000000 1.0
C      1  0.4713630000000  0.5224590000000  0.4411870000000 1.0
C      1  0.5687680000000  0.5108810000000  0.5242650000000 1.0
C      1  0.4129130000000  0.4812670000000  0.5722260000000 1.0
C      1  0.4528820000000  0.5002070000000  0.4384350000000 1.0
C      1  0.5627810000000  0.4463620000000  0.4634060000000 1.0
C      1  0.5975940000000  0.5282160000000  0.5665330000000 1.0
C      1  0.5000910000000  0.5236580000000  0.4367840000000 1.0
C      1  0.5210060000000  0.5276230000000  0.5711250000000 1.0
C      1  0.4152830000000  0.4825170000000  0.5438860000000 1.0
C      1  0.5426400000000  0.4643950000000  0.4231430000000 1.0
C      1  0.5494890000000  0.5456250000000  0.4317060000000 1.0
C      1  0.4881170000000  0.5107270000000  0.5226720000000 1.0
C      1  0.5066960000000  0.5032100000000  0.5775490000000 1.0
C      1  0.4900900000000  0.5385240000000  0.5265710000000 1.0
C      1  0.5290520000000  0.5642130000000  0.4352630000000 1.0
C      1  0.4843480000000  0.4864080000000  0.4815350000000 1.0
C      1  0.5430440000000  0.5733950000000  0.5176250000000 1.0
C      1  0.4802080000000  0.5686190000000  0.4610960000000 1.0
C      1  0.5044510000000  0.5727190000000  0.4452290000000 1.0
C      1  0.4516150000000  0.5625050000000  0.5287480000000 1.0
C      1  0.5208370000000  0.4261590000000  0.5154380000000 1.0
C      1  0.5176870000000  0.5271850000000  0.4606730000000 1.0
C      1  0.5386440000000  0.4868370000000  0.4855130000000 1.0
C      1  0.5403640000000  0.4480540000000  0.5157120000000 1.0
C      1  0.4657070000000  0.5422910000000  0.4602530000000 1.0
C      1  0.5092590000000  0.5196680000000  0.4111590000000 1.0
C      1  0.4032080000000  0.5036420000000  0.5301160000000 1.0
C      1  0.5057770000000  0.4524010000000  0.5553090000000 1.0
C      1  0.4429510000000  0.4418110000000  0.4856150000000 1.0
C      1  0.4260040000000  0.4576740000000  0.5020640000000 1.0
C      1  0.4565320000000  0.5027960000000  0.5946790000000 1.0
C      1  0.3918900000000  0.4682060000000  0.5838440000000 1.0
C      1  0.5435540000000  0.5630100000000  0.4921730000000 1.0
C      1  0.4968630000000  0.5821070000000  0.5334670000000 1.0
C      1  0.4445500000000  0.4752510000000  0.4466110000000 1.0
C      1  0.4985540000000  0.4637930000000  0.4927700000000 1.0
C      1  0.5411240000000  0.4267100000000  0.4676690000000 1.0
C      1  0.5812880000000  0.5079610000000  0.4990160000000 1.0
C      1  0.5321680000000  0.5042840000000  0.4670200000000 1.0
END
