TITL C-627106-156-153 242818.454982049 125000 -1086.95411414727 0 0 177 (C1) n - 1
REM
REM in /home/nfs/bkarasulu/CARBON/AIRSS/Generating-Clusters/LCBOP/Only-C1/SD-CG/FIRE-CG
REM
REM
REM
REM
REM
REM ./C.cell (11c1c37f851c82e70ff6c80c92926a4b)
REM AIRSS Version 0.9.1 bugfix July 2018 build 013d7b7c2542+ Fri, 06 Jul 2018 19:26:36 +0100
REM compiler GCC version 9.2.1 20190827 (Red Hat 9.2.1-1)
REM options -cpp -mtune=generic -march=x86-64 -g -O0 -fpre-include=/usr/include/finclude/math-vector-fortran.h
REM seed 1249629049 746706345 -377152129 -1259162395 80897530 -885974402 1079090151 1871312878 -369967833 866396515 1988466420 306492115 -1790890742 234851545 357291031 1870631650 -1105518288 631291652 784569125 -1042903673 293634759 -2051362101 1463905388 -496220181 -1618117901 369697738 -1296770298 -1336089008 -266156054 313676250 454662559 454485961 -206692315
REM
CELL 1.54180   50.00000   50.00000   50.00000   90.00000   90.00000   90.00000
LATT -1
SFAC C  
C      1  0.4181750000000  0.5364930000000  0.5778930000000 1.0
C      1  0.5950800000000  0.3942680000000  0.5058240000000 1.0
C      1  0.5857000000000  0.5299660000000  0.5718990000000 1.0
C      1  0.5281350000000  0.4452490000000  0.5223680000000 1.0
C      1  0.5904750000000  0.5463820000000  0.4582720000000 1.0
C      1  0.5257900000000  0.6208910000000  0.5170470000000 1.0
C      1  0.5360120000000  0.5983640000000  0.4738480000000 1.0
C      1  0.5078230000000  0.6277350000000  0.4453290000000 1.0
C      1  0.4914140000000  0.5211130000000  0.5743540000000 1.0
C      1  0.5126780000000  0.5395610000000  0.5640800000000 1.0
C      1  0.6359730000000  0.4882580000000  0.5223720000000 1.0
C      1  0.4698140000000  0.5258970000000  0.5552310000000 1.0
C      1  0.4065410000000  0.4625750000000  0.5753690000000 1.0
C      1  0.5795970000000  0.4147560000000  0.4612540000000 1.0
C      1  0.5909450000000  0.4329890000000  0.4419720000000 1.0
C      1  0.4481830000000  0.5686290000000  0.5749520000000 1.0
C      1  0.4490580000000  0.4563860000000  0.4123240000000 1.0
C      1  0.5464630000000  0.5388380000000  0.5988680000000 1.0
C      1  0.5514730000000  0.5083500000000  0.4599430000000 1.0
C      1  0.4480340000000  0.4990450000000  0.4508580000000 1.0
C      1  0.6069300000000  0.4065410000000  0.5517220000000 1.0
C      1  0.3847440000000  0.4795600000000  0.5687880000000 1.0
C      1  0.4403330000000  0.5000510000000  0.6071810000000 1.0
C      1  0.4204330000000  0.5275000000000  0.5238120000000 1.0
C      1  0.4284250000000  0.4095550000000  0.5504350000000 1.0
C      1  0.5070550000000  0.5616700000000  0.4603980000000 1.0
C      1  0.3938330000000  0.5350810000000  0.4678530000000 1.0
C      1  0.5227320000000  0.5288620000000  0.5389390000000 1.0
C      1  0.5284730000000  0.4935180000000  0.5718240000000 1.0
C      1  0.4632690000000  0.6016350000000  0.4766350000000 1.0
C      1  0.5400430000000  0.5959210000000  0.5550940000000 1.0
C      1  0.4575200000000  0.5331450000000  0.4114910000000 1.0
C      1  0.5902450000000  0.5011690000000  0.5775830000000 1.0
C      1  0.4997400000000  0.5153000000000  0.4938680000000 1.0
C      1  0.3857820000000  0.4891850000000  0.5217540000000 1.0
C      1  0.3774910000000  0.5282390000000  0.4470780000000 1.0
C      1  0.4928990000000  0.4735870000000  0.4688220000000 1.0
C      1  0.5906330000000  0.4161180000000  0.4885720000000 1.0
C      1  0.5845090000000  0.5674750000000  0.5282260000000 1.0
C      1  0.6059520000000  0.4318370000000  0.5609160000000 1.0
C      1  0.5376140000000  0.4282800000000  0.4763330000000 1.0
C      1  0.4451600000000  0.4035080000000  0.4692090000000 1.0
C      1  0.4266010000000  0.5217740000000  0.5998240000000 1.0
C      1  0.4851130000000  0.6060250000000  0.4042550000000 1.0
C      1  0.4643760000000  0.4163300000000  0.4829830000000 1.0
C      1  0.4944540000000  0.4317080000000  0.3979000000000 1.0
C      1  0.5076930000000  0.6253490000000  0.4950670000000 1.0
C      1  0.5705020000000  0.5743530000000  0.5866440000000 1.0
C      1  0.5181500000000  0.5313750000000  0.5105830000000 1.0
C      1  0.4323640000000  0.4751370000000  0.4542020000000 1.0
C      1  0.5740620000000  0.5708420000000  0.4597060000000 1.0
C      1  0.4494040000000  0.4596550000000  0.5485850000000 1.0
C      1  0.4163300000000  0.4291590000000  0.5327190000000 1.0
C      1  0.4784040000000  0.4347810000000  0.4395160000000 1.0
C      1  0.4169950000000  0.4311550000000  0.4387400000000 1.0
C      1  0.5846110000000  0.4910310000000  0.6025160000000 1.0
C      1  0.5739020000000  0.5460250000000  0.5920730000000 1.0
C      1  0.4097530000000  0.5587880000000  0.4684780000000 1.0
C      1  0.4977810000000  0.4547140000000  0.3798520000000 1.0
C      1  0.4683510000000  0.4580540000000  0.5975900000000 1.0
C      1  0.4554840000000  0.5057460000000  0.4220390000000 1.0
C      1  0.5113650000000  0.4861930000000  0.5279260000000 1.0
C      1  0.5506330000000  0.4092690000000  0.4574140000000 1.0
C      1  0.4292500000000  0.4559400000000  0.4329760000000 1.0
C      1  0.4117900000000  0.5276040000000  0.5514950000000 1.0
C      1  0.3818060000000  0.4615420000000  0.5166530000000 1.0
C      1  0.4949390000000  0.4703260000000  0.5980590000000 1.0
C      1  0.4318950000000  0.6013640000000  0.5185120000000 1.0
C      1  0.4696130000000  0.5085950000000  0.5314830000000 1.0
C      1  0.4909380000000  0.3910840000000  0.5281600000000 1.0
C      1  0.5456980000000  0.5344770000000  0.4695290000000 1.0
C      1  0.6027090000000  0.3601480000000  0.5390820000000 1.0
C      1  0.5959830000000  0.4558330000000  0.5499580000000 1.0
C      1  0.4349420000000  0.5503760000000  0.5126540000000 1.0
C      1  0.5060070000000  0.4984660000000  0.4703040000000 1.0
C      1  0.4057870000000  0.5749210000000  0.4450850000000 1.0
C      1  0.4248550000000  0.4095490000000  0.4527110000000 1.0
C      1  0.5804450000000  0.5067290000000  0.3908020000000 1.0
C      1  0.4087490000000  0.5940250000000  0.5348320000000 1.0
C      1  0.4690960000000  0.4345900000000  0.4127600000000 1.0
C      1  0.5405330000000  0.5399810000000  0.4962600000000 1.0
C      1  0.5428180000000  0.4716470000000  0.3837210000000 1.0
C      1  0.6017330000000  0.3866210000000  0.5322720000000 1.0
C      1  0.4600570000000  0.4820980000000  0.4043910000000 1.0
C      1  0.4741720000000  0.6082770000000  0.5438870000000 1.0
C      1  0.5952460000000  0.4817400000000  0.4762310000000 1.0
C      1  0.4778280000000  0.4607600000000  0.5464090000000 1.0
C      1  0.4628710000000  0.4287110000000  0.5864840000000 1.0
C      1  0.4665490000000  0.5998760000000  0.4475430000000 1.0
C      1  0.5645970000000  0.4921930000000  0.5082640000000 1.0
C      1  0.5440440000000  0.6014270000000  0.5279170000000 1.0
C      1  0.5288150000000  0.5008970000000  0.5444070000000 1.0
C      1  0.4608370000000  0.5525640000000  0.5547420000000 1.0
C      1  0.6175330000000  0.5512860000000  0.4965320000000 1.0
C      1  0.5255290000000  0.5012990000000  0.4498960000000 1.0
C      1  0.3773180000000  0.4985490000000  0.5482620000000 1.0
C      1  0.6347110000000  0.4713890000000  0.5013440000000 1.0
C      1  0.4062010000000  0.5062010000000  0.5102730000000 1.0
C      1  0.5119360000000  0.4654970000000  0.5091020000000 1.0
C      1  0.5148020000000  0.4500010000000  0.5951860000000 1.0
C      1  0.6106040000000  0.5698000000000  0.5152680000000 1.0
C      1  0.5843230000000  0.5151020000000  0.5032310000000 1.0
C      1  0.4639180000000  0.3827970000000  0.5232690000000 1.0
C      1  0.5823590000000  0.4509710000000  0.5248550000000 1.0
C      1  0.4856190000000  0.6154910000000  0.4316610000000 1.0
C      1  0.5066650000000  0.3836040000000  0.4815890000000 1.0
C      1  0.4568130000000  0.5133520000000  0.4755750000000 1.0
C      1  0.5224310000000  0.4610950000000  0.3675550000000 1.0
C      1  0.4336460000000  0.4714310000000  0.5696130000000 1.0
C      1  0.4274870000000  0.5661070000000  0.4890240000000 1.0
C      1  0.5108670000000  0.3849920000000  0.4547690000000 1.0
C      1  0.5437140000000  0.5789600000000  0.5764810000000 1.0
C      1  0.4288500000000  0.4664610000000  0.4806230000000 1.0
C      1  0.5637710000000  0.5845850000000  0.5133730000000 1.0
C      1  0.4662920000000  0.5728780000000  0.4377460000000 1.0
C      1  0.5094250000000  0.3982730000000  0.5062870000000 1.0
C      1  0.4896970000000  0.6018270000000  0.4894370000000 1.0
C      1  0.3905670000000  0.4368680000000  0.5240170000000 1.0
C      1  0.4801600000000  0.4772770000000  0.3847150000000 1.0
C      1  0.4874000000000  0.4147360000000  0.5763870000000 1.0
C      1  0.5101590000000  0.4429340000000  0.5478540000000 1.0
C      1  0.4477940000000  0.4769670000000  0.5935180000000 1.0
C      1  0.4113730000000  0.4361960000000  0.5865210000000 1.0
C      1  0.5874820000000  0.5412740000000  0.5445160000000 1.0
C      1  0.5388100000000  0.4522120000000  0.4604480000000 1.0
C      1  0.5274750000000  0.4217300000000  0.5031420000000 1.0
C      1  0.4901640000000  0.4574230000000  0.4472060000000 1.0
C      1  0.5504780000000  0.4566350000000  0.4346830000000 1.0
C      1  0.6015810000000  0.4835430000000  0.5575500000000 1.0
C      1  0.5318740000000  0.5520590000000  0.4507180000000 1.0
C      1  0.4415780000000  0.3882770000000  0.5374840000000 1.0
C      1  0.5391440000000  0.4640030000000  0.4106170000000 1.0
C      1  0.5280250000000  0.4016860000000  0.4380850000000 1.0
C      1  0.5027040000000  0.4958670000000  0.5859520000000 1.0
C      1  0.5150760000000  0.5217200000000  0.4017660000000 1.0
C      1  0.5614580000000  0.5861410000000  0.4828610000000 1.0
C      1  0.5977220000000  0.5345620000000  0.4836650000000 1.0
C      1  0.5947090000000  0.5326290000000  0.4330560000000 1.0
C      1  0.4353920000000  0.4492930000000  0.5267370000000 1.0
C      1  0.5857330000000  0.4855700000000  0.4329780000000 1.0
C      1  0.4553810000000  0.5636160000000  0.5295330000000 1.0
C      1  0.3751670000000  0.5444840000000  0.4252240000000 1.0
C      1  0.4743540000000  0.5824200000000  0.3944250000000 1.0
C      1  0.5235610000000  0.6248430000000  0.4694010000000 1.0
C      1  0.5105940000000  0.5828110000000  0.4787600000000 1.0
C      1  0.4436260000000  0.4542980000000  0.5008380000000 1.0
C      1  0.3999610000000  0.5749730000000  0.5553480000000 1.0
C      1  0.4711570000000  0.5117410000000  0.5021250000000 1.0
C      1  0.3507340000000  0.5658900000000  0.5493560000000 1.0
C      1  0.4197200000000  0.5654250000000  0.5754240000000 1.0
C      1  0.3821110000000  0.5272580000000  0.5517870000000 1.0
C      1  0.4804680000000  0.5557740000000  0.4546100000000 1.0
C      1  0.4345540000000  0.4206090000000  0.5772690000000 1.0
C      1  0.5590660000000  0.4652340000000  0.5195220000000 1.0
C      1  0.5794270000000  0.4571490000000  0.4327810000000 1.0
C      1  0.5182740000000  0.5080840000000  0.4237880000000 1.0
C      1  0.4562800000000  0.5925080000000  0.5309580000000 1.0
C      1  0.4377970000000  0.5937720000000  0.4902470000000 1.0
C      1  0.4907580000000  0.4591910000000  0.4924830000000 1.0
C      1  0.5902000000000  0.5088250000000  0.4171650000000 1.0
C      1  0.5959990000000  0.4415360000000  0.5011470000000 1.0
C      1  0.6110030000000  0.4624180000000  0.4889750000000 1.0
C      1  0.5983370000000  0.5199530000000  0.5280920000000 1.0
C      1  0.5760920000000  0.4936760000000  0.4592700000000 1.0
C      1  0.5283050000000  0.5545180000000  0.5820280000000 1.0
C      1  0.6149110000000  0.4990010000000  0.5374900000000 1.0
C      1  0.5154800000000  0.4151340000000  0.4137080000000 1.0
C      1  0.4682780000000  0.4419980000000  0.4938550000000 1.0
C      1  0.3761990000000  0.5562510000000  0.5520280000000 1.0
C      1  0.4851430000000  0.4857130000000  0.5376560000000 1.0
C      1  0.4636210000000  0.5395830000000  0.4683040000000 1.0
C      1  0.4923560000000  0.3946460000000  0.5566490000000 1.0
C      1  0.3893840000000  0.5678130000000  0.4244260000000 1.0
C      1  0.5100550000000  0.4326370000000  0.5735510000000 1.0
C      1  0.4631900000000  0.5617660000000  0.4113710000000 1.0
C      1  0.5524100000000  0.5687100000000  0.4399710000000 1.0
C      1  0.5625740000000  0.4908890000000  0.3782240000000 1.0
END
