TITL C-627109-622-478 0.138163988046719 125000 -915.80009566019 0 0 149 (C1) n - 1
REM
REM in /home/nfs/bkarasulu/CARBON/AIRSS/Generating-Clusters/LCBOP/Only-C1/SD-CG/FIRE-CG
REM
REM
REM
REM
REM
REM ./C.cell (11c1c37f851c82e70ff6c80c92926a4b)
REM AIRSS Version 0.9.1 bugfix July 2018 build 013d7b7c2542+ Fri, 06 Jul 2018 19:26:36 +0100
REM compiler GCC version 9.2.1 20190827 (Red Hat 9.2.1-1)
REM options -cpp -mtune=generic -march=x86-64 -g -O0 -fpre-include=/usr/include/finclude/math-vector-fortran.h
REM seed -1175563755 450187378 -903436334 1567682618 -766738936 -1774050243 1284230941 1741776450 -1259148904 -2045573926 245692342 -679407206 -1420449662 1124445181 157084260 1603344667 -1461032100 1641962540 -411256522 -1069870087 -34904111 2040650161 -475246164 -1835515487 -566976345 -134892756 -1108468801 75528235 -956027635 -558668069 -1493866716 1654951986 305858245
REM
CELL 1.54180   50.00000   50.00000   50.00000   90.00000   90.00000   90.00000
LATT -1
SFAC C  
C      1  0.5173140000000  0.3843110000000  0.5234790000000 1.0
C      1  0.4479990000000  0.5231930000000  0.4721030000000 1.0
C      1  0.5717380000000  0.4881030000000  0.4143460000000 1.0
C      1  0.5849090000000  0.5031250000000  0.4987360000000 1.0
C      1  0.4874920000000  0.4380320000000  0.5508360000000 1.0
C      1  0.4968780000000  0.4295020000000  0.4708280000000 1.0
C      1  0.5197140000000  0.4850720000000  0.5709190000000 1.0
C      1  0.5342330000000  0.5440580000000  0.5418130000000 1.0
C      1  0.4415980000000  0.4847980000000  0.5352930000000 1.0
C      1  0.5812520000000  0.5487920000000  0.5637520000000 1.0
C      1  0.5252740000000  0.4690340000000  0.4200330000000 1.0
C      1  0.5089140000000  0.4022390000000  0.4384380000000 1.0
C      1  0.4063650000000  0.5262820000000  0.3661890000000 1.0
C      1  0.5876260000000  0.5136460000000  0.5947850000000 1.0
C      1  0.5084750000000  0.4964990000000  0.5024320000000 1.0
C      1  0.5847500000000  0.5595640000000  0.6117070000000 1.0
C      1  0.4154270000000  0.5340090000000  0.5584560000000 1.0
C      1  0.5994960000000  0.5361910000000  0.5450360000000 1.0
C      1  0.4824020000000  0.5387400000000  0.4367370000000 1.0
C      1  0.4956750000000  0.4985080000000  0.5745100000000 1.0
C      1  0.4876020000000  0.5718640000000  0.6089020000000 1.0
C      1  0.5537080000000  0.4873980000000  0.4579060000000 1.0
C      1  0.5306280000000  0.4535470000000  0.5350070000000 1.0
C      1  0.6072900000000  0.5088800000000  0.5518680000000 1.0
C      1  0.5573130000000  0.4659430000000  0.5921180000000 1.0
C      1  0.4866400000000  0.5112310000000  0.4972880000000 1.0
C      1  0.5002340000000  0.6639710000000  0.4550090000000 1.0
C      1  0.4400530000000  0.4510380000000  0.4608880000000 1.0
C      1  0.4876250000000  0.4040680000000  0.4585340000000 1.0
C      1  0.4913730000000  0.5917300000000  0.5909060000000 1.0
C      1  0.4564460000000  0.5205890000000  0.3810680000000 1.0
C      1  0.3803220000000  0.5429460000000  0.5005950000000 1.0
C      1  0.4867670000000  0.5957090000000  0.5633620000000 1.0
C      1  0.3964740000000  0.5614570000000  0.4896180000000 1.0
C      1  0.4639070000000  0.5570730000000  0.5045670000000 1.0
C      1  0.4707460000000  0.5440130000000  0.5755630000000 1.0
C      1  0.4949390000000  0.5318920000000  0.4120200000000 1.0
C      1  0.5236230000000  0.5268430000000  0.4099140000000 1.0
C      1  0.4800990000000  0.4976630000000  0.5982390000000 1.0
C      1  0.3864430000000  0.5155690000000  0.5020590000000 1.0
C      1  0.5171650000000  0.6364020000000  0.4949400000000 1.0
C      1  0.4821320000000  0.5048230000000  0.5498490000000 1.0
C      1  0.4372230000000  0.4401620000000  0.5851390000000 1.0
C      1  0.4332700000000  0.5481870000000  0.5437590000000 1.0
C      1  0.4979530000000  0.4917780000000  0.3862680000000 1.0
C      1  0.5988350000000  0.4810880000000  0.4875530000000 1.0
C      1  0.5874840000000  0.4448280000000  0.5233590000000 1.0
C      1  0.5183420000000  0.4776460000000  0.4850400000000 1.0
C      1  0.4275660000000  0.4954070000000  0.5129500000000 1.0
C      1  0.6040970000000  0.4130390000000  0.4485460000000 1.0
C      1  0.4697850000000  0.5171400000000  0.4515980000000 1.0
C      1  0.5765690000000  0.4810090000000  0.4421100000000 1.0
C      1  0.3621010000000  0.4897190000000  0.4115480000000 1.0
C      1  0.4072250000000  0.5071030000000  0.5535870000000 1.0
C      1  0.4795120000000  0.5207660000000  0.6145210000000 1.0
C      1  0.5509650000000  0.4393490000000  0.5495580000000 1.0
C      1  0.4892210000000  0.4633870000000  0.3929060000000 1.0
C      1  0.5876100000000  0.5492780000000  0.4426410000000 1.0
C      1  0.4536820000000  0.4561900000000  0.4856880000000 1.0
C      1  0.5429710000000  0.4675710000000  0.4755540000000 1.0
C      1  0.4992270000000  0.5907780000000  0.5167530000000 1.0
C      1  0.4313230000000  0.5236780000000  0.3732550000000 1.0
C      1  0.4640110000000  0.6095410000000  0.5538040000000 1.0
C      1  0.6054250000000  0.5481860000000  0.5199010000000 1.0
C      1  0.4805440000000  0.5356130000000  0.5476540000000 1.0
C      1  0.4290550000000  0.6129010000000  0.4622150000000 1.0
C      1  0.5008720000000  0.5807800000000  0.5433140000000 1.0
C      1  0.4337990000000  0.4717460000000  0.4423150000000 1.0
C      1  0.4462460000000  0.6126860000000  0.5340310000000 1.0
C      1  0.4976250000000  0.4279010000000  0.4997560000000 1.0
C      1  0.4391210000000  0.4696970000000  0.5828250000000 1.0
C      1  0.4450750000000  0.5502680000000  0.4838910000000 1.0
C      1  0.4538180000000  0.4101790000000  0.4941260000000 1.0
C      1  0.5064560000000  0.4295150000000  0.5697420000000 1.0
C      1  0.5527950000000  0.4174770000000  0.4654340000000 1.0
C      1  0.4228670000000  0.5689040000000  0.4831890000000 1.0
C      1  0.4779740000000  0.5462250000000  0.6026410000000 1.0
C      1  0.5109230000000  0.6148820000000  0.5091460000000 1.0
C      1  0.5421440000000  0.5215670000000  0.5261610000000 1.0
C      1  0.4884120000000  0.5625200000000  0.4502270000000 1.0
C      1  0.5150220000000  0.4020880000000  0.5678330000000 1.0
C      1  0.4784980000000  0.4907930000000  0.4413970000000 1.0
C      1  0.5991080000000  0.4777840000000  0.4590550000000 1.0
C      1  0.5556530000000  0.5567530000000  0.5550570000000 1.0
C      1  0.4863010000000  0.5735960000000  0.4981190000000 1.0
C      1  0.5832490000000  0.5136770000000  0.4078760000000 1.0
C      1  0.4569510000000  0.4779670000000  0.4268760000000 1.0
C      1  0.5007030000000  0.3988170000000  0.5081820000000 1.0
C      1  0.5261910000000  0.5027920000000  0.3925080000000 1.0
C      1  0.4288280000000  0.5969170000000  0.4851060000000 1.0
C      1  0.5724190000000  0.5354810000000  0.4230000000000 1.0
C      1  0.5433010000000  0.5147330000000  0.4545340000000 1.0
C      1  0.4718520000000  0.4005990000000  0.5926680000000 1.0
C      1  0.5075940000000  0.4462900000000  0.5932180000000 1.0
C      1  0.4255830000000  0.3794300000000  0.5277800000000 1.0
C      1  0.5682730000000  0.4243750000000  0.5116230000000 1.0
C      1  0.4643240000000  0.4575250000000  0.4077020000000 1.0
C      1  0.5796000000000  0.4165520000000  0.4567170000000 1.0
C      1  0.5844990000000  0.5415720000000  0.5913010000000 1.0
C      1  0.5973030000000  0.5539110000000  0.4673670000000 1.0
C      1  0.5242750000000  0.5002360000000  0.5251280000000 1.0
C      1  0.4384840000000  0.3938330000000  0.5103120000000 1.0
C      1  0.5259780000000  0.4797050000000  0.5438100000000 1.0
C      1  0.5000720000000  0.4466800000000  0.4489950000000 1.0
C      1  0.5447230000000  0.5291500000000  0.4292700000000 1.0
C      1  0.4683110000000  0.4375540000000  0.5054260000000 1.0
C      1  0.4548100000000  0.6498260000000  0.4368730000000 1.0
C      1  0.4374690000000  0.6314910000000  0.4452360000000 1.0
C      1  0.4082340000000  0.4789410000000  0.4343190000000 1.0
C      1  0.6031340000000  0.4597520000000  0.5054540000000 1.0
C      1  0.4643240000000  0.4744680000000  0.5989740000000 1.0
C      1  0.4007400000000  0.5041390000000  0.5247160000000 1.0
C      1  0.4610220000000  0.4267480000000  0.5960650000000 1.0
C      1  0.5261060000000  0.5560400000000  0.4789280000000 1.0
C      1  0.5534430000000  0.4136180000000  0.5363260000000 1.0
C      1  0.4743110000000  0.4532460000000  0.5314460000000 1.0
C      1  0.5060160000000  0.4283250000000  0.4249190000000 1.0
C      1  0.4796140000000  0.4493390000000  0.6026660000000 1.0
C      1  0.5037390000000  0.4742510000000  0.4408750000000 1.0
C      1  0.4692070000000  0.4814770000000  0.5367460000000 1.0
C      1  0.5442040000000  0.4840000000000  0.4053030000000 1.0
C      1  0.4780700000000  0.6622810000000  0.4403610000000 1.0
C      1  0.5320530000000  0.3955930000000  0.5447930000000 1.0
C      1  0.4593250000000  0.4063750000000  0.4643870000000 1.0
C      1  0.4811300000000  0.5151780000000  0.3924200000000 1.0
C      1  0.4942030000000  0.3882590000000  0.5823990000000 1.0
C      1  0.5142060000000  0.6541950000000  0.4754290000000 1.0
C      1  0.6035340000000  0.5538660000000  0.4935910000000 1.0
C      1  0.5286640000000  0.4663840000000  0.5906190000000 1.0
C      1  0.4584610000000  0.5468700000000  0.5305220000000 1.0
C      1  0.4273360000000  0.4860300000000  0.5609720000000 1.0
C      1  0.5924720000000  0.4958240000000  0.5730770000000 1.0
C      1  0.4012740000000  0.5068110000000  0.4784620000000 1.0
C      1  0.5768260000000  0.4531300000000  0.5499250000000 1.0
C      1  0.4545820000000  0.4317320000000  0.4187220000000 1.0
C      1  0.5376170000000  0.5323380000000  0.4754020000000 1.0
C      1  0.5067390000000  0.5522820000000  0.5448930000000 1.0
C      1  0.5345990000000  0.4006010000000  0.4511120000000 1.0
C      1  0.5664020000000  0.5166320000000  0.5126440000000 1.0
C      1  0.5009020000000  0.5673940000000  0.4748050000000 1.0
C      1  0.4296320000000  0.5042540000000  0.4847990000000 1.0
C      1  0.5476070000000  0.4372820000000  0.4896450000000 1.0
C      1  0.4470260000000  0.4262780000000  0.4468620000000 1.0
C      1  0.3849960000000  0.4841180000000  0.4226830000000 1.0
C      1  0.4348160000000  0.6080670000000  0.5103390000000 1.0
C      1  0.6300200000000  0.4976290000000  0.5415400000000 1.0
C      1  0.5784730000000  0.4708680000000  0.5723130000000 1.0
C      1  0.5113890000000  0.4476820000000  0.4042260000000 1.0
C      1  0.5229940000000  0.4405370000000  0.5100000000000 1.0
END
