TITL C-627110-360-357 16133.5755851236 125000 -1044.30774148561 0 0 172 (C1) n - 1
REM
REM in /home/nfs/bkarasulu/CARBON/AIRSS/Generating-Clusters/LCBOP/Only-C1/SD-CG/FIRE-CG
REM
REM
REM
REM
REM
REM ./C.cell (11c1c37f851c82e70ff6c80c92926a4b)
REM AIRSS Version 0.9.1 bugfix July 2018 build 013d7b7c2542+ Fri, 06 Jul 2018 19:26:36 +0100
REM compiler GCC version 9.2.1 20190827 (Red Hat 9.2.1-1)
REM options -cpp -mtune=generic -march=x86-64 -g -O0 -fpre-include=/usr/include/finclude/math-vector-fortran.h
REM seed 1733910220 855722326 -1928619716 -33897773 -632261661 -1880492412 -1161379883 -1775476171 44778531 -689403287 1588027988 -1937461268 504897819 -532936181 226998870 874537511 -1319750139 619203451 1216866872 -204851263 -197340470 812843907 562154480 1706238677 2111120185 1210341660 -2051906260 217446652 173675808 515455260 813164271 -913121744 473921433
REM
CELL 1.54180   50.00000   50.00000   50.00000   90.00000   90.00000   90.00000
LATT -1
SFAC C  
C      1  0.6232960000000  0.5475300000000  0.5464930000000 1.0
C      1  0.5065160000000  0.5455250000000  0.4661610000000 1.0
C      1  0.5046120000000  0.5786580000000  0.5044330000000 1.0
C      1  0.4013520000000  0.4734700000000  0.4125800000000 1.0
C      1  0.5093060000000  0.5343880000000  0.4404480000000 1.0
C      1  0.3947900000000  0.5546840000000  0.4499810000000 1.0
C      1  0.6493770000000  0.5575660000000  0.5449430000000 1.0
C      1  0.4175250000000  0.5402680000000  0.4418860000000 1.0
C      1  0.5489600000000  0.5615540000000  0.3987020000000 1.0
C      1  0.5651060000000  0.5968130000000  0.5639950000000 1.0
C      1  0.5242860000000  0.4518920000000  0.4336510000000 1.0
C      1  0.4487030000000  0.3972210000000  0.4866790000000 1.0
C      1  0.4700250000000  0.4809400000000  0.5812930000000 1.0
C      1  0.5248640000000  0.4298450000000  0.4749980000000 1.0
C      1  0.5333750000000  0.5826230000000  0.6067130000000 1.0
C      1  0.5049850000000  0.5350730000000  0.3791420000000 1.0
C      1  0.4643020000000  0.6030920000000  0.4784940000000 1.0
C      1  0.5394490000000  0.4920340000000  0.4634390000000 1.0
C      1  0.5181380000000  0.5186650000000  0.5065650000000 1.0
C      1  0.5216760000000  0.5204960000000  0.3961680000000 1.0
C      1  0.4090720000000  0.4745360000000  0.4974310000000 1.0
C      1  0.5361670000000  0.6220340000000  0.4440580000000 1.0
C      1  0.4534140000000  0.5516260000000  0.3990870000000 1.0
C      1  0.5213400000000  0.5339870000000  0.5580970000000 1.0
C      1  0.3962080000000  0.4471850000000  0.4118500000000 1.0
C      1  0.4169480000000  0.5266470000000  0.5077450000000 1.0
C      1  0.4432280000000  0.5365790000000  0.5981180000000 1.0
C      1  0.4955850000000  0.4981610000000  0.5365790000000 1.0
C      1  0.5044130000000  0.6214960000000  0.5964060000000 1.0
C      1  0.4845350000000  0.4462100000000  0.4598440000000 1.0
C      1  0.5010380000000  0.5723920000000  0.4765050000000 1.0
C      1  0.4537120000000  0.5936500000000  0.5036650000000 1.0
C      1  0.4549910000000  0.5112240000000  0.4564240000000 1.0
C      1  0.4139840000000  0.5233730000000  0.5608560000000 1.0
C      1  0.6080530000000  0.4720240000000  0.5637560000000 1.0
C      1  0.4915560000000  0.4650010000000  0.5927610000000 1.0
C      1  0.5107370000000  0.6210030000000  0.4347390000000 1.0
C      1  0.5809700000000  0.5126850000000  0.4840660000000 1.0
C      1  0.5654630000000  0.5372000000000  0.4904040000000 1.0
C      1  0.4535830000000  0.4976920000000  0.4811730000000 1.0
C      1  0.3987730000000  0.4667620000000  0.5436750000000 1.0
C      1  0.5018320000000  0.4470050000000  0.5728630000000 1.0
C      1  0.5194540000000  0.6082920000000  0.5402180000000 1.0
C      1  0.4776110000000  0.5407610000000  0.5217230000000 1.0
C      1  0.3861540000000  0.4273820000000  0.4753930000000 1.0
C      1  0.5167010000000  0.4798550000000  0.5339400000000 1.0
C      1  0.5557330000000  0.5402040000000  0.5190340000000 1.0
C      1  0.5114000000000  0.4007730000000  0.5735610000000 1.0
C      1  0.4031620000000  0.4231490000000  0.4970550000000 1.0
C      1  0.3912930000000  0.4245250000000  0.4253480000000 1.0
C      1  0.5383380000000  0.5013020000000  0.3819010000000 1.0
C      1  0.5341960000000  0.4818940000000  0.4873310000000 1.0
C      1  0.5535320000000  0.5009690000000  0.5817120000000 1.0
C      1  0.4572760000000  0.5559140000000  0.5833500000000 1.0
C      1  0.4894000000000  0.4391790000000  0.5096320000000 1.0
C      1  0.4233120000000  0.5211260000000  0.5877920000000 1.0
C      1  0.3880610000000  0.4146660000000  0.4502280000000 1.0
C      1  0.5321750000000  0.5691140000000  0.4209980000000 1.0
C      1  0.6979800000000  0.5755340000000  0.5361610000000 1.0
C      1  0.4637060000000  0.4173540000000  0.5624040000000 1.0
C      1  0.5274680000000  0.5195360000000  0.4246690000000 1.0
C      1  0.4023200000000  0.4970540000000  0.4280000000000 1.0
C      1  0.5647010000000  0.4789100000000  0.5242150000000 1.0
C      1  0.4617310000000  0.3764810000000  0.5366790000000 1.0
C      1  0.6198050000000  0.5198370000000  0.5512550000000 1.0
C      1  0.4679870000000  0.4586830000000  0.5118500000000 1.0
C      1  0.4783770000000  0.5552700000000  0.4129400000000 1.0
C      1  0.5516980000000  0.6012080000000  0.4516860000000 1.0
C      1  0.5815970000000  0.5831360000000  0.5456750000000 1.0
C      1  0.4847800000000  0.5915350000000  0.4623670000000 1.0
C      1  0.4829150000000  0.5640960000000  0.5758940000000 1.0
C      1  0.5318310000000  0.4360910000000  0.5377490000000 1.0
C      1  0.5711390000000  0.4606820000000  0.4218280000000 1.0
C      1  0.4242740000000  0.5517100000000  0.5190080000000 1.0
C      1  0.4857580000000  0.5568830000000  0.3353090000000 1.0
C      1  0.4371460000000  0.4441410000000  0.4494130000000 1.0
C      1  0.5982580000000  0.4493120000000  0.5740980000000 1.0
C      1  0.4536410000000  0.4664900000000  0.5617370000000 1.0
C      1  0.4984890000000  0.6008130000000  0.5224130000000 1.0
C      1  0.5241580000000  0.4607390000000  0.5565150000000 1.0
C      1  0.5216630000000  0.5571530000000  0.6026480000000 1.0
C      1  0.5849180000000  0.4571000000000  0.4882650000000 1.0
C      1  0.4950720000000  0.5458710000000  0.3570220000000 1.0
C      1  0.4578520000000  0.4524160000000  0.4643680000000 1.0
C      1  0.4382710000000  0.5080040000000  0.5031290000000 1.0
C      1  0.4754600000000  0.3699390000000  0.5143720000000 1.0
C      1  0.4156390000000  0.5219210000000  0.4198600000000 1.0
C      1  0.5110890000000  0.5076350000000  0.6159770000000 1.0
C      1  0.4845370000000  0.5311260000000  0.4272740000000 1.0
C      1  0.5361530000000  0.4685600000000  0.6253500000000 1.0
C      1  0.4755070000000  0.5134510000000  0.5226080000000 1.0
C      1  0.5254770000000  0.5397500000000  0.5262890000000 1.0
C      1  0.4452200000000  0.5557800000000  0.4767810000000 1.0
C      1  0.5611310000000  0.4802590000000  0.6250490000000 1.0
C      1  0.4043720000000  0.4399860000000  0.5314730000000 1.0
C      1  0.5010750000000  0.5753020000000  0.4189680000000 1.0
C      1  0.5664380000000  0.5239840000000  0.5408860000000 1.0
C      1  0.5688970000000  0.4104860000000  0.4671110000000 1.0
C      1  0.5095780000000  0.5553010000000  0.5765920000000 1.0
C      1  0.6045530000000  0.4961850000000  0.5497300000000 1.0
C      1  0.5370790000000  0.4010150000000  0.5818140000000 1.0
C      1  0.4908460000000  0.4446360000000  0.3896520000000 1.0
C      1  0.5517700000000  0.3922400000000  0.4827340000000 1.0
C      1  0.4237380000000  0.5495690000000  0.5477630000000 1.0
C      1  0.3884460000000  0.4956980000000  0.4542620000000 1.0
C      1  0.5612130000000  0.4124770000000  0.5840700000000 1.0
C      1  0.6017210000000  0.5655310000000  0.5428010000000 1.0
C      1  0.4928580000000  0.3893490000000  0.4441640000000 1.0
C      1  0.5587850000000  0.3974100000000  0.4189200000000 1.0
C      1  0.3718350000000  0.5429100000000  0.4579530000000 1.0
C      1  0.4491320000000  0.4399610000000  0.5709730000000 1.0
C      1  0.5475430000000  0.5732150000000  0.4469720000000 1.0
C      1  0.5690930000000  0.4976280000000  0.6053490000000 1.0
C      1  0.4297680000000  0.4827580000000  0.5160980000000 1.0
C      1  0.5334900000000  0.4298920000000  0.4478800000000 1.0
C      1  0.5288780000000  0.4766970000000  0.3932050000000 1.0
C      1  0.4502350000000  0.4693490000000  0.5326150000000 1.0
C      1  0.5610020000000  0.5862260000000  0.6116920000000 1.0
C      1  0.5366050000000  0.6040440000000  0.5626600000000 1.0
C      1  0.4975210000000  0.3841410000000  0.4719210000000 1.0
C      1  0.5570950000000  0.4330320000000  0.5252630000000 1.0
C      1  0.4268430000000  0.4080990000000  0.5015020000000 1.0
C      1  0.5254120000000  0.3832940000000  0.4813700000000 1.0
C      1  0.4740550000000  0.3832140000000  0.4893180000000 1.0
C      1  0.5797770000000  0.4993730000000  0.5362190000000 1.0
C      1  0.4695660000000  0.5983950000000  0.5275890000000 1.0
C      1  0.4989880000000  0.5133900000000  0.5605310000000 1.0
C      1  0.5400360000000  0.4965240000000  0.4358820000000 1.0
C      1  0.5623900000000  0.5436300000000  0.3832610000000 1.0
C      1  0.5055690000000  0.5242790000000  0.4841270000000 1.0
C      1  0.5755000000000  0.5961400000000  0.5908840000000 1.0
C      1  0.3747830000000  0.4532010000000  0.4738740000000 1.0
C      1  0.5181470000000  0.5336470000000  0.6179210000000 1.0
C      1  0.4327890000000  0.5331890000000  0.3993560000000 1.0
C      1  0.5234750000000  0.6034410000000  0.5888300000000 1.0
C      1  0.3995630000000  0.5010460000000  0.5456410000000 1.0
C      1  0.5833040000000  0.4370150000000  0.4674990000000 1.0
C      1  0.4595670000000  0.4703660000000  0.4859300000000 1.0
C      1  0.4868340000000  0.4811480000000  0.4221290000000 1.0
C      1  0.5494640000000  0.5231150000000  0.5643740000000 1.0
C      1  0.4408130000000  0.5366680000000  0.4571720000000 1.0
C      1  0.5040490000000  0.4263090000000  0.5312020000000 1.0
C      1  0.5344570000000  0.4798680000000  0.5790070000000 1.0
C      1  0.4415260000000  0.5675950000000  0.5612430000000 1.0
C      1  0.4890840000000  0.4017780000000  0.4205920000000 1.0
C      1  0.4293050000000  0.4131210000000  0.5302520000000 1.0
C      1  0.4601520000000  0.5858410000000  0.5508180000000 1.0
C      1  0.4991150000000  0.4366530000000  0.4826270000000 1.0
C      1  0.4978490000000  0.4609520000000  0.4401090000000 1.0
C      1  0.5376350000000  0.4818940000000  0.5149950000000 1.0
C      1  0.5737210000000  0.4534340000000  0.5144210000000 1.0
C      1  0.4726860000000  0.5053760000000  0.4332030000000 1.0
C      1  0.5606800000000  0.5175700000000  0.3746720000000 1.0
C      1  0.5882960000000  0.4860650000000  0.4817980000000 1.0
C      1  0.5817010000000  0.4294570000000  0.5810610000000 1.0
C      1  0.5432530000000  0.4706660000000  0.4195730000000 1.0
C      1  0.5014830000000  0.5564290000000  0.5213200000000 1.0
C      1  0.4939640000000  0.5981220000000  0.4361930000000 1.0
C      1  0.4931700000000  0.4206420000000  0.5601410000000 1.0
C      1  0.5156550000000  0.4791860000000  0.6052570000000 1.0
C      1  0.5860600000000  0.4484930000000  0.4409720000000 1.0
C      1  0.4880480000000  0.4202500000000  0.4010180000000 1.0
C      1  0.5573880000000  0.5547050000000  0.4678490000000 1.0
C      1  0.4390760000000  0.5688390000000  0.5011880000000 1.0
C      1  0.5540710000000  0.4115990000000  0.4414550000000 1.0
C      1  0.6739250000000  0.5667160000000  0.5409810000000 1.0
C      1  0.4494110000000  0.4003530000000  0.5452550000000 1.0
C      1  0.3940210000000  0.5142600000000  0.5201080000000 1.0
C      1  0.4781220000000  0.5077180000000  0.5783870000000 1.0
C      1  0.4993680000000  0.4714080000000  0.3960780000000 1.0
C      1  0.3692130000000  0.5160980000000  0.4591650000000 1.0
C      1  0.3912890000000  0.4760370000000  0.4751860000000 1.0
END
