TITL C-627109-622-811 0.0437038077904909 125000 -753.533501032931 0 0 122 (C1) n - 1
REM
REM in /home/nfs/bkarasulu/CARBON/AIRSS/Generating-Clusters/LCBOP/Only-C1/SD-CG/FIRE-CG
REM
REM
REM
REM
REM
REM ./C.cell (11c1c37f851c82e70ff6c80c92926a4b)
REM AIRSS Version 0.9.1 bugfix July 2018 build 013d7b7c2542+ Fri, 06 Jul 2018 19:26:36 +0100
REM compiler GCC version 9.2.1 20190827 (Red Hat 9.2.1-1)
REM options -cpp -mtune=generic -march=x86-64 -g -O0 -fpre-include=/usr/include/finclude/math-vector-fortran.h
REM seed -303740109 1637632522 204161633 -1551144634 717211806 -839996625 1177509398 -718351521 -1196938119 298261351 1490054897 -234873354 4496380 1255454390 1726281572 -1781772215 -1656008078 -472536541 1362538183 1548223818 2140911954 -1058641831 301601531 1616900783 -1185429896 -279957520 786138056 531708926 -998960318 1341443704 87053957 1411460052 1414867222
REM
CELL 1.54180   50.00000   50.00000   50.00000   90.00000   90.00000   90.00000
LATT -1
SFAC C  
C      1  0.5832000000000  0.5785310000000  0.4908660000000 1.0
C      1  0.5409090000000  0.5934440000000  0.4449360000000 1.0
C      1  0.5312990000000  0.4646240000000  0.5390990000000 1.0
C      1  0.5251920000000  0.4716030000000  0.6100460000000 1.0
C      1  0.4397970000000  0.4740600000000  0.5310090000000 1.0
C      1  0.4010220000000  0.4830600000000  0.4635260000000 1.0
C      1  0.5152650000000  0.4521400000000  0.4924560000000 1.0
C      1  0.4865490000000  0.4892460000000  0.4429980000000 1.0
C      1  0.5378140000000  0.5749210000000  0.4659980000000 1.0
C      1  0.4897860000000  0.5415410000000  0.4860550000000 1.0
C      1  0.4301760000000  0.4474880000000  0.5292200000000 1.0
C      1  0.5533760000000  0.4731930000000  0.6137040000000 1.0
C      1  0.5084680000000  0.4810720000000  0.6304630000000 1.0
C      1  0.5067450000000  0.5657850000000  0.4144400000000 1.0
C      1  0.5054300000000  0.5364050000000  0.5591080000000 1.0
C      1  0.5251530000000  0.5861640000000  0.4222450000000 1.0
C      1  0.4047350000000  0.5204240000000  0.5247500000000 1.0
C      1  0.3514220000000  0.4331310000000  0.5332400000000 1.0
C      1  0.4670910000000  0.4758820000000  0.4026020000000 1.0
C      1  0.4319250000000  0.5033470000000  0.4192940000000 1.0
C      1  0.5125840000000  0.5370610000000  0.4105750000000 1.0
C      1  0.4637220000000  0.4898020000000  0.4899820000000 1.0
C      1  0.4733780000000  0.5128790000000  0.5881410000000 1.0
C      1  0.5081330000000  0.3655790000000  0.3552140000000 1.0
C      1  0.4223510000000  0.5796270000000  0.5016990000000 1.0
C      1  0.5096830000000  0.3834920000000  0.4663170000000 1.0
C      1  0.4825190000000  0.6005970000000  0.4877750000000 1.0
C      1  0.4067620000000  0.6000100000000  0.4608380000000 1.0
C      1  0.4886950000000  0.4056020000000  0.3840010000000 1.0
C      1  0.4885730000000  0.4986090000000  0.6338460000000 1.0
C      1  0.5128130000000  0.5525820000000  0.5321200000000 1.0
C      1  0.4658220000000  0.4974770000000  0.4622530000000 1.0
C      1  0.5931310000000  0.5532300000000  0.4796970000000 1.0
C      1  0.5792580000000  0.4399040000000  0.5042150000000 1.0
C      1  0.5664160000000  0.4545440000000  0.6298660000000 1.0
C      1  0.5143570000000  0.4632720000000  0.5850430000000 1.0
C      1  0.4455610000000  0.5266260000000  0.4295630000000 1.0
C      1  0.5677880000000  0.4935230000000  0.6010210000000 1.0
C      1  0.4777390000000  0.5668140000000  0.4200950000000 1.0
C      1  0.5164160000000  0.5818960000000  0.5247650000000 1.0
C      1  0.5319290000000  0.4525970000000  0.5649220000000 1.0
C      1  0.5640270000000  0.5492250000000  0.5257390000000 1.0
C      1  0.5759200000000  0.5434620000000  0.4594000000000 1.0
C      1  0.4873780000000  0.4949740000000  0.5044360000000 1.0
C      1  0.6131670000000  0.3800130000000  0.6881990000000 1.0
C      1  0.4959570000000  0.5951400000000  0.5102940000000 1.0
C      1  0.5851380000000  0.5268170000000  0.5640610000000 1.0
C      1  0.4011330000000  0.5060190000000  0.4793050000000 1.0
C      1  0.5347210000000  0.5082560000000  0.5146740000000 1.0
C      1  0.4073920000000  0.5784870000000  0.4777110000000 1.0
C      1  0.3927200000000  0.5551250000000  0.4714010000000 1.0
C      1  0.5783060000000  0.5114490000000  0.5845620000000 1.0
C      1  0.5642660000000  0.6093470000000  0.4499080000000 1.0
C      1  0.5803330000000  0.5293300000000  0.4352620000000 1.0
C      1  0.5532720000000  0.4300610000000  0.5078790000000 1.0
C      1  0.4725690000000  0.4312010000000  0.4744540000000 1.0
C      1  0.6016420000000  0.3984540000000  0.6738190000000 1.0
C      1  0.4865460000000  0.4636060000000  0.5780910000000 1.0
C      1  0.4879400000000  0.5223050000000  0.4071860000000 1.0
C      1  0.4602780000000  0.4375590000000  0.4483380000000 1.0
C      1  0.4741180000000  0.5127050000000  0.6162400000000 1.0
C      1  0.4755890000000  0.4526140000000  0.3897750000000 1.0
C      1  0.4172260000000  0.5046160000000  0.5035080000000 1.0
C      1  0.5327380000000  0.4488770000000  0.5151020000000 1.0
C      1  0.4801170000000  0.5372830000000  0.5736720000000 1.0
C      1  0.4541470000000  0.5233020000000  0.4565370000000 1.0
C      1  0.4787060000000  0.4263400000000  0.3995280000000 1.0
C      1  0.3815140000000  0.5314720000000  0.5116510000000 1.0
C      1  0.6086460000000  0.5339290000000  0.4942250000000 1.0
C      1  0.5479500000000  0.4310590000000  0.5702270000000 1.0
C      1  0.5011530000000  0.4299790000000  0.4805510000000 1.0
C      1  0.4188740000000  0.5333020000000  0.5449170000000 1.0
C      1  0.4590280000000  0.5532750000000  0.5636530000000 1.0
C      1  0.5158180000000  0.5005290000000  0.4916390000000 1.0
C      1  0.4496710000000  0.4845330000000  0.5551140000000 1.0
C      1  0.4656530000000  0.5405420000000  0.4143340000000 1.0
C      1  0.5482520000000  0.5491670000000  0.4641090000000 1.0
C      1  0.4507100000000  0.4286110000000  0.5238390000000 1.0
C      1  0.4372170000000  0.5547550000000  0.5459140000000 1.0
C      1  0.5177090000000  0.3458720000000  0.3410870000000 1.0
C      1  0.4697250000000  0.4871710000000  0.5749250000000 1.0
C      1  0.5102050000000  0.5245720000000  0.4744120000000 1.0
C      1  0.4652490000000  0.5437310000000  0.4723560000000 1.0
C      1  0.6094330000000  0.5369580000000  0.5223490000000 1.0
C      1  0.5798750000000  0.6002740000000  0.4724080000000 1.0
C      1  0.4860460000000  0.5135040000000  0.5255460000000 1.0
C      1  0.3772530000000  0.4366240000000  0.5328160000000 1.0
C      1  0.5422730000000  0.4079760000000  0.4935380000000 1.0
C      1  0.4900760000000  0.5406580000000  0.5145880000000 1.0
C      1  0.4693510000000  0.5858090000000  0.4390840000000 1.0
C      1  0.6123380000000  0.5075640000000  0.4849460000000 1.0
C      1  0.5711620000000  0.6310290000000  0.4349170000000 1.0
C      1  0.4731640000000  0.5975920000000  0.4628680000000 1.0
C      1  0.4683210000000  0.4250580000000  0.5455720000000 1.0
C      1  0.6072040000000  0.4814580000000  0.4874610000000 1.0
C      1  0.5782070000000  0.4359440000000  0.6445800000000 1.0
C      1  0.4709190000000  0.4229380000000  0.4263520000000 1.0
C      1  0.5173180000000  0.4060790000000  0.4795580000000 1.0
C      1  0.5865840000000  0.5381520000000  0.5387320000000 1.0
C      1  0.5325690000000  0.5255320000000  0.4268210000000 1.0
C      1  0.5596480000000  0.5208680000000  0.4195650000000 1.0
C      1  0.4843300000000  0.4950750000000  0.4148030000000 1.0
C      1  0.4771280000000  0.4393120000000  0.5665590000000 1.0
C      1  0.3852720000000  0.5305580000000  0.4826880000000 1.0
C      1  0.5433060000000  0.5910240000000  0.5210320000000 1.0
C      1  0.5965140000000  0.4584810000000  0.4958300000000 1.0
C      1  0.4160690000000  0.4624280000000  0.4552350000000 1.0
C      1  0.5293150000000  0.5305300000000  0.4549520000000 1.0
C      1  0.4034140000000  0.4407080000000  0.5320120000000 1.0
C      1  0.5048210000000  0.5084920000000  0.5475660000000 1.0
C      1  0.4424840000000  0.4763120000000  0.4177010000000 1.0
C      1  0.5269890000000  0.4926540000000  0.5381010000000 1.0
C      1  0.5659270000000  0.5754920000000  0.5140210000000 1.0
C      1  0.4983970000000  0.3856160000000  0.3695790000000 1.0
C      1  0.5195240000000  0.4751790000000  0.4769570000000 1.0
C      1  0.4401330000000  0.4888860000000  0.5066580000000 1.0
C      1  0.4566430000000  0.4241220000000  0.4967720000000 1.0
C      1  0.5391020000000  0.5361850000000  0.5222930000000 1.0
C      1  0.4395610000000  0.4574110000000  0.4403010000000 1.0
C      1  0.4338590000000  0.5735590000000  0.5251190000000 1.0
C      1  0.5098490000000  0.4759080000000  0.4508880000000 1.0
C      1  0.5899240000000  0.4172020000000  0.6591980000000 1.0
END
