TITL C-627109-622-1076 0.00248723643724216 125000 -427.449494447482 0 0 74 (C1) n - 1
REM
REM in /home/nfs/bkarasulu/CARBON/AIRSS/Generating-Clusters/LCBOP/Only-C1/SD-CG/FIRE-CG
REM
REM
REM
REM
REM
REM ./C.cell (11c1c37f851c82e70ff6c80c92926a4b)
REM AIRSS Version 0.9.1 bugfix July 2018 build 013d7b7c2542+ Fri, 06 Jul 2018 19:26:36 +0100
REM compiler GCC version 9.2.1 20190827 (Red Hat 9.2.1-1)
REM options -cpp -mtune=generic -march=x86-64 -g -O0 -fpre-include=/usr/include/finclude/math-vector-fortran.h
REM seed 2023414940 -1254987993 -53999942 258788263 1268608713 667877561 1960122355 -521219651 -263347524 147002470 -1674467624 -691006324 1884611212 205330517 67383632 -516762884 -1616631800 -1130820525 331757516 -1405030369 -19260006 -1881215862 725733509 563401062 1409013368 971684181 282685503 -1205715871 -976160528 1402119160 313310830 -1979004543 1746317579
REM
CELL 1.54180   50.00000   50.00000   50.00000   90.00000   90.00000   90.00000
LATT -1
SFAC C  
C      1  0.5303770000000  0.4821390000000  0.4613500000000 1.0
C      1  0.4860110000000  0.4750660000000  0.5751320000000 1.0
C      1  0.5512150000000  0.5032870000000  0.5130720000000 1.0
C      1  0.4934870000000  0.5613480000000  0.5635150000000 1.0
C      1  0.5115880000000  0.4723510000000  0.4803980000000 1.0
C      1  0.4951030000000  0.4356900000000  0.4374130000000 1.0
C      1  0.5173810000000  0.4413740000000  0.4947590000000 1.0
C      1  0.5115370000000  0.4755910000000  0.5236700000000 1.0
C      1  0.4040500000000  0.5292640000000  0.4704860000000 1.0
C      1  0.3646370000000  0.5460230000000  0.4513250000000 1.0
C      1  0.5242520000000  0.5643930000000  0.4845470000000 1.0
C      1  0.4916990000000  0.5486780000000  0.5174460000000 1.0
C      1  0.4923900000000  0.5230010000000  0.5921170000000 1.0
C      1  0.4967480000000  0.4492320000000  0.5676770000000 1.0
C      1  0.5840330000000  0.5142120000000  0.5471920000000 1.0
C      1  0.3718520000000  0.5343710000000  0.4278200000000 1.0
C      1  0.5786060000000  0.5259180000000  0.5703570000000 1.0
C      1  0.5670520000000  0.5517010000000  0.6094820000000 1.0
C      1  0.4665570000000  0.4447780000000  0.5033860000000 1.0
C      1  0.5332590000000  0.5231580000000  0.5051150000000 1.0
C      1  0.4498240000000  0.4577280000000  0.4314510000000 1.0
C      1  0.4950520000000  0.4945140000000  0.5944770000000 1.0
C      1  0.5432730000000  0.5767050000000  0.4995380000000 1.0
C      1  0.4659370000000  0.4925360000000  0.4899620000000 1.0
C      1  0.4370800000000  0.4737910000000  0.4508030000000 1.0
C      1  0.4660410000000  0.5417540000000  0.5316490000000 1.0
C      1  0.5405260000000  0.4764590000000  0.5133720000000 1.0
C      1  0.4754540000000  0.4897390000000  0.5522780000000 1.0
C      1  0.5580970000000  0.4558640000000  0.4994460000000 1.0
C      1  0.5666080000000  0.4343840000000  0.5164250000000 1.0
C      1  0.5611260000000  0.5425480000000  0.5844680000000 1.0
C      1  0.3809590000000  0.5434400000000  0.4729680000000 1.0
C      1  0.4613990000000  0.5153490000000  0.4400290000000 1.0
C      1  0.4371080000000  0.5020560000000  0.4456780000000 1.0
C      1  0.5531350000000  0.5744380000000  0.5261490000000 1.0
C      1  0.6058420000000  0.4776280000000  0.4635610000000 1.0
C      1  0.5371900000000  0.5495700000000  0.5714070000000 1.0
C      1  0.4862060000000  0.4591760000000  0.5186100000000 1.0
C      1  0.4129050000000  0.5165030000000  0.4465860000000 1.0
C      1  0.5072110000000  0.5634300000000  0.5381470000000 1.0
C      1  0.4406550000000  0.4574000000000  0.5025290000000 1.0
C      1  0.4015400000000  0.5081450000000  0.3993220000000 1.0
C      1  0.5779270000000  0.5834400000000  0.5330800000000 1.0
C      1  0.5103810000000  0.5444940000000  0.5820150000000 1.0
C      1  0.4874660000000  0.4216060000000  0.4609320000000 1.0
C      1  0.4485460000000  0.5202400000000  0.5273320000000 1.0
C      1  0.4656640000000  0.5319610000000  0.5827550000000 1.0
C      1  0.5471030000000  0.4180440000000  0.5259400000000 1.0
C      1  0.5064280000000  0.4332510000000  0.5474740000000 1.0
C      1  0.4727700000000  0.4462130000000  0.4236420000000 1.0
C      1  0.4673530000000  0.5496030000000  0.5599450000000 1.0
C      1  0.4985490000000  0.5200620000000  0.4719030000000 1.0
C      1  0.5216060000000  0.4774320000000  0.4345260000000 1.0
C      1  0.5056660000000  0.4991890000000  0.4259550000000 1.0
C      1  0.4740030000000  0.4256660000000  0.4839370000000 1.0
C      1  0.5874130000000  0.4585800000000  0.4604170000000 1.0
C      1  0.4507890000000  0.4940000000000  0.5381820000000 1.0
C      1  0.5211220000000  0.4479580000000  0.4350070000000 1.0
C      1  0.4304420000000  0.4632670000000  0.4765060000000 1.0
C      1  0.6097580000000  0.4983150000000  0.4799830000000 1.0
C      1  0.4355900000000  0.4734730000000  0.5255840000000 1.0
C      1  0.5780180000000  0.5090630000000  0.5204510000000 1.0
C      1  0.5354150000000  0.5625020000000  0.5448310000000 1.0
C      1  0.5000320000000  0.4973630000000  0.5384900000000 1.0
C      1  0.3956270000000  0.5192350000000  0.4235520000000 1.0
C      1  0.4911730000000  0.5215960000000  0.4417280000000 1.0
C      1  0.5624650000000  0.4501210000000  0.4705940000000 1.0
C      1  0.5095670000000  0.5393000000000  0.4931720000000 1.0
C      1  0.4974690000000  0.5481710000000  0.4304210000000 1.0
C      1  0.5982370000000  0.5096460000000  0.5011490000000 1.0
C      1  0.5437700000000  0.4387760000000  0.4512650000000 1.0
C      1  0.5203570000000  0.4276360000000  0.5221980000000 1.0
C      1  0.5024170000000  0.5712660000000  0.4194380000000 1.0
C      1  0.4918750000000  0.4938020000000  0.4824840000000 1.0
END
