TITL C-627111-6168-1115 2.84678209702898e-06 125000 -85.5702886747507 0 0 15 (Cs) n - 1
REM
REM in /home/nfs/bkarasulu/CARBON/AIRSS/Generating-Clusters/LCBOP/Only-C1/SD-CG/FIRE-CG
REM
REM
REM
REM
REM
REM ./C.cell (11c1c37f851c82e70ff6c80c92926a4b)
REM AIRSS Version 0.9.1 bugfix July 2018 build 013d7b7c2542+ Fri, 06 Jul 2018 19:26:36 +0100
REM compiler GCC version 9.2.1 20190827 (Red Hat 9.2.1-1)
REM options -cpp -mtune=generic -march=x86-64 -g -O0 -fpre-include=/usr/include/finclude/math-vector-fortran.h
REM seed -1116284369 -138633510 1502463265 1367244548 -956889095 1318862159 -1134828511 -1852343605 1698612023 690060667 1201453133 1866582625 -1137088841 1835125682 1627960799 117988534 1538370968 386970067 1935120487 1609334169 -1495574120 1101109644 -1378249697 -1679557805 512489522 -2048158062 41662781 -673812113 -1652417529 -290735394 1170393588 1472908985 718651395
REM
CELL 1.54180   50.00000   50.00000   50.00000   90.00000   90.00000   90.00000
LATT -1
SFAC C  
C      1  0.4866610000000  0.4762430000000  0.5537400000000 1.0
C      1  0.4646000000000  0.4633030000000  0.5996630000000 1.0
C      1  0.4755420000000  0.4697200000000  0.5768870000000 1.0
C      1  0.4671420000000  0.5488770000000  0.4573000000000 1.0
C      1  0.4820010000000  0.5176480000000  0.4914860000000 1.0
C      1  0.5421360000000  0.4687770000000  0.5034800000000 1.0
C      1  0.5478250000000  0.4921840000000  0.4589190000000 1.0
C      1  0.4983470000000  0.4831170000000  0.5293830000000 1.0
C      1  0.5084240000000  0.5238010000000  0.4517200000000 1.0
C      1  0.4862390000000  0.5018780000000  0.5124260000000 1.0
C      1  0.4856680000000  0.5303000000000  0.4667340000000 1.0
C      1  0.4498150000000  0.5662400000000  0.4484940000000 1.0
C      1  0.5224900000000  0.4714520000000  0.5212280000000 1.0
C      1  0.5310290000000  0.5101120000000  0.4485950000000 1.0
C      1  0.5520800000000  0.4763490000000  0.4799450000000 1.0
END
