TITL C-627110-360-896 -3.01258234373381e-07 125000 -481.871508471141 0 0 82 (C1) n - 1
REM
REM in /home/nfs/bkarasulu/CARBON/AIRSS/Generating-Clusters/LCBOP/Only-C1/SD-CG/FIRE-CG
REM
REM
REM
REM
REM
REM ./C.cell (11c1c37f851c82e70ff6c80c92926a4b)
REM AIRSS Version 0.9.1 bugfix July 2018 build 013d7b7c2542+ Fri, 06 Jul 2018 19:26:36 +0100
REM compiler GCC version 9.2.1 20190827 (Red Hat 9.2.1-1)
REM options -cpp -mtune=generic -march=x86-64 -g -O0 -fpre-include=/usr/include/finclude/math-vector-fortran.h
REM seed -12204500 1588916830 824731506 1021378191 690943863 -40097940 -1606258762 85223000 1842880541 794145689 -1333945268 -14720224 2028991536 1736993065 -1481673233 -1072790914 427452216 22553571 1016510510 -1582876118 -628394650 2127231706 -42413130 1393693326 -789957808 1464350754 172038958 -1917249101 1603918667 -112637417 1059227957 -639861848 -1671641073
REM
CELL 1.54180   50.00000   50.00000   50.00000   90.00000   90.00000   90.00000
LATT -1
SFAC C  
C      1  0.4203570000000  0.5314530000000  0.4492240000000 1.0
C      1  0.4349660000000  0.5723140000000  0.4764430000000 1.0
C      1  0.4210160000000  0.5548330000000  0.4619880000000 1.0
C      1  0.5490980000000  0.4977610000000  0.4717940000000 1.0
C      1  0.5505510000000  0.5412250000000  0.4830800000000 1.0
C      1  0.4265230000000  0.4897000000000  0.4225190000000 1.0
C      1  0.4561040000000  0.5040760000000  0.5390380000000 1.0
C      1  0.5610610000000  0.4577560000000  0.4893010000000 1.0
C      1  0.5428880000000  0.5048910000000  0.5692740000000 1.0
C      1  0.4977810000000  0.4979020000000  0.5611330000000 1.0
C      1  0.4721680000000  0.4621350000000  0.4976180000000 1.0
C      1  0.5314130000000  0.4366180000000  0.5695910000000 1.0
C      1  0.5607340000000  0.4570300000000  0.4584590000000 1.0
C      1  0.5133250000000  0.4570490000000  0.4777210000000 1.0
C      1  0.5201970000000  0.5661780000000  0.5285540000000 1.0
C      1  0.5265810000000  0.4166470000000  0.4504080000000 1.0
C      1  0.5254370000000  0.5038050000000  0.4140900000000 1.0
C      1  0.5408610000000  0.5546190000000  0.4366150000000 1.0
C      1  0.5542660000000  0.5669820000000  0.4932920000000 1.0
C      1  0.5518330000000  0.5035050000000  0.4260470000000 1.0
C      1  0.5072530000000  0.5362160000000  0.3813800000000 1.0
C      1  0.4893770000000  0.5732990000000  0.5934430000000 1.0
C      1  0.4278880000000  0.4887440000000  0.4979560000000 1.0
C      1  0.5484320000000  0.4575670000000  0.5779350000000 1.0
C      1  0.5269590000000  0.4292090000000  0.5152290000000 1.0
C      1  0.5172270000000  0.5006250000000  0.5815270000000 1.0
C      1  0.5326400000000  0.5483700000000  0.5468440000000 1.0
C      1  0.4164850000000  0.5051940000000  0.5602710000000 1.0
C      1  0.4618660000000  0.4634810000000  0.5676330000000 1.0
C      1  0.4369940000000  0.4547540000000  0.5548700000000 1.0
C      1  0.5195760000000  0.5130880000000  0.3881020000000 1.0
C      1  0.4575850000000  0.5795550000000  0.4884620000000 1.0
C      1  0.4807540000000  0.4444750000000  0.5764160000000 1.0
C      1  0.4206490000000  0.4780570000000  0.5465320000000 1.0
C      1  0.4750710000000  0.5256640000000  0.4637560000000 1.0
C      1  0.5155770000000  0.4962560000000  0.5104410000000 1.0
C      1  0.4978510000000  0.5577660000000  0.3945200000000 1.0
C      1  0.5039770000000  0.4067940000000  0.4617110000000 1.0
C      1  0.4450910000000  0.5511810000000  0.5435340000000 1.0
C      1  0.4725240000000  0.5614540000000  0.5431270000000 1.0
C      1  0.5056300000000  0.4140560000000  0.5217840000000 1.0
C      1  0.5707810000000  0.5157410000000  0.5364320000000 1.0
C      1  0.5501920000000  0.5273370000000  0.5529120000000 1.0
C      1  0.5049140000000  0.4333130000000  0.5733500000000 1.0
C      1  0.4849340000000  0.4038560000000  0.4809170000000 1.0
C      1  0.5699980000000  0.4856570000000  0.5348500000000 1.0
C      1  0.4409820000000  0.4675380000000  0.4164700000000 1.0
C      1  0.5071130000000  0.5125490000000  0.4336870000000 1.0
C      1  0.5874370000000  0.5006170000000  0.4939250000000 1.0
C      1  0.5407300000000  0.4668290000000  0.6043810000000 1.0
C      1  0.4245760000000  0.5686620000000  0.5380340000000 1.0
C      1  0.5567460000000  0.5326980000000  0.4303370000000 1.0
C      1  0.5026630000000  0.5331180000000  0.4555440000000 1.0
C      1  0.4635300000000  0.4615390000000  0.4303520000000 1.0
C      1  0.5340980000000  0.4483370000000  0.4959580000000 1.0
C      1  0.5684940000000  0.5179440000000  0.4812820000000 1.0
C      1  0.4711660000000  0.4896650000000  0.5594060000000 1.0
C      1  0.5757660000000  0.4767690000000  0.5074350000000 1.0
C      1  0.4807700000000  0.4086730000000  0.5088750000000 1.0
C      1  0.5561480000000  0.4791950000000  0.5602630000000 1.0
C      1  0.4865510000000  0.4651510000000  0.4740150000000 1.0
C      1  0.5251850000000  0.5034850000000  0.4858820000000 1.0
C      1  0.5475520000000  0.4337460000000  0.4477320000000 1.0
C      1  0.4974350000000  0.5683190000000  0.4193410000000 1.0
C      1  0.5023230000000  0.5776130000000  0.4704410000000 1.0
C      1  0.4368340000000  0.4881420000000  0.5234350000000 1.0
C      1  0.4403300000000  0.4307320000000  0.5388070000000 1.0
C      1  0.4850110000000  0.5756100000000  0.4940090000000 1.0
C      1  0.4383550000000  0.5242700000000  0.5509560000000 1.0
C      1  0.5221990000000  0.5311580000000  0.4786100000000 1.0
C      1  0.4819740000000  0.5684950000000  0.5689210000000 1.0
C      1  0.4600800000000  0.5033900000000  0.4547110000000 1.0
C      1  0.4790670000000  0.4587340000000  0.5224640000000 1.0
C      1  0.4344220000000  0.5083560000000  0.4422880000000 1.0
C      1  0.5105470000000  0.5612430000000  0.4453650000000 1.0
C      1  0.5559500000000  0.4841330000000  0.4477900000000 1.0
C      1  0.4563440000000  0.4151800000000  0.5228680000000 1.0
C      1  0.5206820000000  0.4856720000000  0.6054350000000 1.0
C      1  0.5084820000000  0.5010890000000  0.5352470000000 1.0
C      1  0.4723530000000  0.4768970000000  0.4525730000000 1.0
C      1  0.5388350000000  0.5792520000000  0.5116670000000 1.0
C      1  0.4918860000000  0.5670140000000  0.5213710000000 1.0
END
