TITL C-627113-6568-1511 9364.12039382301 125000 -530.532881481524 0 0 87 (C1) n - 1
REM
REM in /home/nfs/bkarasulu/CARBON/AIRSS/Generating-Clusters/LCBOP/Only-C1/SD-CG/FIRE-CG
REM
REM
REM
REM
REM
REM ./C.cell (11c1c37f851c82e70ff6c80c92926a4b)
REM AIRSS Version 0.9.1 bugfix July 2018 build 013d7b7c2542+ Fri, 06 Jul 2018 19:26:36 +0100
REM compiler GCC version 9.2.1 20190827 (Red Hat 9.2.1-1)
REM options -cpp -mtune=generic -march=x86-64 -g -O0 -fpre-include=/usr/include/finclude/math-vector-fortran.h
REM seed -1813941056 -1682297474 895743886 -229712331 -1183588241 115628423 1704035170 1970958443 770011307 -1823204369 -1216538874 -2126289422 985927233 458592617 -1028475315 -1643060547 1744975194 -666982039 1492931589 728397596 -945900397 774338154 126793060 1468262121 -1742643205 1707208554 1277997191 654474151 -1081679940 -1644102024 1770740768 -1293457530 -1728952742
REM
CELL 1.54180   50.00000   50.00000   50.00000   90.00000   90.00000   90.00000
LATT -1
SFAC C  
C      1  0.4699680000000  0.5267430000000  0.5969740000000 1.0
C      1  0.4549170000000  0.5051330000000  0.6043830000000 1.0
C      1  0.4329070000000  0.5191880000000  0.4483220000000 1.0
C      1  0.4497560000000  0.3808740000000  0.5561620000000 1.0
C      1  0.5665110000000  0.4834560000000  0.5180080000000 1.0
C      1  0.4857640000000  0.5423170000000  0.4889780000000 1.0
C      1  0.5631710000000  0.4484080000000  0.4862580000000 1.0
C      1  0.5389400000000  0.5145410000000  0.4794810000000 1.0
C      1  0.4985500000000  0.4929580000000  0.4432620000000 1.0
C      1  0.5352310000000  0.5952650000000  0.4220610000000 1.0
C      1  0.5221700000000  0.4774660000000  0.5402010000000 1.0
C      1  0.5229250000000  0.5379960000000  0.5726320000000 1.0
C      1  0.4293660000000  0.5113830000000  0.5653540000000 1.0
C      1  0.5679520000000  0.5102390000000  0.4454590000000 1.0
C      1  0.4978290000000  0.5433850000000  0.5587010000000 1.0
C      1  0.4995350000000  0.5364230000000  0.4631630000000 1.0
C      1  0.5700990000000  0.5103490000000  0.5268450000000 1.0
C      1  0.4188170000000  0.3426030000000  0.5746260000000 1.0
C      1  0.5268600000000  0.4563240000000  0.4246050000000 1.0
C      1  0.4677930000000  0.5232440000000  0.5040690000000 1.0
C      1  0.4011420000000  0.5018060000000  0.4875100000000 1.0
C      1  0.4618540000000  0.5103030000000  0.5299580000000 1.0
C      1  0.4727620000000  0.4648250000000  0.5177180000000 1.0
C      1  0.5464310000000  0.5749350000000  0.4064480000000 1.0
C      1  0.5274680000000  0.4327100000000  0.4374170000000 1.0
C      1  0.5477690000000  0.4668810000000  0.5330530000000 1.0
C      1  0.5521770000000  0.4308720000000  0.5045480000000 1.0
C      1  0.4818470000000  0.4700380000000  0.5605130000000 1.0
C      1  0.5896150000000  0.5309440000000  0.5238970000000 1.0
C      1  0.4622950000000  0.4407540000000  0.4789880000000 1.0
C      1  0.5006550000000  0.4682540000000  0.5140700000000 1.0
C      1  0.5159180000000  0.5822340000000  0.5091350000000 1.0
C      1  0.4768510000000  0.4535520000000  0.4589830000000 1.0
C      1  0.4521330000000  0.5246410000000  0.5526980000000 1.0
C      1  0.5286810000000  0.5335580000000  0.4605170000000 1.0
C      1  0.5079300000000  0.4039820000000  0.4773740000000 1.0
C      1  0.5171440000000  0.4321700000000  0.5463430000000 1.0
C      1  0.4678900000000  0.4257900000000  0.5617930000000 1.0
C      1  0.5594040000000  0.5832470000000  0.3543310000000 1.0
C      1  0.5064260000000  0.4824150000000  0.4909770000000 1.0
C      1  0.5249660000000  0.6062380000000  0.4439130000000 1.0
C      1  0.4531010000000  0.4520110000000  0.5027200000000 1.0
C      1  0.5085980000000  0.6059450000000  0.4954450000000 1.0
C      1  0.4712050000000  0.4470020000000  0.4329310000000 1.0
C      1  0.5208720000000  0.4893520000000  0.5658860000000 1.0
C      1  0.4657240000000  0.4017380000000  0.5466840000000 1.0
C      1  0.5504030000000  0.5500150000000  0.4185020000000 1.0
C      1  0.5162440000000  0.6092390000000  0.4687570000000 1.0
C      1  0.5411320000000  0.4384030000000  0.5299690000000 1.0
C      1  0.5533230000000  0.5793290000000  0.3798120000000 1.0
C      1  0.5708840000000  0.5907840000000  0.3035800000000 1.0
C      1  0.4857170000000  0.5183670000000  0.4454600000000 1.0
C      1  0.4370170000000  0.4924260000000  0.5859840000000 1.0
C      1  0.5833970000000  0.5571590000000  0.5297930000000 1.0
C      1  0.5213090000000  0.5200340000000  0.5226360000000 1.0
C      1  0.5677060000000  0.4766440000000  0.4894940000000 1.0
C      1  0.4678550000000  0.4832320000000  0.5385300000000 1.0
C      1  0.5398810000000  0.5812310000000  0.5247860000000 1.0
C      1  0.4918840000000  0.4419060000000  0.5586100000000 1.0
C      1  0.5578720000000  0.5655670000000  0.5403270000000 1.0
C      1  0.4796680000000  0.3985750000000  0.5222360000000 1.0
C      1  0.4939600000000  0.4757120000000  0.4658170000000 1.0
C      1  0.4726360000000  0.5359010000000  0.5699920000000 1.0
C      1  0.5614420000000  0.4982580000000  0.4712270000000 1.0
C      1  0.4941460000000  0.6253190000000  0.5082660000000 1.0
C      1  0.5489660000000  0.5319870000000  0.4395120000000 1.0
C      1  0.4463740000000  0.4400470000000  0.5746510000000 1.0
C      1  0.5198400000000  0.4150200000000  0.4560670000000 1.0
C      1  0.4127290000000  0.5130720000000  0.4646230000000 1.0
C      1  0.5157030000000  0.4809680000000  0.4243280000000 1.0
C      1  0.4077870000000  0.4754820000000  0.4946850000000 1.0
C      1  0.4341850000000  0.3615580000000  0.5654540000000 1.0
C      1  0.5031810000000  0.5411500000000  0.5305420000000 1.0
C      1  0.5456850000000  0.5441930000000  0.5556770000000 1.0
C      1  0.3891310000000  0.5206540000000  0.5337150000000 1.0
C      1  0.4991100000000  0.5592460000000  0.5087550000000 1.0
C      1  0.3883140000000  0.5170380000000  0.5072630000000 1.0
C      1  0.5207780000000  0.5058320000000  0.4981460000000 1.0
C      1  0.5883730000000  0.5023490000000  0.4292920000000 1.0
C      1  0.4363470000000  0.4640620000000  0.5826290000000 1.0
C      1  0.4583180000000  0.5212830000000  0.4405170000000 1.0
C      1  0.4942420000000  0.3987560000000  0.4997870000000 1.0
C      1  0.4037460000000  0.5164540000000  0.5556220000000 1.0
C      1  0.5652350000000  0.5870610000000  0.3287570000000 1.0
C      1  0.5459770000000  0.5216480000000  0.5366220000000 1.0
C      1  0.5235770000000  0.5109740000000  0.5819940000000 1.0
C      1  0.4260070000000  0.4585760000000  0.5041890000000 1.0
END
