TITL C-627112-676-523 0.289699796780159 125000 -866.565000142437 0 0 145 (C1) n - 1
REM
REM in /home/nfs/bkarasulu/CARBON/AIRSS/Generating-Clusters/LCBOP/Only-C1/SD-CG/FIRE-CG
REM
REM
REM
REM
REM
REM ./C.cell (11c1c37f851c82e70ff6c80c92926a4b)
REM AIRSS Version 0.9.1 bugfix July 2018 build 013d7b7c2542+ Fri, 06 Jul 2018 19:26:36 +0100
REM compiler GCC version 9.2.1 20190827 (Red Hat 9.2.1-1)
REM options -cpp -mtune=generic -march=x86-64 -g -O0 -fpre-include=/usr/include/finclude/math-vector-fortran.h
REM seed -681075619 1712470042 -1364920056 849518484 -1585889344 1703315854 -927019740 -1311293109 1534554873 428919190 -2061304500 333467002 -382586774 -276805594 -776395300 794256397 1762225469 -318619981 -2082931700 -255890491 2082085402 -567177747 -488808744 -1505118519 234042662 -2135866775 -1167535349 -1281731006 264416971 574778575 -1173300597 -635403438 608641156
REM
CELL 1.54180   50.00000   50.00000   50.00000   90.00000   90.00000   90.00000
LATT -1
SFAC C  
C      1  0.4687520000000  0.6292530000000  0.4508290000000 1.0
C      1  0.5887750000000  0.4793290000000  0.5203650000000 1.0
C      1  0.4333500000000  0.5029500000000  0.4778390000000 1.0
C      1  0.5633430000000  0.4910040000000  0.5085560000000 1.0
C      1  0.5841430000000  0.4308140000000  0.5428060000000 1.0
C      1  0.5171070000000  0.5883750000000  0.4527090000000 1.0
C      1  0.5342130000000  0.5490940000000  0.4334200000000 1.0
C      1  0.5709810000000  0.4157810000000  0.4826770000000 1.0
C      1  0.5612820000000  0.4887580000000  0.4237890000000 1.0
C      1  0.5177760000000  0.5044500000000  0.4265280000000 1.0
C      1  0.5789250000000  0.5525410000000  0.4213310000000 1.0
C      1  0.5378630000000  0.4928920000000  0.6065670000000 1.0
C      1  0.5953840000000  0.4651640000000  0.4484140000000 1.0
C      1  0.5114480000000  0.4370270000000  0.4521730000000 1.0
C      1  0.3930390000000  0.4892180000000  0.4985940000000 1.0
C      1  0.4446720000000  0.5513900000000  0.4044180000000 1.0
C      1  0.5389990000000  0.5892320000000  0.4688000000000 1.0
C      1  0.4539250000000  0.4954020000000  0.5430250000000 1.0
C      1  0.5447600000000  0.4015470000000  0.4824590000000 1.0
C      1  0.5670140000000  0.4176110000000  0.5595650000000 1.0
C      1  0.4992450000000  0.5774430000000  0.5547490000000 1.0
C      1  0.5882330000000  0.4479050000000  0.5203520000000 1.0
C      1  0.4431930000000  0.4711050000000  0.4228160000000 1.0
C      1  0.5324170000000  0.4396190000000  0.5402200000000 1.0
C      1  0.4902200000000  0.4560380000000  0.4441890000000 1.0
C      1  0.4851770000000  0.3842040000000  0.5253600000000 1.0
C      1  0.5862770000000  0.5438120000000  0.4475950000000 1.0
C      1  0.4995350000000  0.4084340000000  0.4537900000000 1.0
C      1  0.5939570000000  0.5116740000000  0.4832960000000 1.0
C      1  0.4139760000000  0.4425290000000  0.4969370000000 1.0
C      1  0.5152150000000  0.4873600000000  0.4032900000000 1.0
C      1  0.4738560000000  0.6447560000000  0.4718850000000 1.0
C      1  0.5003910000000  0.4674300000000  0.5217780000000 1.0
C      1  0.5372120000000  0.4976500000000  0.4689720000000 1.0
C      1  0.4608680000000  0.4843970000000  0.5183310000000 1.0
C      1  0.5447920000000  0.4811740000000  0.3993680000000 1.0
C      1  0.4452370000000  0.4227500000000  0.4553970000000 1.0
C      1  0.5313550000000  0.4042780000000  0.5075100000000 1.0
C      1  0.4615990000000  0.5628810000000  0.5239790000000 1.0
C      1  0.4885200000000  0.4757430000000  0.4022590000000 1.0
C      1  0.5006860000000  0.3886240000000  0.5471810000000 1.0
C      1  0.4598780000000  0.4538790000000  0.5668210000000 1.0
C      1  0.4270490000000  0.4006030000000  0.5258990000000 1.0
C      1  0.4687830000000  0.4097970000000  0.3914380000000 1.0
C      1  0.4762610000000  0.5711410000000  0.5006650000000 1.0
C      1  0.5348850000000  0.5170610000000  0.5906570000000 1.0
C      1  0.5145590000000  0.5313850000000  0.4305300000000 1.0
C      1  0.5854330000000  0.4431270000000  0.4335900000000 1.0
C      1  0.4926220000000  0.4633230000000  0.6061170000000 1.0
C      1  0.4644010000000  0.4909170000000  0.4122720000000 1.0
C      1  0.5885730000000  0.4380000000000  0.4920060000000 1.0
C      1  0.5235310000000  0.3936450000000  0.4630740000000 1.0
C      1  0.4748120000000  0.4232080000000  0.4143270000000 1.0
C      1  0.5185640000000  0.4266950000000  0.5186040000000 1.0
C      1  0.4578620000000  0.4557130000000  0.5160270000000 1.0
C      1  0.4731850000000  0.5115740000000  0.4552340000000 1.0
C      1  0.4814090000000  0.4462350000000  0.5853470000000 1.0
C      1  0.5890060000000  0.5914090000000  0.5224450000000 1.0
C      1  0.4029290000000  0.4714980000000  0.5432590000000 1.0
C      1  0.5398040000000  0.4951580000000  0.4418000000000 1.0
C      1  0.5071120000000  0.5139040000000  0.5809120000000 1.0
C      1  0.6056430000000  0.4850580000000  0.4934700000000 1.0
C      1  0.5148270000000  0.5859910000000  0.5293170000000 1.0
C      1  0.5541090000000  0.5315690000000  0.5721620000000 1.0
C      1  0.5443970000000  0.5578380000000  0.5608260000000 1.0
C      1  0.6121050000000  0.5999310000000  0.5309780000000 1.0
C      1  0.4811550000000  0.5250960000000  0.5843830000000 1.0
C      1  0.5309380000000  0.5178180000000  0.5281910000000 1.0
C      1  0.5088550000000  0.5675190000000  0.3937090000000 1.0
C      1  0.4752230000000  0.6068480000000  0.4379380000000 1.0
C      1  0.3469320000000  0.5743410000000  0.5235000000000 1.0
C      1  0.3838900000000  0.5150610000000  0.5067080000000 1.0
C      1  0.4325360000000  0.5285960000000  0.5921180000000 1.0
C      1  0.4411390000000  0.3994730000000  0.5012200000000 1.0
C      1  0.4742420000000  0.4764980000000  0.6229410000000 1.0
C      1  0.5524240000000  0.5583350000000  0.4137880000000 1.0
C      1  0.5200290000000  0.4720120000000  0.6085950000000 1.0
C      1  0.4948060000000  0.4752510000000  0.5468450000000 1.0
C      1  0.5136540000000  0.6151740000000  0.5249940000000 1.0
C      1  0.4890970000000  0.5142350000000  0.4789350000000 1.0
C      1  0.4696480000000  0.5168080000000  0.4269470000000 1.0
C      1  0.4061500000000  0.5570820000000  0.4867780000000 1.0
C      1  0.4689320000000  0.5441990000000  0.4158930000000 1.0
C      1  0.4663680000000  0.4630030000000  0.4632450000000 1.0
C      1  0.5765870000000  0.5159100000000  0.5611310000000 1.0
C      1  0.5163280000000  0.5136190000000  0.4771270000000 1.0
C      1  0.4293710000000  0.5687610000000  0.4786500000000 1.0
C      1  0.4614380000000  0.4999510000000  0.6218790000000 1.0
C      1  0.5443980000000  0.4542060000000  0.4831670000000 1.0
C      1  0.4561830000000  0.5741380000000  0.4802350000000 1.0
C      1  0.5492560000000  0.4804600000000  0.4871750000000 1.0
C      1  0.4169000000000  0.4838730000000  0.5659880000000 1.0
C      1  0.4713960000000  0.4113350000000  0.4420730000000 1.0
C      1  0.6008780000000  0.4608240000000  0.4763130000000 1.0
C      1  0.4949990000000  0.4216260000000  0.5816380000000 1.0
C      1  0.5643150000000  0.5812290000000  0.5134390000000 1.0
C      1  0.5863800000000  0.4912140000000  0.4384460000000 1.0
C      1  0.5900970000000  0.4967130000000  0.5463170000000 1.0
C      1  0.4374910000000  0.5236590000000  0.4975100000000 1.0
C      1  0.4587630000000  0.5193820000000  0.6019990000000 1.0
C      1  0.5700410000000  0.5186280000000  0.5001300000000 1.0
C      1  0.4481670000000  0.5747340000000  0.5714500000000 1.0
C      1  0.3654600000000  0.5593820000000  0.5129110000000 1.0
C      1  0.5915670000000  0.5160050000000  0.4545770000000 1.0
C      1  0.5613130000000  0.5787720000000  0.4839240000000 1.0
C      1  0.4711710000000  0.5664810000000  0.5533300000000 1.0
C      1  0.4551110000000  0.4913470000000  0.4644600000000 1.0
C      1  0.4896270000000  0.5654710000000  0.4152240000000 1.0
C      1  0.4141110000000  0.5083390000000  0.5816640000000 1.0
C      1  0.5187250000000  0.4460220000000  0.4785110000000 1.0
C      1  0.5420040000000  0.4664440000000  0.5420010000000 1.0
C      1  0.4353920000000  0.4188710000000  0.5437950000000 1.0
C      1  0.5362850000000  0.5675880000000  0.3921670000000 1.0
C      1  0.4723040000000  0.4482520000000  0.4914460000000 1.0
C      1  0.5052300000000  0.5702020000000  0.5046140000000 1.0
C      1  0.4853270000000  0.4501720000000  0.4157170000000 1.0
C      1  0.5057190000000  0.5286550000000  0.5312130000000 1.0
C      1  0.5099690000000  0.4936450000000  0.5610220000000 1.0
C      1  0.5447490000000  0.5745180000000  0.5346400000000 1.0
C      1  0.4534700000000  0.4404100000000  0.5413990000000 1.0
C      1  0.5263920000000  0.5517980000000  0.4964300000000 1.0
C      1  0.4716200000000  0.5371080000000  0.5608540000000 1.0
C      1  0.4468970000000  0.5376270000000  0.5204630000000 1.0
C      1  0.5385440000000  0.4195270000000  0.5601330000000 1.0
C      1  0.4543360000000  0.5227320000000  0.5436620000000 1.0
C      1  0.5796470000000  0.5624620000000  0.4687300000000 1.0
C      1  0.5456670000000  0.5323180000000  0.5075670000000 1.0
C      1  0.4672510000000  0.3885820000000  0.5053910000000 1.0
C      1  0.4438210000000  0.4507490000000  0.4451630000000 1.0
C      1  0.5609830000000  0.4335020000000  0.4280890000000 1.0
C      1  0.4453060000000  0.4784550000000  0.5641780000000 1.0
C      1  0.4320220000000  0.4203680000000  0.4825410000000 1.0
C      1  0.5342940000000  0.4940710000000  0.5444370000000 1.0
C      1  0.5013160000000  0.4451330000000  0.5018940000000 1.0
C      1  0.4321330000000  0.5566060000000  0.5849160000000 1.0
C      1  0.5026400000000  0.6364530000000  0.5134700000000 1.0
C      1  0.4015580000000  0.4657480000000  0.5142330000000 1.0
C      1  0.4872400000000  0.6474210000000  0.4947490000000 1.0
C      1  0.5194110000000  0.5677350000000  0.5731440000000 1.0
C      1  0.3856740000000  0.5433970000000  0.5017830000000 1.0
C      1  0.4080590000000  0.4916650000000  0.4748900000000 1.0
C      1  0.4936440000000  0.5856330000000  0.4360790000000 1.0
C      1  0.5348640000000  0.4351920000000  0.4334920000000 1.0
C      1  0.5131920000000  0.4062580000000  0.5661960000000 1.0
C      1  0.4774960000000  0.5009840000000  0.5016120000000 1.0
END
