TITL C-627109-622-669 2.5820721659973e-07 125000 -672.525164110303 0 0 110 (C1) n - 1
REM
REM in /home/nfs/bkarasulu/CARBON/AIRSS/Generating-Clusters/LCBOP/Only-C1/SD-CG/FIRE-CG
REM
REM
REM
REM
REM
REM ./C.cell (11c1c37f851c82e70ff6c80c92926a4b)
REM AIRSS Version 0.9.1 bugfix July 2018 build 013d7b7c2542+ Fri, 06 Jul 2018 19:26:36 +0100
REM compiler GCC version 9.2.1 20190827 (Red Hat 9.2.1-1)
REM options -cpp -mtune=generic -march=x86-64 -g -O0 -fpre-include=/usr/include/finclude/math-vector-fortran.h
REM seed -1602174837 -929017942 -247668811 -1874249246 -338645177 1837307001 -1031670573 -1388527802 -1480760523 -2048082032 1450317122 -334328912 -1553315149 833790817 1770476630 765683110 970784409 -324597131 52051677 967508913 1095910432 2036393579 2035293974 -469046356 -952329742 2095294387 -464498475 -622446393 -779574599 132509771 -569529259 -441359912 1465986592
REM
CELL 1.54180   50.00000   50.00000   50.00000   90.00000   90.00000   90.00000
LATT -1
SFAC C  
C      1  0.5471180000000  0.4769280000000  0.5848810000000 1.0
C      1  0.4818640000000  0.5091210000000  0.5134810000000 1.0
C      1  0.4418830000000  0.4739150000000  0.5777550000000 1.0
C      1  0.5401050000000  0.4955620000000  0.4304190000000 1.0
C      1  0.5614000000000  0.5396420000000  0.5569190000000 1.0
C      1  0.5215510000000  0.4841650000000  0.5910030000000 1.0
C      1  0.4402320000000  0.5997620000000  0.4839000000000 1.0
C      1  0.5145040000000  0.5175140000000  0.4666050000000 1.0
C      1  0.5496170000000  0.5627430000000  0.5695740000000 1.0
C      1  0.4721260000000  0.4683510000000  0.4010420000000 1.0
C      1  0.5330740000000  0.5147940000000  0.3870840000000 1.0
C      1  0.5647730000000  0.4334770000000  0.5027210000000 1.0
C      1  0.4773450000000  0.4114120000000  0.5483250000000 1.0
C      1  0.5820840000000  0.5418040000000  0.5376910000000 1.0
C      1  0.4437220000000  0.4043930000000  0.5157340000000 1.0
C      1  0.5251480000000  0.5181300000000  0.4409050000000 1.0
C      1  0.5485880000000  0.4574650000000  0.4649320000000 1.0
C      1  0.5098780000000  0.5355430000000  0.4236480000000 1.0
C      1  0.4771540000000  0.4544100000000  0.4730150000000 1.0
C      1  0.4331690000000  0.5488720000000  0.5627870000000 1.0
C      1  0.5040270000000  0.5663970000000  0.4677350000000 1.0
C      1  0.5851520000000  0.4816870000000  0.4506740000000 1.0
C      1  0.4623470000000  0.5384300000000  0.4517560000000 1.0
C      1  0.4793870000000  0.5107240000000  0.5751490000000 1.0
C      1  0.4216590000000  0.5905740000000  0.5012460000000 1.0
C      1  0.4955050000000  0.4552250000000  0.3913640000000 1.0
C      1  0.5633520000000  0.5113070000000  0.5040160000000 1.0
C      1  0.4596660000000  0.4740110000000  0.4855280000000 1.0
C      1  0.3783460000000  0.4885690000000  0.4866430000000 1.0
C      1  0.4715230000000  0.4041920000000  0.5213060000000 1.0
C      1  0.5126530000000  0.5871330000000  0.5254670000000 1.0
C      1  0.5484120000000  0.5139180000000  0.5553860000000 1.0
C      1  0.4599350000000  0.5527810000000  0.5562480000000 1.0
C      1  0.4803120000000  0.4055470000000  0.4726380000000 1.0
C      1  0.5701500000000  0.5695080000000  0.4794000000000 1.0
C      1  0.4841600000000  0.5803330000000  0.5253170000000 1.0
C      1  0.4115420000000  0.5278630000000  0.5021950000000 1.0
C      1  0.4072160000000  0.4355900000000  0.5353290000000 1.0
C      1  0.4995030000000  0.5256440000000  0.5319760000000 1.0
C      1  0.5294260000000  0.5612230000000  0.5894960000000 1.0
C      1  0.4687470000000  0.4959850000000  0.3960770000000 1.0
C      1  0.4054710000000  0.4581470000000  0.5495850000000 1.0
C      1  0.5061660000000  0.5015650000000  0.5750150000000 1.0
C      1  0.4287890000000  0.4982770000000  0.4380660000000 1.0
C      1  0.4751270000000  0.4372690000000  0.5596650000000 1.0
C      1  0.4062340000000  0.5451460000000  0.5240870000000 1.0
C      1  0.4130250000000  0.5341550000000  0.5497580000000 1.0
C      1  0.5818610000000  0.5276150000000  0.5146620000000 1.0
C      1  0.4333800000000  0.4734500000000  0.4291550000000 1.0
C      1  0.4549940000000  0.4482440000000  0.5767390000000 1.0
C      1  0.5208270000000  0.5369220000000  0.3973900000000 1.0
C      1  0.4539380000000  0.4564120000000  0.4197550000000 1.0
C      1  0.6234000000000  0.4645710000000  0.5291400000000 1.0
C      1  0.4717780000000  0.4299930000000  0.4605030000000 1.0
C      1  0.5967540000000  0.5068890000000  0.4477440000000 1.0
C      1  0.5025860000000  0.4673500000000  0.4709970000000 1.0
C      1  0.4627040000000  0.4695110000000  0.5308320000000 1.0
C      1  0.4770410000000  0.5308590000000  0.5543820000000 1.0
C      1  0.4986250000000  0.4956350000000  0.4720570000000 1.0
C      1  0.4856730000000  0.4574480000000  0.5413200000000 1.0
C      1  0.4089310000000  0.5727980000000  0.5171910000000 1.0
C      1  0.5110220000000  0.5414950000000  0.4808120000000 1.0
C      1  0.5349110000000  0.4907590000000  0.4024290000000 1.0
C      1  0.5946820000000  0.4598890000000  0.4674380000000 1.0
C      1  0.4871940000000  0.5874030000000  0.4641230000000 1.0
C      1  0.4177470000000  0.4798510000000  0.5628130000000 1.0
C      1  0.4809570000000  0.5355700000000  0.4280510000000 1.0
C      1  0.4389130000000  0.5221400000000  0.4447330000000 1.0
C      1  0.6196720000000  0.4586080000000  0.4796240000000 1.0
C      1  0.4594260000000  0.5471580000000  0.4810650000000 1.0
C      1  0.5597690000000  0.4875430000000  0.5615080000000 1.0
C      1  0.5323970000000  0.4672700000000  0.5124240000000 1.0
C      1  0.5191990000000  0.4047790000000  0.5032370000000 1.0
C      1  0.4365720000000  0.5325350000000  0.4909250000000 1.0
C      1  0.4635420000000  0.5992560000000  0.4701290000000 1.0
C      1  0.5733560000000  0.4696660000000  0.5431720000000 1.0
C      1  0.3937590000000  0.5084590000000  0.4934210000000 1.0
C      1  0.4908020000000  0.4046210000000  0.4996790000000 1.0
C      1  0.5263900000000  0.4592100000000  0.4825370000000 1.0
C      1  0.5418270000000  0.4958360000000  0.5081490000000 1.0
C      1  0.5285800000000  0.5673170000000  0.5129630000000 1.0
C      1  0.5563990000000  0.4785150000000  0.4462790000000 1.0
C      1  0.4757730000000  0.4980650000000  0.4886200000000 1.0
C      1  0.5494030000000  0.5886510000000  0.5572670000000 1.0
C      1  0.4871590000000  0.5859260000000  0.5751630000000 1.0
C      1  0.5269630000000  0.4384950000000  0.5518920000000 1.0
C      1  0.4207690000000  0.4164260000000  0.5225230000000 1.0
C      1  0.6013760000000  0.4679010000000  0.5438200000000 1.0
C      1  0.5148880000000  0.5427110000000  0.5097280000000 1.0
C      1  0.5452840000000  0.4122450000000  0.5033900000000 1.0
C      1  0.4690100000000  0.5207670000000  0.4063170000000 1.0
C      1  0.4468570000000  0.4679570000000  0.5093300000000 1.0
C      1  0.5203100000000  0.4681460000000  0.3946840000000 1.0
C      1  0.4786950000000  0.3820780000000  0.4584590000000 1.0
C      1  0.4099280000000  0.5067760000000  0.5572190000000 1.0
C      1  0.5134200000000  0.4560230000000  0.5346040000000 1.0
C      1  0.5955100000000  0.5331880000000  0.4519540000000 1.0
C      1  0.5854400000000  0.5553590000000  0.4627800000000 1.0
C      1  0.6308820000000  0.4607550000000  0.5037770000000 1.0
C      1  0.5719420000000  0.4445410000000  0.4771060000000 1.0
C      1  0.4604610000000  0.4332920000000  0.4347540000000 1.0
C      1  0.5201270000000  0.5130830000000  0.5516950000000 1.0
C      1  0.5289200000000  0.6011260000000  0.5440750000000 1.0
C      1  0.4581250000000  0.4957840000000  0.5851360000000 1.0
C      1  0.4714310000000  0.5648320000000  0.5026420000000 1.0
C      1  0.5517830000000  0.5731870000000  0.4983580000000 1.0
C      1  0.4732000000000  0.5773060000000  0.5520010000000 1.0
C      1  0.4938730000000  0.4310350000000  0.3787420000000 1.0
C      1  0.5060290000000  0.5747030000000  0.5908860000000 1.0
C      1  0.5596720000000  0.4548640000000  0.5221570000000 1.0
END
