TITL C-627109-622-929 -8.72758005946129e-08 125000 -683.740736441811 0 0 112 (C1) n - 1
REM
REM in /home/nfs/bkarasulu/CARBON/AIRSS/Generating-Clusters/LCBOP/Only-C1/SD-CG/FIRE-CG
REM
REM
REM
REM
REM
REM ./C.cell (11c1c37f851c82e70ff6c80c92926a4b)
REM AIRSS Version 0.9.1 bugfix July 2018 build 013d7b7c2542+ Fri, 06 Jul 2018 19:26:36 +0100
REM compiler GCC version 9.2.1 20190827 (Red Hat 9.2.1-1)
REM options -cpp -mtune=generic -march=x86-64 -g -O0 -fpre-include=/usr/include/finclude/math-vector-fortran.h
REM seed 1038557932 680238021 664515298 -2068428704 711132154 588449547 -1528337598 1531907493 942526596 1140407115 1346065457 1068932985 -2086352180 715936865 -814319954 716161971 -370399634 -19422221 1537201951 -1083417755 1312690221 304042279 48225346 2131903300 -135890566 -1026333910 -208490022 -1843614771 -431977866 -1590840701 -1811407203 -438912305 -2026988176
REM
CELL 1.54180   50.00000   50.00000   50.00000   90.00000   90.00000   90.00000
LATT -1
SFAC C  
C      1  0.4736520000000  0.4596290000000  0.5804430000000 1.0
C      1  0.4820630000000  0.4348110000000  0.4848570000000 1.0
C      1  0.3945380000000  0.5833730000000  0.4959580000000 1.0
C      1  0.4485790000000  0.5001810000000  0.5160070000000 1.0
C      1  0.4757470000000  0.5210590000000  0.5968750000000 1.0
C      1  0.5242130000000  0.4584040000000  0.5784600000000 1.0
C      1  0.4905830000000  0.5828160000000  0.4901500000000 1.0
C      1  0.4975550000000  0.5893750000000  0.5726850000000 1.0
C      1  0.3966130000000  0.4424460000000  0.5054380000000 1.0
C      1  0.5574730000000  0.4357400000000  0.3822150000000 1.0
C      1  0.5689880000000  0.4158920000000  0.5317890000000 1.0
C      1  0.4823310000000  0.4576670000000  0.5326990000000 1.0
C      1  0.5059270000000  0.5061340000000  0.4363450000000 1.0
C      1  0.5217540000000  0.5934260000000  0.5620120000000 1.0
C      1  0.5453700000000  0.5665710000000  0.4397380000000 1.0
C      1  0.4552190000000  0.5645150000000  0.4605410000000 1.0
C      1  0.4540970000000  0.6007320000000  0.5250850000000 1.0
C      1  0.4376980000000  0.4965590000000  0.4411440000000 1.0
C      1  0.4347950000000  0.4471580000000  0.5382750000000 1.0
C      1  0.4618790000000  0.4544600000000  0.4939300000000 1.0
C      1  0.4534750000000  0.5098690000000  0.5811020000000 1.0
C      1  0.5295150000000  0.4804930000000  0.5319970000000 1.0
C      1  0.4276970000000  0.5435820000000  0.5503630000000 1.0
C      1  0.5793820000000  0.5165860000000  0.5475200000000 1.0
C      1  0.4769010000000  0.5921490000000  0.4244790000000 1.0
C      1  0.5268180000000  0.5784410000000  0.4247460000000 1.0
C      1  0.3850270000000  0.6045180000000  0.4840610000000 1.0
C      1  0.4905500000000  0.4931330000000  0.4980660000000 1.0
C      1  0.5818240000000  0.5657790000000  0.4735730000000 1.0
C      1  0.5028600000000  0.5887270000000  0.4191740000000 1.0
C      1  0.5162660000000  0.5938980000000  0.4874660000000 1.0
C      1  0.4000550000000  0.4798750000000  0.4694900000000 1.0
C      1  0.5123400000000  0.3790060000000  0.4977250000000 1.0
C      1  0.5800310000000  0.5598610000000  0.5225830000000 1.0
C      1  0.5249720000000  0.4348190000000  0.4433370000000 1.0
C      1  0.4991020000000  0.4456940000000  0.5718140000000 1.0
C      1  0.3934360000000  0.4590480000000  0.4847590000000 1.0
C      1  0.5397500000000  0.5044050000000  0.5171040000000 1.0
C      1  0.5275890000000  0.4821970000000  0.5625560000000 1.0
C      1  0.4902460000000  0.3872990000000  0.4848940000000 1.0
C      1  0.4203550000000  0.5636150000000  0.5320350000000 1.0
C      1  0.5320030000000  0.5183060000000  0.4915210000000 1.0
C      1  0.4024150000000  0.5359650000000  0.4932790000000 1.0
C      1  0.5355530000000  0.3815430000000  0.5109340000000 1.0
C      1  0.5027080000000  0.5166770000000  0.4889960000000 1.0
C      1  0.4901680000000  0.5343820000000  0.4712430000000 1.0
C      1  0.5834000000000  0.5309650000000  0.5223270000000 1.0
C      1  0.4645450000000  0.5159680000000  0.5357960000000 1.0
C      1  0.4967890000000  0.5020830000000  0.5934860000000 1.0
C      1  0.5625050000000  0.4399170000000  0.4092210000000 1.0
C      1  0.3813460000000  0.5203200000000  0.5015500000000 1.0
C      1  0.4830040000000  0.5714000000000  0.5864760000000 1.0
C      1  0.5838700000000  0.4633650000000  0.5434330000000 1.0
C      1  0.4265410000000  0.4908180000000  0.5321410000000 1.0
C      1  0.4992880000000  0.4374650000000  0.5435500000000 1.0
C      1  0.5406410000000  0.5456220000000  0.4838780000000 1.0
C      1  0.4578710000000  0.4481620000000  0.5221110000000 1.0
C      1  0.5560600000000  0.3939760000000  0.5229900000000 1.0
C      1  0.5651600000000  0.4149220000000  0.4512830000000 1.0
C      1  0.5813110000000  0.4589610000000  0.4183520000000 1.0
C      1  0.4403880000000  0.4729310000000  0.4268710000000 1.0
C      1  0.4564940000000  0.4075060000000  0.4538900000000 1.0
C      1  0.5657670000000  0.6007230000000  0.5005790000000 1.0
C      1  0.5907870000000  0.4709090000000  0.4404310000000 1.0
C      1  0.4176900000000  0.5280510000000  0.4706340000000 1.0
C      1  0.5463110000000  0.5025610000000  0.4696130000000 1.0
C      1  0.5067090000000  0.5010660000000  0.5673150000000 1.0
C      1  0.4553420000000  0.5192920000000  0.4424470000000 1.0
C      1  0.5850390000000  0.5151110000000  0.4980080000000 1.0
C      1  0.4402470000000  0.4464050000000  0.4249520000000 1.0
C      1  0.4516130000000  0.4794710000000  0.5752030000000 1.0
C      1  0.5738960000000  0.4982510000000  0.4772900000000 1.0
C      1  0.5199210000000  0.5427860000000  0.5960600000000 1.0
C      1  0.5491210000000  0.4254300000000  0.4295520000000 1.0
C      1  0.4402680000000  0.5405680000000  0.4571910000000 1.0
C      1  0.5403520000000  0.4533470000000  0.5260950000000 1.0
C      1  0.5590050000000  0.4298730000000  0.4753800000000 1.0
C      1  0.5659090000000  0.4438980000000  0.5339500000000 1.0
C      1  0.5519350000000  0.4317560000000  0.3566150000000 1.0
C      1  0.4835670000000  0.5206360000000  0.4463650000000 1.0
C      1  0.4908770000000  0.5462560000000  0.5962960000000 1.0
C      1  0.4984140000000  0.4825430000000  0.5251130000000 1.0
C      1  0.4747420000000  0.4087950000000  0.4749570000000 1.0
C      1  0.5464100000000  0.4278300000000  0.3314420000000 1.0
C      1  0.4631330000000  0.4843390000000  0.4950360000000 1.0
C      1  0.5633160000000  0.5271200000000  0.5687310000000 1.0
C      1  0.4737840000000  0.5966520000000  0.5078340000000 1.0
C      1  0.4445600000000  0.4221690000000  0.4350930000000 1.0
C      1  0.4326270000000  0.4718550000000  0.5534870000000 1.0
C      1  0.4061880000000  0.5604570000000  0.5073290000000 1.0
C      1  0.4329090000000  0.5885570000000  0.5356130000000 1.0
C      1  0.5817630000000  0.5770930000000  0.4995370000000 1.0
C      1  0.5773170000000  0.4502650000000  0.4816980000000 1.0
C      1  0.5847750000000  0.4738660000000  0.4678740000000 1.0
C      1  0.4900450000000  0.5053960000000  0.5438260000000 1.0
C      1  0.4797380000000  0.5605950000000  0.4756280000000 1.0
C      1  0.4568820000000  0.5841850000000  0.4404870000000 1.0
C      1  0.5463880000000  0.5860270000000  0.5548970000000 1.0
C      1  0.5398410000000  0.6045000000000  0.4943180000000 1.0
C      1  0.5299060000000  0.4351710000000  0.4724340000000 1.0
C      1  0.5101560000000  0.4355820000000  0.4930850000000 1.0
C      1  0.5875620000000  0.4894380000000  0.5486220000000 1.0
C      1  0.5304440000000  0.4992670000000  0.4461180000000 1.0
C      1  0.5186190000000  0.4353390000000  0.5212940000000 1.0
C      1  0.5565290000000  0.5577830000000  0.4637560000000 1.0
C      1  0.5666670000000  0.5721640000000  0.5443930000000 1.0
C      1  0.5436920000000  0.5359480000000  0.5850650000000 1.0
C      1  0.5027080000000  0.4434310000000  0.4303040000000 1.0
C      1  0.4480420000000  0.5256990000000  0.5573450000000 1.0
C      1  0.5418060000000  0.4493560000000  0.5970960000000 1.0
C      1  0.4158770000000  0.5007520000000  0.4598860000000 1.0
C      1  0.4114760000000  0.4362460000000  0.5269060000000 1.0
END
