TITL C-627113-6568-1512 -1250.62501013514 125000 -219.439362327816 0 0 38 (C1) n - 1
REM
REM in /home/nfs/bkarasulu/CARBON/AIRSS/Generating-Clusters/LCBOP/Only-C1/SD-CG/FIRE-CG
REM
REM
REM
REM
REM
REM ./C.cell (11c1c37f851c82e70ff6c80c92926a4b)
REM AIRSS Version 0.9.1 bugfix July 2018 build 013d7b7c2542+ Fri, 06 Jul 2018 19:26:36 +0100
REM compiler GCC version 9.2.1 20190827 (Red Hat 9.2.1-1)
REM options -cpp -mtune=generic -march=x86-64 -g -O0 -fpre-include=/usr/include/finclude/math-vector-fortran.h
REM seed 1533482523 -129523841 102804810 759322940 -871884434 587915938 795831199 -648644463 -1415182750 -1220589455 -2113497254 28316564 -975275168 1254799199 -311446371 490510705 1333444350 1493880045 1827395663 -1639920368 -1446995536 -1959416495 1382705389 -1384610799 -414098128 2084046732 -1647075764 2124191056 1586517759 -2013728138 -362622302 1385976870 -1978947889
REM
CELL 1.54180   50.00000   50.00000   50.00000   90.00000   90.00000   90.00000
LATT -1
SFAC C  
C      1  0.5324530000000  0.4350800000000  0.4179670000000 1.0
C      1  0.4028040000000  0.6084770000000  0.6004470000000 1.0
C      1  0.5261970000000  0.4684610000000  0.3540800000000 1.0
C      1  0.3772820000000  0.6574470000000  0.6576460000000 1.0
C      1  0.5319430000000  0.5018930000000  0.5069360000000 1.0
C      1  0.5526160000000  0.4787110000000  0.4207770000000 1.0
C      1  0.5422600000000  0.3941490000000  0.4377260000000 1.0
C      1  0.4702030000000  0.4870200000000  0.4785120000000 1.0
C      1  0.5321480000000  0.4411630000000  0.5238490000000 1.0
C      1  0.4112610000000  0.5919430000000  0.5815430000000 1.0
C      1  0.5684390000000  0.4447250000000  0.4924090000000 1.0
C      1  0.4926820000000  0.5225480000000  0.5646020000000 1.0
C      1  0.5220010000000  0.4637080000000  0.5338190000000 1.0
C      1  0.4842850000000  0.4688700000000  0.4653080000000 1.0
C      1  0.5472130000000  0.4994420000000  0.4853140000000 1.0
C      1  0.5053480000000  0.5075140000000  0.5474910000000 1.0
C      1  0.3858020000000  0.6411910000000  0.6385210000000 1.0
C      1  0.4368990000000  0.5412130000000  0.5259750000000 1.0
C      1  0.5189140000000  0.4332870000000  0.4439260000000 1.0
C      1  0.6075580000000  0.4643620000000  0.4723410000000 1.0
C      1  0.5288120000000  0.4095120000000  0.4581970000000 1.0
C      1  0.3689010000000  0.6734110000000  0.6764760000000 1.0
C      1  0.5644980000000  0.4863550000000  0.4675560000000 1.0
C      1  0.5656980000000  0.4940620000000  0.4401930000000 1.0
C      1  0.5806740000000  0.4649520000000  0.4773190000000 1.0
C      1  0.5194500000000  0.4913570000000  0.5297470000000 1.0
C      1  0.4999570000000  0.4510290000000  0.4535910000000 1.0
C      1  0.5461950000000  0.4305570000000  0.5021000000000 1.0
C      1  0.5324970000000  0.4641870000000  0.3790040000000 1.0
C      1  0.4577980000000  0.5053570000000  0.4930710000000 1.0
C      1  0.4281430000000  0.5583980000000  0.5441460000000 1.0
C      1  0.5391690000000  0.4593410000000  0.4056440000000 1.0
C      1  0.5445820000000  0.4090350000000  0.4144920000000 1.0
C      1  0.3943140000000  0.6248830000000  0.6194470000000 1.0
C      1  0.5348910000000  0.4111480000000  0.4852770000000 1.0
C      1  0.4196940000000  0.5752640000000  0.5627570000000 1.0
C      1  0.5797090000000  0.5164330000000  0.4329270000000 1.0
C      1  0.4467120000000  0.5235140000000  0.5088680000000 1.0
END
