TITL C-627107-135-99 -0.00569723737790102 125000 -1109.19805271486 0 0 180 (C1) n - 1
REM
REM in /home/nfs/bkarasulu/CARBON/AIRSS/Generating-Clusters/LCBOP/Only-C1/SD-CG/FIRE-CG
REM
REM
REM
REM
REM
REM ./C.cell (11c1c37f851c82e70ff6c80c92926a4b)
REM AIRSS Version 0.9.1 bugfix July 2018 build 013d7b7c2542+ Fri, 06 Jul 2018 19:26:36 +0100
REM compiler GCC version 9.2.1 20190827 (Red Hat 9.2.1-1)
REM options -cpp -mtune=generic -march=x86-64 -g -O0 -fpre-include=/usr/include/finclude/math-vector-fortran.h
REM seed -958928149 -1372989966 -1608489747 -986903458 -290789481 -1356365574 1691579528 -637613171 -1028332224 -500651984 -1758816374 1822069822 1723160058 671454921 -1609610715 1578928580 1589922177 798660635 428885185 -267861562 681489304 -1240331711 -853749906 992726732 187991408 1598998900 -175899147 1738994060 1638761830 50075973 1024829503 1825878056 -1499151847
REM
CELL 1.54180   50.00000   50.00000   50.00000   90.00000   90.00000   90.00000
LATT -1
SFAC C  
C      1  0.4957020000000  0.4855850000000  0.6476780000000 1.0
C      1  0.4396420000000  0.5136020000000  0.5238240000000 1.0
C      1  0.4661160000000  0.4051690000000  0.5837730000000 1.0
C      1  0.4290710000000  0.4670660000000  0.4336220000000 1.0
C      1  0.5442990000000  0.5021310000000  0.6361830000000 1.0
C      1  0.5270840000000  0.5769910000000  0.4693290000000 1.0
C      1  0.4310560000000  0.6264600000000  0.5494660000000 1.0
C      1  0.5637140000000  0.4229070000000  0.4667190000000 1.0
C      1  0.5281710000000  0.4526700000000  0.3414700000000 1.0
C      1  0.5906000000000  0.5010690000000  0.5506360000000 1.0
C      1  0.3957820000000  0.4924200000000  0.5289440000000 1.0
C      1  0.4388310000000  0.3986410000000  0.4585830000000 1.0
C      1  0.5333550000000  0.4233000000000  0.5218250000000 1.0
C      1  0.5808050000000  0.4256320000000  0.5138130000000 1.0
C      1  0.4664000000000  0.4441200000000  0.4206230000000 1.0
C      1  0.5208380000000  0.4941870000000  0.6458880000000 1.0
C      1  0.5481690000000  0.5397950000000  0.5024120000000 1.0
C      1  0.5515890000000  0.6118750000000  0.5191260000000 1.0
C      1  0.4936870000000  0.5854340000000  0.5831390000000 1.0
C      1  0.5666310000000  0.6010920000000  0.4965350000000 1.0
C      1  0.4399110000000  0.5794920000000  0.5402170000000 1.0
C      1  0.4629500000000  0.4286200000000  0.5963400000000 1.0
C      1  0.4939080000000  0.3887010000000  0.4436560000000 1.0
C      1  0.4826170000000  0.5621780000000  0.4543900000000 1.0
C      1  0.4026030000000  0.5525910000000  0.4993660000000 1.0
C      1  0.5018180000000  0.4315790000000  0.4469790000000 1.0
C      1  0.3677010000000  0.4909520000000  0.4337420000000 1.0
C      1  0.5227310000000  0.4004020000000  0.5105750000000 1.0
C      1  0.3867590000000  0.5394600000000  0.4770610000000 1.0
C      1  0.5863510000000  0.4520230000000  0.4269600000000 1.0
C      1  0.5067510000000  0.4700590000000  0.4085030000000 1.0
C      1  0.4421600000000  0.4691080000000  0.5737050000000 1.0
C      1  0.5287390000000  0.5516150000000  0.4823500000000 1.0
C      1  0.5224090000000  0.6107340000000  0.5222810000000 1.0
C      1  0.4773650000000  0.4659750000000  0.4066600000000 1.0
C      1  0.4358460000000  0.4575840000000  0.5475410000000 1.0
C      1  0.4508430000000  0.4539570000000  0.5972080000000 1.0
C      1  0.5632790000000  0.4349840000000  0.4199720000000 1.0
C      1  0.4534400000000  0.5631210000000  0.5179380000000 1.0
C      1  0.5880930000000  0.4273460000000  0.5715600000000 1.0
C      1  0.4293920000000  0.5462940000000  0.4566230000000 1.0
C      1  0.5200830000000  0.4630220000000  0.5661330000000 1.0
C      1  0.5419870000000  0.5070970000000  0.5533540000000 1.0
C      1  0.5634030000000  0.4935490000000  0.4783230000000 1.0
C      1  0.4817390000000  0.5530800000000  0.4810940000000 1.0
C      1  0.4367910000000  0.5209150000000  0.5859900000000 1.0
C      1  0.4972390000000  0.5125350000000  0.5045130000000 1.0
C      1  0.5007640000000  0.4924280000000  0.4524250000000 1.0
C      1  0.5202440000000  0.4946900000000  0.4998890000000 1.0
C      1  0.5153170000000  0.4318640000000  0.4721990000000 1.0
C      1  0.4775760000000  0.5006820000000  0.5766500000000 1.0
C      1  0.4491200000000  0.6066380000000  0.5437380000000 1.0
C      1  0.3978210000000  0.5531950000000  0.4241730000000 1.0
C      1  0.5614480000000  0.4313300000000  0.5595340000000 1.0
C      1  0.5747450000000  0.4396440000000  0.4890240000000 1.0
C      1  0.5555580000000  0.4910930000000  0.4502030000000 1.0
C      1  0.4718680000000  0.4329440000000  0.4478960000000 1.0
C      1  0.5038640000000  0.5367030000000  0.4871510000000 1.0
C      1  0.5574630000000  0.6150580000000  0.4731540000000 1.0
C      1  0.5285230000000  0.3576860000000  0.5339540000000 1.0
C      1  0.6097530000000  0.5058280000000  0.5304290000000 1.0
C      1  0.5587650000000  0.4244270000000  0.5323800000000 1.0
C      1  0.4938120000000  0.5031070000000  0.5540130000000 1.0
C      1  0.4119260000000  0.5368690000000  0.4061330000000 1.0
C      1  0.5724140000000  0.4902220000000  0.5965590000000 1.0
C      1  0.4591500000000  0.4884470000000  0.4018340000000 1.0
C      1  0.5288540000000  0.4564750000000  0.4699700000000 1.0
C      1  0.5427200000000  0.5654060000000  0.4206130000000 1.0
C      1  0.5531760000000  0.5367020000000  0.4285200000000 1.0
C      1  0.5034500000000  0.5807000000000  0.4553010000000 1.0
C      1  0.4766570000000  0.5538650000000  0.4279250000000 1.0
C      1  0.5840600000000  0.5505410000000  0.6365140000000 1.0
C      1  0.5998990000000  0.4733310000000  0.4380500000000 1.0
C      1  0.4232290000000  0.4930050000000  0.4706090000000 1.0
C      1  0.6083640000000  0.4200320000000  0.5533910000000 1.0
C      1  0.4108820000000  0.5084300000000  0.4134980000000 1.0
C      1  0.5152890000000  0.5890850000000  0.5401860000000 1.0
C      1  0.5984000000000  0.5280140000000  0.5941420000000 1.0
C      1  0.4334840000000  0.5181200000000  0.4598210000000 1.0
C      1  0.6118130000000  0.5098280000000  0.5026830000000 1.0
C      1  0.4771250000000  0.6133270000000  0.5411660000000 1.0
C      1  0.5144390000000  0.5167190000000  0.3760990000000 1.0
C      1  0.5946680000000  0.5226640000000  0.4594290000000 1.0
C      1  0.5786800000000  0.5410520000000  0.4445990000000 1.0
C      1  0.4291710000000  0.5650280000000  0.4960640000000 1.0
C      1  0.5166330000000  0.5798720000000  0.4130920000000 1.0
C      1  0.5446930000000  0.5966870000000  0.4568920000000 1.0
C      1  0.5783720000000  0.5752410000000  0.4848100000000 1.0
C      1  0.4798610000000  0.5416950000000  0.6000420000000 1.0
C      1  0.4582910000000  0.5143830000000  0.4476020000000 1.0
C      1  0.4092390000000  0.4255720000000  0.4950920000000 1.0
C      1  0.4965750000000  0.4487020000000  0.5560330000000 1.0
C      1  0.5050190000000  0.3821740000000  0.4695100000000 1.0
C      1  0.4516800000000  0.4914800000000  0.5104290000000 1.0
C      1  0.3866100000000  0.5375770000000  0.4465100000000 1.0
C      1  0.4919390000000  0.4455760000000  0.5272150000000 1.0
C      1  0.5151920000000  0.4046850000000  0.4841110000000 1.0
C      1  0.4861270000000  0.6192360000000  0.4436020000000 1.0
C      1  0.5460760000000  0.5105520000000  0.4942780000000 1.0
C      1  0.5193640000000  0.4908820000000  0.5585030000000 1.0
C      1  0.3887170000000  0.4686830000000  0.5174100000000 1.0
C      1  0.4661070000000  0.4437300000000  0.5083480000000 1.0
C      1  0.5828020000000  0.5304720000000  0.6183380000000 1.0
C      1  0.4799510000000  0.5723300000000  0.5043720000000 1.0
C      1  0.5656460000000  0.4632720000000  0.5929590000000 1.0
C      1  0.5124910000000  0.3787120000000  0.5253790000000 1.0
C      1  0.3913550000000  0.4473430000000  0.5004050000000 1.0
C      1  0.4934630000000  0.5638190000000  0.4068150000000 1.0
C      1  0.5361400000000  0.5351140000000  0.5537870000000 1.0
C      1  0.5874780000000  0.4442730000000  0.5944650000000 1.0
C      1  0.4117710000000  0.5162690000000  0.5297950000000 1.0
C      1  0.4936960000000  0.6187770000000  0.5153710000000 1.0
C      1  0.5445730000000  0.3388150000000  0.5420420000000 1.0
C      1  0.4543980000000  0.4675930000000  0.6217290000000 1.0
C      1  0.4214030000000  0.4323820000000  0.5440810000000 1.0
C      1  0.5456150000000  0.4520030000000  0.5740700000000 1.0
C      1  0.4706100000000  0.6095850000000  0.4675730000000 1.0
C      1  0.4634220000000  0.3970470000000  0.5349000000000 1.0
C      1  0.4727520000000  0.4987680000000  0.4914690000000 1.0
C      1  0.4492930000000  0.4968450000000  0.5762860000000 1.0
C      1  0.5262020000000  0.4692570000000  0.3630490000000 1.0
C      1  0.5046030000000  0.5989810000000  0.4333600000000 1.0
C      1  0.5655750000000  0.5071070000000  0.6190180000000 1.0
C      1  0.5795720000000  0.5689510000000  0.4544000000000 1.0
C      1  0.4493360000000  0.4657840000000  0.5222170000000 1.0
C      1  0.5714610000000  0.4691110000000  0.4941470000000 1.0
C      1  0.4511500000000  0.5424620000000  0.5960100000000 1.0
C      1  0.5258300000000  0.4592440000000  0.3898740000000 1.0
C      1  0.4343590000000  0.5711840000000  0.4690190000000 1.0
C      1  0.4579210000000  0.4493390000000  0.4721940000000 1.0
C      1  0.5140130000000  0.4976300000000  0.4225780000000 1.0
C      1  0.5421120000000  0.5094120000000  0.4314170000000 1.0
C      1  0.4540790000000  0.4162520000000  0.5153110000000 1.0
C      1  0.5146200000000  0.4803210000000  0.4740470000000 1.0
C      1  0.4314170000000  0.4871840000000  0.4128880000000 1.0
C      1  0.3877530000000  0.5093310000000  0.4333160000000 1.0
C      1  0.4717470000000  0.4771510000000  0.6396100000000 1.0
C      1  0.5101060000000  0.5658790000000  0.5256210000000 1.0
C      1  0.4250460000000  0.4106040000000  0.5618610000000 1.0
C      1  0.5469240000000  0.4429800000000  0.3985160000000 1.0
C      1  0.5012370000000  0.5149470000000  0.4008520000000 1.0
C      1  0.4816420000000  0.6024110000000  0.4942380000000 1.0
C      1  0.4851240000000  0.3801000000000  0.5309070000000 1.0
C      1  0.5468690000000  0.4639920000000  0.4492750000000 1.0
C      1  0.4030870000000  0.5439400000000  0.5275720000000 1.0
C      1  0.5659860000000  0.6243150000000  0.5390980000000 1.0
C      1  0.5766010000000  0.5493240000000  0.4980310000000 1.0
C      1  0.4644790000000  0.5292120000000  0.4247760000000 1.0
C      1  0.4832500000000  0.6441710000000  0.4329690000000 1.0
C      1  0.5307690000000  0.4720210000000  0.5164150000000 1.0
C      1  0.4655680000000  0.4024130000000  0.4481500000000 1.0
C      1  0.4952740000000  0.5982490000000  0.5586510000000 1.0
C      1  0.3968020000000  0.4928320000000  0.4799340000000 1.0
C      1  0.5239110000000  0.4971960000000  0.3602870000000 1.0
C      1  0.6056130000000  0.4201940000000  0.5262690000000 1.0
C      1  0.5647850000000  0.4942220000000  0.5411770000000 1.0
C      1  0.4510550000000  0.3985570000000  0.5610510000000 1.0
C      1  0.4256310000000  0.4213400000000  0.5175070000000 1.0
C      1  0.4597110000000  0.5338800000000  0.5287090000000 1.0
C      1  0.5499670000000  0.4181540000000  0.4402090000000 1.0
C      1  0.6068940000000  0.4953530000000  0.4555000000000 1.0
C      1  0.4148420000000  0.5646390000000  0.5450130000000 1.0
C      1  0.5145270000000  0.4092050000000  0.4344240000000 1.0
C      1  0.4758580000000  0.4998370000000  0.4626540000000 1.0
C      1  0.5914130000000  0.5046460000000  0.5786900000000 1.0
C      1  0.4726370000000  0.5137470000000  0.4030040000000 1.0
C      1  0.5591520000000  0.4752330000000  0.5207460000000 1.0
C      1  0.6201820000000  0.4913000000000  0.4816620000000 1.0
C      1  0.4181130000000  0.4107050000000  0.4720110000000 1.0
C      1  0.5959190000000  0.5297870000000  0.4887350000000 1.0
C      1  0.4859800000000  0.5199560000000  0.5317960000000 1.0
C      1  0.4999680000000  0.5587560000000  0.5893010000000 1.0
C      1  0.4873770000000  0.5142670000000  0.5994990000000 1.0
C      1  0.3791500000000  0.5127010000000  0.4848170000000 1.0
C      1  0.5232130000000  0.5472400000000  0.5764810000000 1.0
C      1  0.5185030000000  0.4469510000000  0.5178250000000 1.0
C      1  0.4460050000000  0.5957440000000  0.4620100000000 1.0
C      1  0.5322350000000  0.5470810000000  0.5279990000000 1.0
C      1  0.4365380000000  0.4678320000000  0.4619290000000 1.0
C      1  0.5600130000000  0.5829460000000  0.4375160000000 1.0
END
