TITL C-627107-135-646 1451.74922307581 125000 -1102.19308870422 0 0 179 (C1) n - 1
REM
REM in /home/nfs/bkarasulu/CARBON/AIRSS/Generating-Clusters/LCBOP/Only-C1/SD-CG/FIRE-CG
REM
REM
REM
REM
REM
REM ./C.cell (11c1c37f851c82e70ff6c80c92926a4b)
REM AIRSS Version 0.9.1 bugfix July 2018 build 013d7b7c2542+ Fri, 06 Jul 2018 19:26:36 +0100
REM compiler GCC version 9.2.1 20190827 (Red Hat 9.2.1-1)
REM options -cpp -mtune=generic -march=x86-64 -g -O0 -fpre-include=/usr/include/finclude/math-vector-fortran.h
REM seed 1987549218 -909137954 2065972746 -357715130 -561373327 -978216729 1963315578 1196791838 -1799811822 -1394651898 -633712991 1370441620 1854939683 -1306846602 -1306878417 284154493 -1808351996 -1727819187 124029440 522754007 -1770763547 1505532348 -1287122678 -46163807 -1677577549 -1702688257 -704714664 825596515 2051590736 -1572099670 -1198594069 1009327687 1924267566
REM
CELL 1.54180   50.00000   50.00000   50.00000   90.00000   90.00000   90.00000
LATT -1
SFAC C  
C      1  0.5461310000000  0.3951640000000  0.4519730000000 1.0
C      1  0.4414760000000  0.4681500000000  0.4152800000000 1.0
C      1  0.5365400000000  0.5086800000000  0.4684100000000 1.0
C      1  0.5668540000000  0.4870230000000  0.5108240000000 1.0
C      1  0.4171080000000  0.4071540000000  0.4455570000000 1.0
C      1  0.4909080000000  0.6034150000000  0.5776700000000 1.0
C      1  0.5408580000000  0.5286720000000  0.6133640000000 1.0
C      1  0.4850220000000  0.5155480000000  0.5998690000000 1.0
C      1  0.5379580000000  0.4499220000000  0.4235750000000 1.0
C      1  0.4609890000000  0.5584430000000  0.4094900000000 1.0
C      1  0.4679900000000  0.5848030000000  0.4810380000000 1.0
C      1  0.5611970000000  0.5125980000000  0.6044800000000 1.0
C      1  0.5750830000000  0.6180570000000  0.5119020000000 1.0
C      1  0.4125720000000  0.4160910000000  0.4725700000000 1.0
C      1  0.5277380000000  0.5736250000000  0.5177660000000 1.0
C      1  0.4472150000000  0.5523440000000  0.5144200000000 1.0
C      1  0.3893220000000  0.4560280000000  0.4476800000000 1.0
C      1  0.4426070000000  0.5935350000000  0.5538310000000 1.0
C      1  0.4377910000000  0.4399020000000  0.4146250000000 1.0
C      1  0.5650570000000  0.5475300000000  0.4981080000000 1.0
C      1  0.6038750000000  0.5473230000000  0.4554910000000 1.0
C      1  0.4136080000000  0.4898360000000  0.4648820000000 1.0
C      1  0.4658660000000  0.4776830000000  0.4266770000000 1.0
C      1  0.6225870000000  0.4788220000000  0.4920450000000 1.0
C      1  0.5548060000000  0.5652660000000  0.5174000000000 1.0
C      1  0.4463410000000  0.4613680000000  0.5966850000000 1.0
C      1  0.4420750000000  0.4899580000000  0.4637350000000 1.0
C      1  0.5065760000000  0.5282880000000  0.3736320000000 1.0
C      1  0.4928310000000  0.5420790000000  0.5981860000000 1.0
C      1  0.4616220000000  0.4999120000000  0.4460830000000 1.0
C      1  0.4732270000000  0.5489800000000  0.5227850000000 1.0
C      1  0.5085140000000  0.4886530000000  0.4334470000000 1.0
C      1  0.4495530000000  0.4881250000000  0.6068680000000 1.0
C      1  0.5550150000000  0.4421790000000  0.4867300000000 1.0
C      1  0.5143260000000  0.4683310000000  0.6085760000000 1.0
C      1  0.5842810000000  0.5684690000000  0.4561700000000 1.0
C      1  0.4477050000000  0.5716640000000  0.4637240000000 1.0
C      1  0.5307940000000  0.5508460000000  0.5623710000000 1.0
C      1  0.4089130000000  0.4572450000000  0.5509190000000 1.0
C      1  0.4665520000000  0.4394360000000  0.5204190000000 1.0
C      1  0.5578760000000  0.5485810000000  0.4019720000000 1.0
C      1  0.4192890000000  0.5575800000000  0.5129940000000 1.0
C      1  0.4872800000000  0.4090550000000  0.5685270000000 1.0
C      1  0.5930590000000  0.5455770000000  0.4999660000000 1.0
C      1  0.4891150000000  0.5206570000000  0.4814950000000 1.0
C      1  0.4245120000000  0.5735150000000  0.5658700000000 1.0
C      1  0.4704680000000  0.4326200000000  0.5682710000000 1.0
C      1  0.4709370000000  0.4461320000000  0.5934580000000 1.0
C      1  0.5296000000000  0.5125280000000  0.5344320000000 1.0
C      1  0.5028870000000  0.4844960000000  0.5661710000000 1.0
C      1  0.5208180000000  0.5102980000000  0.4203530000000 1.0
C      1  0.5386990000000  0.6042270000000  0.4786640000000 1.0
C      1  0.5786380000000  0.5054690000000  0.5821810000000 1.0
C      1  0.5217510000000  0.5515870000000  0.3710360000000 1.0
C      1  0.4412820000000  0.5067230000000  0.5854640000000 1.0
C      1  0.4516030000000  0.4700990000000  0.4824560000000 1.0
C      1  0.5499800000000  0.4667920000000  0.4409270000000 1.0
C      1  0.6162290000000  0.5241550000000  0.4630740000000 1.0
C      1  0.3868620000000  0.4920760000000  0.5088120000000 1.0
C      1  0.5285370000000  0.4328780000000  0.4866790000000 1.0
C      1  0.3845530000000  0.5063210000000  0.5567240000000 1.0
C      1  0.5863340000000  0.5292140000000  0.5674120000000 1.0
C      1  0.4584170000000  0.5997910000000  0.5042400000000 1.0
C      1  0.5771310000000  0.6451430000000  0.5150290000000 1.0
C      1  0.4597040000000  0.3981940000000  0.4342280000000 1.0
C      1  0.4657790000000  0.6033140000000  0.5674300000000 1.0
C      1  0.5737030000000  0.5269430000000  0.4082350000000 1.0
C      1  0.5173220000000  0.5086080000000  0.3912820000000 1.0
C      1  0.5227380000000  0.4034770000000  0.5281180000000 1.0
C      1  0.4145980000000  0.5851160000000  0.5159180000000 1.0
C      1  0.4213680000000  0.5144190000000  0.5282230000000 1.0
C      1  0.4751520000000  0.4968280000000  0.6193460000000 1.0
C      1  0.4964420000000  0.3872640000000  0.5259950000000 1.0
C      1  0.3896490000000  0.4839600000000  0.5385550000000 1.0
C      1  0.5186520000000  0.4830120000000  0.3790150000000 1.0
C      1  0.4838830000000  0.5031280000000  0.5742920000000 1.0
C      1  0.5830900000000  0.5537710000000  0.5561020000000 1.0
C      1  0.5761200000000  0.4277040000000  0.4741370000000 1.0
C      1  0.5860160000000  0.5925380000000  0.4712390000000 1.0
C      1  0.4376990000000  0.4146700000000  0.4274580000000 1.0
C      1  0.5287120000000  0.5671340000000  0.5864480000000 1.0
C      1  0.4979100000000  0.4816950000000  0.6279080000000 1.0
C      1  0.5516550000000  0.4830730000000  0.4641490000000 1.0
C      1  0.5113970000000  0.4198830000000  0.5828600000000 1.0
C      1  0.4856350000000  0.4251630000000  0.5058950000000 1.0
C      1  0.5071150000000  0.3964990000000  0.4250150000000 1.0
C      1  0.5148340000000  0.4298630000000  0.5126240000000 1.0
C      1  0.5442940000000  0.4595510000000  0.5413170000000 1.0
C      1  0.4389000000000  0.5426160000000  0.4223950000000 1.0
C      1  0.6231830000000  0.5014960000000  0.4766330000000 1.0
C      1  0.5191340000000  0.5881940000000  0.4940590000000 1.0
C      1  0.6089580000000  0.5095620000000  0.5269710000000 1.0
C      1  0.4777200000000  0.3909300000000  0.5484260000000 1.0
C      1  0.4200100000000  0.4885920000000  0.4183170000000 1.0
C      1  0.4813600000000  0.5247800000000  0.3621420000000 1.0
C      1  0.5336520000000  0.5206850000000  0.5616650000000 1.0
C      1  0.4973380000000  0.4666540000000  0.5435110000000 1.0
C      1  0.5010680000000  0.4437850000000  0.5994520000000 1.0
C      1  0.5920300000000  0.4682190000000  0.5463720000000 1.0
C      1  0.5733350000000  0.5735850000000  0.5378560000000 1.0
C      1  0.4050720000000  0.5340620000000  0.5167340000000 1.0
C      1  0.4786050000000  0.4622920000000  0.4792120000000 1.0
C      1  0.5388430000000  0.4182880000000  0.5733090000000 1.0
C      1  0.4736230000000  0.4487000000000  0.5457170000000 1.0
C      1  0.5324980000000  0.5246220000000  0.4429060000000 1.0
C      1  0.5584310000000  0.4329990000000  0.5877990000000 1.0
C      1  0.4046780000000  0.5450570000000  0.4586100000000 1.0
C      1  0.4850070000000  0.5458930000000  0.4445710000000 1.0
C      1  0.5114740000000  0.4493250000000  0.4119910000000 1.0
C      1  0.4283880000000  0.5168370000000  0.4091520000000 1.0
C      1  0.5728040000000  0.4221090000000  0.5345420000000 1.0
C      1  0.5204910000000  0.5476950000000  0.6062470000000 1.0
C      1  0.4382520000000  0.5988260000000  0.5251760000000 1.0
C      1  0.5665920000000  0.6067450000000  0.4868530000000 1.0
C      1  0.6012400000000  0.4612160000000  0.4478510000000 1.0
C      1  0.5205320000000  0.4059880000000  0.4468100000000 1.0
C      1  0.4490080000000  0.3950920000000  0.5402170000000 1.0
C      1  0.5492130000000  0.5249720000000  0.4914990000000 1.0
C      1  0.5696240000000  0.4036330000000  0.4616970000000 1.0
C      1  0.3906370000000  0.5320920000000  0.5642070000000 1.0
C      1  0.5487160000000  0.5079570000000  0.5147530000000 1.0
C      1  0.5109230000000  0.4579680000000  0.3851710000000 1.0
C      1  0.5029800000000  0.5127620000000  0.5251400000000 1.0
C      1  0.4918440000000  0.4483190000000  0.4574200000000 1.0
C      1  0.6087410000000  0.4538370000000  0.4973080000000 1.0
C      1  0.5576630000000  0.5637640000000  0.4478930000000 1.0
C      1  0.4852100000000  0.5717120000000  0.4064570000000 1.0
C      1  0.4924360000000  0.4638280000000  0.4309820000000 1.0
C      1  0.4344660000000  0.5172000000000  0.3809930000000 1.0
C      1  0.4588160000000  0.5029940000000  0.5624510000000 1.0
C      1  0.5199330000000  0.4520180000000  0.5323880000000 1.0
C      1  0.4021440000000  0.4810240000000  0.4403810000000 1.0
C      1  0.5225180000000  0.5998460000000  0.4270960000000 1.0
C      1  0.4969360000000  0.5791250000000  0.4776250000000 1.0
C      1  0.4868390000000  0.5586770000000  0.5459010000000 1.0
C      1  0.4129270000000  0.5480060000000  0.5735880000000 1.0
C      1  0.4300750000000  0.5535390000000  0.4484330000000 1.0
C      1  0.5145820000000  0.5920280000000  0.5848150000000 1.0
C      1  0.5990440000000  0.4439640000000  0.4715520000000 1.0
C      1  0.3854940000000  0.5211300000000  0.5002890000000 1.0
C      1  0.5899110000000  0.4892130000000  0.5272680000000 1.0
C      1  0.4757080000000  0.5225520000000  0.4564720000000 1.0
C      1  0.4804230000000  0.3971360000000  0.5025690000000 1.0
C      1  0.4552350000000  0.5201270000000  0.3644500000000 1.0
C      1  0.5857180000000  0.5043380000000  0.4181150000000 1.0
C      1  0.4293060000000  0.5315440000000  0.5897010000000 1.0
C      1  0.4881370000000  0.4867280000000  0.5232450000000 1.0
C      1  0.4815710000000  0.5546300000000  0.5741660000000 1.0
C      1  0.4056230000000  0.4794890000000  0.4910420000000 1.0
C      1  0.6113910000000  0.5333060000000  0.5150350000000 1.0
C      1  0.4626520000000  0.3870440000000  0.4587530000000 1.0
C      1  0.4311760000000  0.4061230000000  0.4940560000000 1.0
C      1  0.5596540000000  0.4702400000000  0.4886040000000 1.0
C      1  0.5319980000000  0.5525360000000  0.4483790000000 1.0
C      1  0.4887120000000  0.5308090000000  0.5079420000000 1.0
C      1  0.5835670000000  0.4767970000000  0.5733740000000 1.0
C      1  0.5733940000000  0.4552880000000  0.5890480000000 1.0
C      1  0.3862420000000  0.5321990000000  0.4739630000000 1.0
C      1  0.4239530000000  0.4584600000000  0.5766650000000 1.0
C      1  0.5139440000000  0.5794060000000  0.4088480000000 1.0
C      1  0.5092090000000  0.4997470000000  0.4803520000000 1.0
C      1  0.4374060000000  0.4925570000000  0.5226890000000 1.0
C      1  0.4609060000000  0.4938560000000  0.5358030000000 1.0
C      1  0.3939000000000  0.4378230000000  0.4680070000000 1.0
C      1  0.5930730000000  0.4440020000000  0.5284500000000 1.0
C      1  0.5336540000000  0.5629740000000  0.3941550000000 1.0
C      1  0.5812640000000  0.6003120000000  0.5333870000000 1.0
C      1  0.4316090000000  0.4733500000000  0.5031370000000 1.0
C      1  0.5462170000000  0.4104500000000  0.5455170000000 1.0
C      1  0.4143630000000  0.4329760000000  0.5352830000000 1.0
C      1  0.5147440000000  0.5631200000000  0.5408640000000 1.0
C      1  0.5248250000000  0.4895670000000  0.5805940000000 1.0
C      1  0.5055260000000  0.5619320000000  0.4557650000000 1.0
C      1  0.4291750000000  0.4104330000000  0.5237300000000 1.0
C      1  0.5958720000000  0.4822610000000  0.4309360000000 1.0
C      1  0.4959960000000  0.4784620000000  0.4948310000000 1.0
C      1  0.4572410000000  0.3930360000000  0.4859290000000 1.0
C      1  0.5314080000000  0.6090260000000  0.4510840000000 1.0
C      1  0.5125100000000  0.4284450000000  0.4630090000000 1.0
END
