TITL C-627106-156-1790 -5.88824770740956e-07 125000 -224.526583907866 0 0 38 (C1) n - 1
REM
REM in /home/nfs/bkarasulu/CARBON/AIRSS/Generating-Clusters/LCBOP/Only-C1/SD-CG/FIRE-CG
REM
REM
REM
REM
REM
REM ./C.cell (11c1c37f851c82e70ff6c80c92926a4b)
REM AIRSS Version 0.9.1 bugfix July 2018 build 013d7b7c2542+ Fri, 06 Jul 2018 19:26:36 +0100
REM compiler GCC version 9.2.1 20190827 (Red Hat 9.2.1-1)
REM options -cpp -mtune=generic -march=x86-64 -g -O0 -fpre-include=/usr/include/finclude/math-vector-fortran.h
REM seed 1560605538 1796426657 -1330311776 338178953 -313429009 -1656140887 1523965849 550155726 385825023 1663485916 -1587645166 1770510460 -52399490 -1153933070 -76182223 106558556 -832044835 281565233 2115087175 -1861267124 835883787 -2054931743 1465095867 1999043760 1745997795 2058836444 -1092654697 856772403 1431562539 -1564773774 507169659 1054648314 -192792443
REM
CELL 1.54180   50.00000   50.00000   50.00000   90.00000   90.00000   90.00000
LATT -1
SFAC C  
C      1  0.5182500000000  0.5272390000000  0.4559890000000 1.0
C      1  0.4989010000000  0.5165300000000  0.5523360000000 1.0
C      1  0.5362570000000  0.5432470000000  0.5171770000000 1.0
C      1  0.4392180000000  0.5327320000000  0.4965220000000 1.0
C      1  0.4911240000000  0.5185290000000  0.4577760000000 1.0
C      1  0.4780560000000  0.5383770000000  0.5538150000000 1.0
C      1  0.5074310000000  0.5421710000000  0.5161670000000 1.0
C      1  0.5286720000000  0.5503380000000  0.4701620000000 1.0
C      1  0.4764940000000  0.4840380000000  0.4905010000000 1.0
C      1  0.4101100000000  0.5764140000000  0.4463510000000 1.0
C      1  0.4987440000000  0.5138640000000  0.5225020000000 1.0
C      1  0.5210880000000  0.4679930000000  0.4381100000000 1.0
C      1  0.4958280000000  0.4711010000000  0.4470160000000 1.0
C      1  0.4989260000000  0.4141380000000  0.5178380000000 1.0
C      1  0.5762250000000  0.4752770000000  0.5068800000000 1.0
C      1  0.5473660000000  0.5417590000000  0.4912620000000 1.0
C      1  0.5260160000000  0.4201730000000  0.5214560000000 1.0
C      1  0.4519040000000  0.5195360000000  0.5178290000000 1.0
C      1  0.4890030000000  0.3889560000000  0.5246220000000 1.0
C      1  0.4297010000000  0.5304870000000  0.5608480000000 1.0
C      1  0.5577520000000  0.5165230000000  0.4803760000000 1.0
C      1  0.4691770000000  0.5360610000000  0.4587830000000 1.0
C      1  0.5737870000000  0.4984400000000  0.4940710000000 1.0
C      1  0.4797390000000  0.3654350000000  0.5309590000000 1.0
C      1  0.4751080000000  0.5039620000000  0.5105080000000 1.0
C      1  0.4268930000000  0.5604230000000  0.4582600000000 1.0
C      1  0.5491660000000  0.4331350000000  0.5210720000000 1.0
C      1  0.4448270000000  0.5433280000000  0.4709850000000 1.0
C      1  0.5262220000000  0.5214870000000  0.5602800000000 1.0
C      1  0.5670170000000  0.4521920000000  0.5162600000000 1.0
C      1  0.5443260000000  0.5337180000000  0.5431530000000 1.0
C      1  0.4519190000000  0.5296030000000  0.5450910000000 1.0
C      1  0.4819410000000  0.4337300000000  0.5073130000000 1.0
C      1  0.4856570000000  0.4909390000000  0.4643420000000 1.0
C      1  0.4738980000000  0.4571820000000  0.4978700000000 1.0
C      1  0.5412670000000  0.5086130000000  0.4577410000000 1.0
C      1  0.4903950000000  0.5575900000000  0.5346110000000 1.0
C      1  0.5415970000000  0.4847380000000  0.4431670000000 1.0
END
