TITL C-627112-676-1050 0.00493490934467683 125000 -744.039092496086 0 0 123 (C1) n - 1
REM
REM in /home/nfs/bkarasulu/CARBON/AIRSS/Generating-Clusters/LCBOP/Only-C1/SD-CG/FIRE-CG
REM
REM
REM
REM
REM
REM ./C.cell (11c1c37f851c82e70ff6c80c92926a4b)
REM AIRSS Version 0.9.1 bugfix July 2018 build 013d7b7c2542+ Fri, 06 Jul 2018 19:26:36 +0100
REM compiler GCC version 9.2.1 20190827 (Red Hat 9.2.1-1)
REM options -cpp -mtune=generic -march=x86-64 -g -O0 -fpre-include=/usr/include/finclude/math-vector-fortran.h
REM seed -247225008 -1454250571 369081960 1135076024 82747777 -554277498 350222471 1019159270 1722751969 83822152 -407251449 -491882404 -868691502 395426316 1274769199 762669129 -438370218 371708255 978544385 9386000 1795265927 -59538932 -952743290 414649028 -267424665 646148947 578403643 -811936595 1225512051 12831846 -1460891055 -140212168 406495724
REM
CELL 1.54180   50.00000   50.00000   50.00000   90.00000   90.00000   90.00000
LATT -1
SFAC C  
C      1  0.4678020000000  0.4969980000000  0.4952390000000 1.0
C      1  0.4516200000000  0.5192930000000  0.4799250000000 1.0
C      1  0.4364480000000  0.4450650000000  0.4787680000000 1.0
C      1  0.5679290000000  0.5408490000000  0.6064630000000 1.0
C      1  0.5056930000000  0.4643580000000  0.5991480000000 1.0
C      1  0.5181840000000  0.5065040000000  0.5475610000000 1.0
C      1  0.5667560000000  0.4131110000000  0.4527490000000 1.0
C      1  0.4918810000000  0.5856610000000  0.5058210000000 1.0
C      1  0.5229220000000  0.4114520000000  0.4725350000000 1.0
C      1  0.4349360000000  0.5446340000000  0.4148740000000 1.0
C      1  0.4622480000000  0.4600880000000  0.5774890000000 1.0
C      1  0.4992070000000  0.4083380000000  0.5145570000000 1.0
C      1  0.4826440000000  0.4658150000000  0.5298140000000 1.0
C      1  0.5482820000000  0.4675970000000  0.4714480000000 1.0
C      1  0.5018510000000  0.5502130000000  0.4774270000000 1.0
C      1  0.4827980000000  0.4937420000000  0.4432830000000 1.0
C      1  0.4074900000000  0.4842360000000  0.5341670000000 1.0
C      1  0.4798230000000  0.5645890000000  0.4893300000000 1.0
C      1  0.4129260000000  0.4619270000000  0.4865680000000 1.0
C      1  0.5516700000000  0.4100200000000  0.4764610000000 1.0
C      1  0.5883200000000  0.5367850000000  0.4360550000000 1.0
C      1  0.4920810000000  0.5055480000000  0.3981590000000 1.0
C      1  0.5224570000000  0.4396900000000  0.4012550000000 1.0
C      1  0.4219690000000  0.6157600000000  0.6388570000000 1.0
C      1  0.4193980000000  0.4582660000000  0.3897560000000 1.0
C      1  0.5730810000000  0.3971240000000  0.5188160000000 1.0
C      1  0.4929980000000  0.5178500000000  0.5541970000000 1.0
C      1  0.5384050000000  0.5175890000000  0.4275510000000 1.0
C      1  0.5102960000000  0.5273000000000  0.4934210000000 1.0
C      1  0.5106250000000  0.4522460000000  0.4946390000000 1.0
C      1  0.4418570000000  0.5679660000000  0.4003820000000 1.0
C      1  0.4509000000000  0.4382320000000  0.4542400000000 1.0
C      1  0.5448900000000  0.5361240000000  0.6205720000000 1.0
C      1  0.5913280000000  0.4858130000000  0.4677060000000 1.0
C      1  0.5234220000000  0.5181880000000  0.6141370000000 1.0
C      1  0.4240970000000  0.4189310000000  0.5308140000000 1.0
C      1  0.4480890000000  0.5264190000000  0.5403080000000 1.0
C      1  0.5312690000000  0.4745090000000  0.5926280000000 1.0
C      1  0.5334980000000  0.5123910000000  0.4548460000000 1.0
C      1  0.5144000000000  0.5611830000000  0.4559140000000 1.0
C      1  0.4529410000000  0.4454590000000  0.5017060000000 1.0
C      1  0.4876280000000  0.5423260000000  0.5682170000000 1.0
C      1  0.5935500000000  0.5100220000000  0.5431100000000 1.0
C      1  0.4113420000000  0.5051970000000  0.4540750000000 1.0
C      1  0.5018860000000  0.4737140000000  0.4491320000000 1.0
C      1  0.3897550000000  0.5050070000000  0.5301510000000 1.0
C      1  0.5246040000000  0.4886820000000  0.5271790000000 1.0
C      1  0.5331900000000  0.5029120000000  0.5917560000000 1.0
C      1  0.4552130000000  0.4847400000000  0.4471800000000 1.0
C      1  0.5823960000000  0.5385790000000  0.5835580000000 1.0
C      1  0.5813960000000  0.3783500000000  0.5355560000000 1.0
C      1  0.4224620000000  0.5874930000000  0.3953380000000 1.0
C      1  0.4550990000000  0.5655460000000  0.5981760000000 1.0
C      1  0.5196930000000  0.4658170000000  0.4701990000000 1.0
C      1  0.4499370000000  0.6362840000000  0.6062590000000 1.0
C      1  0.5985110000000  0.5070990000000  0.5151840000000 1.0
C      1  0.5895040000000  0.3599150000000  0.5521100000000 1.0
C      1  0.5708950000000  0.4699650000000  0.4546150000000 1.0
C      1  0.4395440000000  0.6138110000000  0.6179520000000 1.0
C      1  0.4453400000000  0.4604300000000  0.4367570000000 1.0
C      1  0.5196830000000  0.5909230000000  0.5005800000000 1.0
C      1  0.5352530000000  0.5177890000000  0.5674610000000 1.0
C      1  0.5571770000000  0.4294660000000  0.4318590000000 1.0
C      1  0.5908250000000  0.4863970000000  0.5582480000000 1.0
C      1  0.5891220000000  0.5062200000000  0.4884980000000 1.0
C      1  0.5091060000000  0.4236640000000  0.4942800000000 1.0
C      1  0.5101420000000  0.4868980000000  0.3902620000000 1.0
C      1  0.4643000000000  0.4709170000000  0.5084630000000 1.0
C      1  0.4874030000000  0.5153050000000  0.5087850000000 1.0
C      1  0.5296460000000  0.4672450000000  0.3970250000000 1.0
C      1  0.4253470000000  0.4862870000000  0.5571940000000 1.0
C      1  0.4784640000000  0.4729150000000  0.5971080000000 1.0
C      1  0.5864310000000  0.5354080000000  0.5552510000000 1.0
C      1  0.5659690000000  0.4572070000000  0.4294590000000 1.0
C      1  0.4407340000000  0.5109200000000  0.4531060000000 1.0
C      1  0.4549170000000  0.5165570000000  0.5876510000000 1.0
C      1  0.5778960000000  0.5430810000000  0.4603280000000 1.0
C      1  0.5335860000000  0.5469870000000  0.5676320000000 1.0
C      1  0.4952460000000  0.5139960000000  0.6181980000000 1.0
C      1  0.4058870000000  0.4618900000000  0.5155260000000 1.0
C      1  0.4044080000000  0.6057050000000  0.3906860000000 1.0
C      1  0.3964440000000  0.5208630000000  0.4360740000000 1.0
C      1  0.5840070000000  0.5174330000000  0.4173990000000 1.0
C      1  0.4075100000000  0.5380130000000  0.4183700000000 1.0
C      1  0.4345780000000  0.4647920000000  0.5732940000000 1.0
C      1  0.4319380000000  0.4579810000000  0.4125950000000 1.0
C      1  0.5165940000000  0.5581080000000  0.3990760000000 1.0
C      1  0.5692150000000  0.5266570000000  0.4818900000000 1.0
C      1  0.5295760000000  0.4237630000000  0.4241360000000 1.0
C      1  0.4678820000000  0.5720630000000  0.3912690000000 1.0
C      1  0.4576630000000  0.5458980000000  0.4948770000000 1.0
C      1  0.5445580000000  0.5848250000000  0.5087310000000 1.0
C      1  0.5768120000000  0.4676820000000  0.5711200000000 1.0
C      1  0.5087330000000  0.5610000000000  0.5661610000000 1.0
C      1  0.4654640000000  0.5432690000000  0.5855060000000 1.0
C      1  0.5641020000000  0.5727230000000  0.5224470000000 1.0
C      1  0.5104860000000  0.4142550000000  0.4461780000000 1.0
C      1  0.4760950000000  0.4540520000000  0.5539390000000 1.0
C      1  0.4033970000000  0.4361200000000  0.5275460000000 1.0
C      1  0.4942510000000  0.5696620000000  0.3907080000000 1.0
C      1  0.5541380000000  0.4609940000000  0.5837350000000 1.0
C      1  0.4530300000000  0.5274370000000  0.4287330000000 1.0
C      1  0.4788660000000  0.5135520000000  0.4219640000000 1.0
C      1  0.5545460000000  0.4753110000000  0.4098560000000 1.0
C      1  0.4667750000000  0.5340980000000  0.5205980000000 1.0
C      1  0.4469750000000  0.5885650000000  0.6084200000000 1.0
C      1  0.4403600000000  0.5103130000000  0.5626210000000 1.0
C      1  0.4039140000000  0.4828990000000  0.4697430000000 1.0
C      1  0.5596930000000  0.5030300000000  0.4148820000000 1.0
C      1  0.5566170000000  0.4692190000000  0.4990070000000 1.0
C      1  0.5442580000000  0.4935860000000  0.5079430000000 1.0
C      1  0.4923720000000  0.4522420000000  0.4332870000000 1.0
C      1  0.4732070000000  0.5003520000000  0.6041040000000 1.0
C      1  0.5085130000000  0.4664740000000  0.5197390000000 1.0
C      1  0.4483210000000  0.4241100000000  0.5198210000000 1.0
C      1  0.5651240000000  0.4444820000000  0.5092320000000 1.0
C      1  0.5635300000000  0.4170070000000  0.5017830000000 1.0
C      1  0.4858200000000  0.5911970000000  0.5328230000000 1.0
C      1  0.4838020000000  0.4278620000000  0.4448350000000 1.0
C      1  0.5786990000000  0.5566500000000  0.5380930000000 1.0
C      1  0.5392080000000  0.5165420000000  0.4853260000000 1.0
C      1  0.5294620000000  0.5401290000000  0.4136770000000 1.0
C      1  0.5005460000000  0.5852610000000  0.5547710000000 1.0
END
