TITL C-627111-6168-6 5.24309703085985e-07 125000 -442.825279926083 0 0 72 (C1) n - 1
REM
REM in /home/nfs/bkarasulu/CARBON/AIRSS/Generating-Clusters/LCBOP/Only-C1/SD-CG/FIRE-CG
REM
REM
REM
REM
REM
REM ./C.cell (11c1c37f851c82e70ff6c80c92926a4b)
REM AIRSS Version 0.9.1 bugfix July 2018 build 013d7b7c2542+ Fri, 06 Jul 2018 19:26:36 +0100
REM compiler GCC version 9.2.1 20190827 (Red Hat 9.2.1-1)
REM options -cpp -mtune=generic -march=x86-64 -g -O0 -fpre-include=/usr/include/finclude/math-vector-fortran.h
REM seed 1293532556 1893970376 2087605827 -1068497473 -1464928168 -997054280 -1104819757 1638687677 2048563060 -592447499 235839123 -1119084585 973560745 468077465 -792629552 264912330 1324335813 -2005663969 991834987 160933505 -1578687978 895256717 -552593987 -1658324819 -2005918917 146301027 829276904 765860071 -717219645 1059293342 599552406 935023992 -974751453
REM
CELL 1.54180   50.00000   50.00000   50.00000   90.00000   90.00000   90.00000
LATT -1
SFAC C  
C      1  0.5403550000000  0.4796090000000  0.5932210000000 1.0
C      1  0.5171950000000  0.3829500000000  0.4670140000000 1.0
C      1  0.4328870000000  0.5462000000000  0.4352470000000 1.0
C      1  0.4344230000000  0.5073020000000  0.5419840000000 1.0
C      1  0.4318960000000  0.4995410000000  0.4921280000000 1.0
C      1  0.4768480000000  0.4717260000000  0.5307100000000 1.0
C      1  0.5223150000000  0.4755550000000  0.5228260000000 1.0
C      1  0.5393040000000  0.3745580000000  0.4792310000000 1.0
C      1  0.4625420000000  0.5354740000000  0.3944120000000 1.0
C      1  0.5678930000000  0.4377430000000  0.5783210000000 1.0
C      1  0.5115840000000  0.4638260000000  0.4754120000000 1.0
C      1  0.4861230000000  0.4230610000000  0.4818260000000 1.0
C      1  0.5680900000000  0.5593560000000  0.4626920000000 1.0
C      1  0.5051170000000  0.4292060000000  0.5067120000000 1.0
C      1  0.4912710000000  0.5421360000000  0.5213540000000 1.0
C      1  0.4969000000000  0.4002730000000  0.4667070000000 1.0
C      1  0.4980690000000  0.4848090000000  0.5707520000000 1.0
C      1  0.5076990000000  0.5876490000000  0.5470530000000 1.0
C      1  0.5001400000000  0.5661810000000  0.4775190000000 1.0
C      1  0.4906940000000  0.4272180000000  0.5312340000000 1.0
C      1  0.4383900000000  0.5361660000000  0.5347020000000 1.0
C      1  0.5844390000000  0.5021570000000  0.4856030000000 1.0
C      1  0.4385760000000  0.5334690000000  0.4594300000000 1.0
C      1  0.4560880000000  0.5465840000000  0.5556960000000 1.0
C      1  0.5741290000000  0.3997850000000  0.5422970000000 1.0
C      1  0.4865010000000  0.5670810000000  0.5036620000000 1.0
C      1  0.4832740000000  0.5487240000000  0.5484680000000 1.0
C      1  0.5436000000000  0.5330750000000  0.4314990000000 1.0
C      1  0.4974780000000  0.5156540000000  0.5139970000000 1.0
C      1  0.5236980000000  0.5138690000000  0.4241500000000 1.0
C      1  0.5735980000000  0.4176640000000  0.5619150000000 1.0
C      1  0.5197420000000  0.4544610000000  0.5022600000000 1.0
C      1  0.5078700000000  0.5053260000000  0.4465270000000 1.0
C      1  0.4575910000000  0.4199220000000  0.4917000000000 1.0
C      1  0.5098700000000  0.5150750000000  0.3995400000000 1.0
C      1  0.5197460000000  0.4891120000000  0.4662190000000 1.0
C      1  0.5447020000000  0.5742450000000  0.4547300000000 1.0
C      1  0.4499050000000  0.5304960000000  0.5786890000000 1.0
C      1  0.5360580000000  0.5033240000000  0.4851660000000 1.0
C      1  0.5029660000000  0.4742530000000  0.5447730000000 1.0
C      1  0.5611630000000  0.5124030000000  0.4755180000000 1.0
C      1  0.4700390000000  0.4874100000000  0.5765850000000 1.0
C      1  0.4920930000000  0.5512640000000  0.4542520000000 1.0
C      1  0.5907630000000  0.5686320000000  0.4742210000000 1.0
C      1  0.5573920000000  0.3759690000000  0.4986640000000 1.0
C      1  0.5617210000000  0.5319430000000  0.4547510000000 1.0
C      1  0.5170990000000  0.5498060000000  0.5816280000000 1.0
C      1  0.5248740000000  0.5803760000000  0.4741420000000 1.0
C      1  0.5568060000000  0.4590540000000  0.5896430000000 1.0
C      1  0.5331210000000  0.5608990000000  0.4311670000000 1.0
C      1  0.4290810000000  0.5289780000000  0.4866150000000 1.0
C      1  0.5046570000000  0.5619530000000  0.4306510000000 1.0
C      1  0.4432330000000  0.5448990000000  0.4104320000000 1.0
C      1  0.4562740000000  0.5670030000000  0.5015740000000 1.0
C      1  0.5209410000000  0.5243440000000  0.5891440000000 1.0
C      1  0.4636050000000  0.4656550000000  0.4655700000000 1.0
C      1  0.5690080000000  0.3852330000000  0.5206850000000 1.0
C      1  0.4979060000000  0.5894960000000  0.5214890000000 1.0
C      1  0.4375420000000  0.5463290000000  0.5079440000000 1.0
C      1  0.4762700000000  0.4960990000000  0.5156780000000 1.0
C      1  0.4272670000000  0.4918420000000  0.5191720000000 1.0
C      1  0.5192390000000  0.4964360000000  0.5857600000000 1.0
C      1  0.4676090000000  0.4448660000000  0.5308760000000 1.0
C      1  0.4510810000000  0.4898330000000  0.4717500000000 1.0
C      1  0.5028150000000  0.5641630000000  0.5623420000000 1.0
C      1  0.4600180000000  0.5136300000000  0.4576750000000 1.0
C      1  0.4481470000000  0.4338510000000  0.5133900000000 1.0
C      1  0.4863120000000  0.5239010000000  0.3900720000000 1.0
C      1  0.4861560000000  0.5229420000000  0.4534410000000 1.0
C      1  0.4474740000000  0.5029600000000  0.5690020000000 1.0
C      1  0.4872760000000  0.4503910000000  0.4679270000000 1.0
C      1  0.5234520000000  0.5026260000000  0.5108600000000 1.0
END
