TITL C-627107-135-664 0.334441155457463 125000 -760.889335775671 0 0 125 (C1) n - 1
REM
REM in /home/nfs/bkarasulu/CARBON/AIRSS/Generating-Clusters/LCBOP/Only-C1/SD-CG/FIRE-CG
REM
REM
REM
REM
REM
REM ./C.cell (11c1c37f851c82e70ff6c80c92926a4b)
REM AIRSS Version 0.9.1 bugfix July 2018 build 013d7b7c2542+ Fri, 06 Jul 2018 19:26:36 +0100
REM compiler GCC version 9.2.1 20190827 (Red Hat 9.2.1-1)
REM options -cpp -mtune=generic -march=x86-64 -g -O0 -fpre-include=/usr/include/finclude/math-vector-fortran.h
REM seed 219415266 2111277299 -569051068 -665309005 -83219445 -1521766645 1187405421 -1116587247 988533176 -414737427 455172293 1705902964 981311964 1970520800 -1381582941 -454349476 -185681014 5796510 -507645668 150041642 -2120323281 1715144782 462787681 585084060 -748303886 187193631 -2040532657 -423819299 -726133781 -138460106 840766055 -881935664 1841770534
REM
CELL 1.54180   50.00000   50.00000   50.00000   90.00000   90.00000   90.00000
LATT -1
SFAC C  
C      1  0.4916350000000  0.4711560000000  0.6070910000000 1.0
C      1  0.4436600000000  0.4700680000000  0.4070300000000 1.0
C      1  0.4455020000000  0.5349460000000  0.4251220000000 1.0
C      1  0.4840470000000  0.5295370000000  0.3900860000000 1.0
C      1  0.4122140000000  0.5161830000000  0.5369230000000 1.0
C      1  0.5745980000000  0.5007370000000  0.4352700000000 1.0
C      1  0.4597530000000  0.5852040000000  0.4709190000000 1.0
C      1  0.6232040000000  0.5084980000000  0.5212850000000 1.0
C      1  0.5682900000000  0.5525230000000  0.5534100000000 1.0
C      1  0.5739800000000  0.5257430000000  0.5579610000000 1.0
C      1  0.4452000000000  0.4916220000000  0.4890940000000 1.0
C      1  0.5079550000000  0.5876760000000  0.4611970000000 1.0
C      1  0.4572730000000  0.5029730000000  0.5921550000000 1.0
C      1  0.4393890000000  0.4673220000000  0.5506910000000 1.0
C      1  0.5243990000000  0.5527130000000  0.5644800000000 1.0
C      1  0.5633190000000  0.4747840000000  0.4306760000000 1.0
C      1  0.3905890000000  0.5012150000000  0.4484390000000 1.0
C      1  0.4229380000000  0.5563470000000  0.5689810000000 1.0
C      1  0.4874370000000  0.4860840000000  0.5090930000000 1.0
C      1  0.5596380000000  0.5256370000000  0.4359880000000 1.0
C      1  0.4544490000000  0.5027890000000  0.4617750000000 1.0
C      1  0.5681500000000  0.5522060000000  0.4287750000000 1.0
C      1  0.5575630000000  0.5220740000000  0.6273000000000 1.0
C      1  0.4999180000000  0.5892900000000  0.5263320000000 1.0
C      1  0.5513350000000  0.4073480000000  0.5347070000000 1.0
C      1  0.4211540000000  0.5582610000000  0.4873360000000 1.0
C      1  0.4933010000000  0.5061800000000  0.4879170000000 1.0
C      1  0.5796090000000  0.4766540000000  0.5423610000000 1.0
C      1  0.4032270000000  0.5349880000000  0.4873860000000 1.0
C      1  0.5316160000000  0.4778950000000  0.4828420000000 1.0
C      1  0.4359170000000  0.5566970000000  0.4398050000000 1.0
C      1  0.5356110000000  0.4994120000000  0.4662480000000 1.0
C      1  0.4590800000000  0.5608950000000  0.5192490000000 1.0
C      1  0.4618590000000  0.5379100000000  0.4025030000000 1.0
C      1  0.5398920000000  0.4810550000000  0.5098310000000 1.0
C      1  0.6167860000000  0.5418900000000  0.4354560000000 1.0
C      1  0.4924360000000  0.6332180000000  0.5059260000000 1.0
C      1  0.5857840000000  0.4665780000000  0.4907770000000 1.0
C      1  0.5303730000000  0.4590930000000  0.5257480000000 1.0
C      1  0.5393680000000  0.4646280000000  0.5883120000000 1.0
C      1  0.6216850000000  0.4811140000000  0.5212200000000 1.0
C      1  0.5553490000000  0.4884410000000  0.5848780000000 1.0
C      1  0.4932710000000  0.4929720000000  0.5363750000000 1.0
C      1  0.5350060000000  0.5297200000000  0.5200080000000 1.0
C      1  0.5318710000000  0.5474160000000  0.4724080000000 1.0
C      1  0.5409720000000  0.5249770000000  0.4574540000000 1.0
C      1  0.5035820000000  0.5113180000000  0.3932090000000 1.0
C      1  0.4530380000000  0.5109190000000  0.5140350000000 1.0
C      1  0.5789660000000  0.5128670000000  0.5016490000000 1.0
C      1  0.4491110000000  0.4013040000000  0.5159890000000 1.0
C      1  0.4050500000000  0.4800540000000  0.4359710000000 1.0
C      1  0.5445740000000  0.5696600000000  0.5521500000000 1.0
C      1  0.4969560000000  0.5184840000000  0.5466490000000 1.0
C      1  0.4860820000000  0.5933750000000  0.4781160000000 1.0
C      1  0.4644220000000  0.4779760000000  0.6033240000000 1.0
C      1  0.4086090000000  0.5383990000000  0.5545510000000 1.0
C      1  0.5310230000000  0.4125740000000  0.4600360000000 1.0
C      1  0.6173060000000  0.5184550000000  0.4489100000000 1.0
C      1  0.4920430000000  0.6591640000000  0.5083170000000 1.0
C      1  0.5724020000000  0.4496000000000  0.4715280000000 1.0
C      1  0.4831720000000  0.5038140000000  0.4615600000000 1.0
C      1  0.5273940000000  0.4537660000000  0.6340020000000 1.0
C      1  0.4663110000000  0.4680700000000  0.4933650000000 1.0
C      1  0.5062800000000  0.4430220000000  0.4289480000000 1.0
C      1  0.4156840000000  0.4900130000000  0.4952380000000 1.0
C      1  0.6017900000000  0.5241780000000  0.5145440000000 1.0
C      1  0.5467320000000  0.4406530000000  0.5752220000000 1.0
C      1  0.4928930000000  0.6053860000000  0.5034300000000 1.0
C      1  0.4981470000000  0.4995360000000  0.4385890000000 1.0
C      1  0.4549640000000  0.4215170000000  0.4749850000000 1.0
C      1  0.5304180000000  0.5715500000000  0.4572430000000 1.0
C      1  0.4294080000000  0.4882430000000  0.4232260000000 1.0
C      1  0.5700720000000  0.4966650000000  0.5612360000000 1.0
C      1  0.5518050000000  0.4210370000000  0.5577290000000 1.0
C      1  0.5019180000000  0.5635800000000  0.5781650000000 1.0
C      1  0.5872620000000  0.4941810000000  0.4811670000000 1.0
C      1  0.5278650000000  0.5870760000000  0.5353970000000 1.0
C      1  0.4325290000000  0.5670020000000  0.5120220000000 1.0
C      1  0.5189610000000  0.4635970000000  0.6090170000000 1.0
C      1  0.5956940000000  0.5014410000000  0.4551080000000 1.0
C      1  0.4748050000000  0.4370880000000  0.4299340000000 1.0
C      1  0.5573180000000  0.5054680000000  0.6072160000000 1.0
C      1  0.4053520000000  0.4521510000000  0.4408230000000 1.0
C      1  0.4753050000000  0.5613930000000  0.5646550000000 1.0
C      1  0.4568370000000  0.3711800000000  0.4764920000000 1.0
C      1  0.5315260000000  0.4353890000000  0.4428310000000 1.0
C      1  0.4936900000000  0.5327860000000  0.4975750000000 1.0
C      1  0.4424870000000  0.5091960000000  0.4368340000000 1.0
C      1  0.4518080000000  0.4420470000000  0.4958310000000 1.0
C      1  0.4285810000000  0.4610130000000  0.5761780000000 1.0
C      1  0.5959110000000  0.5559880000000  0.4257210000000 1.0
C      1  0.5361590000000  0.4453030000000  0.6570380000000 1.0
C      1  0.4538500000000  0.3955450000000  0.4879600000000 1.0
C      1  0.4863580000000  0.4587670000000  0.4724590000000 1.0
C      1  0.5072660000000  0.4917290000000  0.4132120000000 1.0
C      1  0.4775130000000  0.5739410000000  0.5369740000000 1.0
C      1  0.4391650000000  0.5015080000000  0.5418750000000 1.0
C      1  0.5097250000000  0.4417690000000  0.5321090000000 1.0
C      1  0.4257560000000  0.4342990000000  0.4403760000000 1.0
C      1  0.5452850000000  0.4009910000000  0.5094190000000 1.0
C      1  0.4489840000000  0.4294560000000  0.5213180000000 1.0
C      1  0.4371710000000  0.5683160000000  0.4651960000000 1.0
C      1  0.5214270000000  0.5312350000000  0.5454990000000 1.0
C      1  0.4680180000000  0.5358230000000  0.5098060000000 1.0
C      1  0.5369290000000  0.4021800000000  0.4840310000000 1.0
C      1  0.4646470000000  0.4512600000000  0.4052920000000 1.0
C      1  0.5956810000000  0.4684080000000  0.5193260000000 1.0
C      1  0.4542970000000  0.5134970000000  0.5661910000000 1.0
C      1  0.5074920000000  0.4638310000000  0.4070960000000 1.0
C      1  0.5204650000000  0.5421510000000  0.4981340000000 1.0
C      1  0.4854860000000  0.4478330000000  0.5467630000000 1.0
C      1  0.4432480000000  0.4595000000000  0.5991400000000 1.0
C      1  0.5525150000000  0.5078120000000  0.5134240000000 1.0
C      1  0.4051540000000  0.5142600000000  0.5083760000000 1.0
C      1  0.4915700000000  0.4735570000000  0.5563220000000 1.0
C      1  0.5562060000000  0.4519020000000  0.4466710000000 1.0
C      1  0.5499850000000  0.5728070000000  0.4366030000000 1.0
C      1  0.4750510000000  0.5310290000000  0.5590440000000 1.0
C      1  0.3916520000000  0.5238540000000  0.4634860000000 1.0
C      1  0.4887220000000  0.4543140000000  0.3609080000000 1.0
C      1  0.5127560000000  0.4588980000000  0.4758390000000 1.0
C      1  0.4529860000000  0.4286910000000  0.4477030000000 1.0
C      1  0.4572740000000  0.4462250000000  0.5417250000000 1.0
C      1  0.4475540000000  0.5660770000000  0.5753420000000 1.0
C      1  0.4869680000000  0.4563890000000  0.3877950000000 1.0
END
