TITL C-627107-135-1397 0.00874818498662577 125000 -269.12898136898 0 0 46 (C1) n - 1
REM
REM in /home/nfs/bkarasulu/CARBON/AIRSS/Generating-Clusters/LCBOP/Only-C1/SD-CG/FIRE-CG
REM
REM
REM
REM
REM
REM ./C.cell (11c1c37f851c82e70ff6c80c92926a4b)
REM AIRSS Version 0.9.1 bugfix July 2018 build 013d7b7c2542+ Fri, 06 Jul 2018 19:26:36 +0100
REM compiler GCC version 9.2.1 20190827 (Red Hat 9.2.1-1)
REM options -cpp -mtune=generic -march=x86-64 -g -O0 -fpre-include=/usr/include/finclude/math-vector-fortran.h
REM seed 2071352888 -2002641177 -1327053592 501313644 -51703829 -149388874 -1421616738 497681631 205877539 -656737815 909409522 -502156502 -898356506 -272512348 643463779 1082917350 1204029280 1975278919 -692251737 191060259 -1504336453 1587470665 -258117504 -729358966 1608199277 -1794124446 377284505 1902155967 30354310 1027551971 851773476 1104655633 336334959
REM
CELL 1.54180   50.00000   50.00000   50.00000   90.00000   90.00000   90.00000
LATT -1
SFAC C  
C      1  0.4396180000000  0.4753000000000  0.4347990000000 1.0
C      1  0.4937910000000  0.5438370000000  0.4844330000000 1.0
C      1  0.4876990000000  0.4793330000000  0.4516430000000 1.0
C      1  0.4786900000000  0.5398980000000  0.5094780000000 1.0
C      1  0.5103570000000  0.4997790000000  0.4949820000000 1.0
C      1  0.5561170000000  0.5668820000000  0.5083140000000 1.0
C      1  0.5837990000000  0.4924090000000  0.5048930000000 1.0
C      1  0.4859360000000  0.5274790000000  0.4614750000000 1.0
C      1  0.5746680000000  0.4681300000000  0.5471630000000 1.0
C      1  0.3799090000000  0.4346360000000  0.4016350000000 1.0
C      1  0.3603130000000  0.4212830000000  0.3908020000000 1.0
C      1  0.4992310000000  0.4715260000000  0.5397220000000 1.0
C      1  0.5688760000000  0.5574980000000  0.5295540000000 1.0
C      1  0.4577170000000  0.4501590000000  0.5198130000000 1.0
C      1  0.4550340000000  0.4926990000000  0.4986790000000 1.0
C      1  0.4579030000000  0.5158930000000  0.4600730000000 1.0
C      1  0.4505420000000  0.5386110000000  0.5029360000000 1.0
C      1  0.5276190000000  0.4637530000000  0.5361270000000 1.0
C      1  0.5802670000000  0.5476820000000  0.5508500000000 1.0
C      1  0.4843890000000  0.5009700000000  0.5754290000000 1.0
C      1  0.5890840000000  0.4807000000000  0.5284560000000 1.0
C      1  0.5485300000000  0.4613260000000  0.5549350000000 1.0
C      1  0.5152210000000  0.5615890000000  0.4832370000000 1.0
C      1  0.5031540000000  0.4499880000000  0.4963590000000 1.0
C      1  0.4856870000000  0.4528320000000  0.5205360000000 1.0
C      1  0.5611210000000  0.4949250000000  0.4907520000000 1.0
C      1  0.5624520000000  0.6335490000000  0.4373310000000 1.0
C      1  0.5285570000000  0.4604160000000  0.6034810000000 1.0
C      1  0.4599510000000  0.4889210000000  0.4477600000000 1.0
C      1  0.4839490000000  0.4940070000000  0.4984900000000 1.0
C      1  0.5350660000000  0.4859830000000  0.4943460000000 1.0
C      1  0.5550640000000  0.6144460000000  0.4534590000000 1.0
C      1  0.5396400000000  0.5745560000000  0.4870950000000 1.0
C      1  0.4903740000000  0.4919780000000  0.5998450000000 1.0
C      1  0.5475570000000  0.5950310000000  0.4698490000000 1.0
C      1  0.4904150000000  0.4985640000000  0.5479050000000 1.0
C      1  0.4426580000000  0.4700460000000  0.5093890000000 1.0
C      1  0.4445570000000  0.5163500000000  0.4860920000000 1.0
C      1  0.3998330000000  0.4482130000000  0.4126490000000 1.0
C      1  0.4876650000000  0.5231510000000  0.5319220000000 1.0
C      1  0.5078260000000  0.4753260000000  0.6114100000000 1.0
C      1  0.4951370000000  0.4575760000000  0.4693340000000 1.0
C      1  0.4197500000000  0.4617850000000  0.4236620000000 1.0
C      1  0.5021220000000  0.5052480000000  0.4504750000000 1.0
C      1  0.5292250000000  0.4606130000000  0.5067810000000 1.0
C      1  0.5429330000000  0.4551240000000  0.5816540000000 1.0
END
