TITL C-627107-135-2088 0.010581216868674 125000 -1180.78724768983 0 0 192 (C1) n - 1
REM
REM in /home/nfs/bkarasulu/CARBON/AIRSS/Generating-Clusters/LCBOP/Only-C1/SD-CG/FIRE-CG
REM
REM
REM
REM
REM
REM ./C.cell (11c1c37f851c82e70ff6c80c92926a4b)
REM AIRSS Version 0.9.1 bugfix July 2018 build 013d7b7c2542+ Fri, 06 Jul 2018 19:26:36 +0100
REM compiler GCC version 9.2.1 20190827 (Red Hat 9.2.1-1)
REM options -cpp -mtune=generic -march=x86-64 -g -O0 -fpre-include=/usr/include/finclude/math-vector-fortran.h
REM seed 303543209 349816356 1909177277 -984391843 -1427058056 -117809292 -633006602 196144791 -1507865660 -1665690041 -332152046 -1151834212 -99463165 552465971 -233842469 -76590927 1170521310 1709358843 582973477 -1591239113 -221842423 -413479941 -415786507 2103561002 1856487429 -451128988 -1958131426 -1349541651 701897778 -1050850679 217451645 -2094719097 352294374
REM
CELL 1.54180   50.00000   50.00000   50.00000   90.00000   90.00000   90.00000
LATT -1
SFAC C  
C      1  0.5815500000000  0.5474850000000  0.6181210000000 1.0
C      1  0.4645330000000  0.5260300000000  0.5714940000000 1.0
C      1  0.5824130000000  0.5552390000000  0.4657030000000 1.0
C      1  0.5374640000000  0.5168430000000  0.4209340000000 1.0
C      1  0.5037670000000  0.6042250000000  0.5052280000000 1.0
C      1  0.5433280000000  0.4635900000000  0.5892320000000 1.0
C      1  0.5411440000000  0.4667390000000  0.4513290000000 1.0
C      1  0.5091380000000  0.6151150000000  0.4793820000000 1.0
C      1  0.4261790000000  0.4710170000000  0.4474450000000 1.0
C      1  0.6087450000000  0.5019320000000  0.4703350000000 1.0
C      1  0.4334420000000  0.5135080000000  0.4641680000000 1.0
C      1  0.5218890000000  0.4079560000000  0.4775040000000 1.0
C      1  0.4585960000000  0.6134050000000  0.4720340000000 1.0
C      1  0.5679070000000  0.5981960000000  0.5597130000000 1.0
C      1  0.5198130000000  0.4617920000000  0.5493860000000 1.0
C      1  0.4982250000000  0.4540980000000  0.6098080000000 1.0
C      1  0.6149680000000  0.4475120000000  0.4827990000000 1.0
C      1  0.5735120000000  0.4253110000000  0.4532210000000 1.0
C      1  0.4001160000000  0.4845120000000  0.4443660000000 1.0
C      1  0.6150090000000  0.4902630000000  0.5270920000000 1.0
C      1  0.4658300000000  0.4907050000000  0.3993460000000 1.0
C      1  0.5340820000000  0.4832290000000  0.4759490000000 1.0
C      1  0.4824980000000  0.4194100000000  0.3217140000000 1.0
C      1  0.6227230000000  0.4648460000000  0.5388000000000 1.0
C      1  0.4492370000000  0.4761380000000  0.5610530000000 1.0
C      1  0.5444730000000  0.4682340000000  0.5612020000000 1.0
C      1  0.5580760000000  0.5997660000000  0.4632580000000 1.0
C      1  0.4738990000000  0.5525660000000  0.4254330000000 1.0
C      1  0.4859310000000  0.5247110000000  0.4896120000000 1.0
C      1  0.5621980000000  0.5646520000000  0.6248100000000 1.0
C      1  0.5022850000000  0.5925690000000  0.5720860000000 1.0
C      1  0.5327900000000  0.3956830000000  0.5837020000000 1.0
C      1  0.5950580000000  0.5894510000000  0.5238420000000 1.0
C      1  0.4770680000000  0.5485280000000  0.4768160000000 1.0
C      1  0.5429600000000  0.6259720000000  0.5106730000000 1.0
C      1  0.4452840000000  0.5101260000000  0.3922500000000 1.0
C      1  0.5572990000000  0.5399240000000  0.4248340000000 1.0
C      1  0.6143330000000  0.5187870000000  0.5204600000000 1.0
C      1  0.4911210000000  0.3509700000000  0.4863520000000 1.0
C      1  0.4137760000000  0.4917700000000  0.5891320000000 1.0
C      1  0.4430660000000  0.4506130000000  0.5721700000000 1.0
C      1  0.4183540000000  0.5767160000000  0.5180040000000 1.0
C      1  0.5094180000000  0.5712600000000  0.5537690000000 1.0
C      1  0.4981710000000  0.5062400000000  0.6164130000000 1.0
C      1  0.5810630000000  0.5365500000000  0.4421130000000 1.0
C      1  0.5798180000000  0.5829980000000  0.4737050000000 1.0
C      1  0.5812220000000  0.4290910000000  0.4267570000000 1.0
C      1  0.5097530000000  0.5698630000000  0.4488550000000 1.0
C      1  0.4808370000000  0.4363600000000  0.4686630000000 1.0
C      1  0.4018690000000  0.5003960000000  0.4200640000000 1.0
C      1  0.4979070000000  0.4157100000000  0.4653720000000 1.0
C      1  0.5073320000000  0.5180340000000  0.4139400000000 1.0
C      1  0.5015690000000  0.6167720000000  0.5526580000000 1.0
C      1  0.4213810000000  0.5199630000000  0.5514600000000 1.0
C      1  0.4591840000000  0.6283980000000  0.5242140000000 1.0
C      1  0.5895460000000  0.5638870000000  0.5379360000000 1.0
C      1  0.4380140000000  0.5325300000000  0.5066190000000 1.0
C      1  0.5149820000000  0.3595020000000  0.4770610000000 1.0
C      1  0.5308980000000  0.4179360000000  0.5989450000000 1.0
C      1  0.5293230000000  0.3819480000000  0.4861850000000 1.0
C      1  0.4405270000000  0.5387010000000  0.5628940000000 1.0
C      1  0.4171720000000  0.5815820000000  0.4697440000000 1.0
C      1  0.5868100000000  0.4357210000000  0.4017240000000 1.0
C      1  0.5281910000000  0.3810650000000  0.5613900000000 1.0
C      1  0.4416950000000  0.5605350000000  0.5134530000000 1.0
C      1  0.4632480000000  0.4088670000000  0.4129020000000 1.0
C      1  0.4642310000000  0.3981160000000  0.5401930000000 1.0
C      1  0.4913050000000  0.5413530000000  0.4052170000000 1.0
C      1  0.4211330000000  0.5363770000000  0.4528040000000 1.0
C      1  0.5087780000000  0.5918530000000  0.4308700000000 1.0
C      1  0.4931880000000  0.6135750000000  0.4352680000000 1.0
C      1  0.4521110000000  0.4510480000000  0.5994920000000 1.0
C      1  0.6068830000000  0.4409820000000  0.5311210000000 1.0
C      1  0.4867770000000  0.4018630000000  0.3023140000000 1.0
C      1  0.4776290000000  0.3605790000000  0.5075850000000 1.0
C      1  0.6067820000000  0.4750400000000  0.4817100000000 1.0
C      1  0.5142320000000  0.4724720000000  0.4946190000000 1.0
C      1  0.5083830000000  0.4350620000000  0.4172640000000 1.0
C      1  0.5053620000000  0.5766730000000  0.5094800000000 1.0
C      1  0.4715450000000  0.4804920000000  0.5454600000000 1.0
C      1  0.4994730000000  0.5166800000000  0.5139930000000 1.0
C      1  0.4468390000000  0.5653530000000  0.5569330000000 1.0
C      1  0.5293310000000  0.5567170000000  0.4636230000000 1.0
C      1  0.3949800000000  0.5666420000000  0.5274630000000 1.0
C      1  0.5687020000000  0.4816380000000  0.5163730000000 1.0
C      1  0.4339180000000  0.4976680000000  0.6102030000000 1.0
C      1  0.4854200000000  0.4977210000000  0.4197200000000 1.0
C      1  0.5656370000000  0.4670780000000  0.5417280000000 1.0
C      1  0.4533110000000  0.6231460000000  0.4984140000000 1.0
C      1  0.4798590000000  0.5416370000000  0.3791310000000 1.0
C      1  0.5540810000000  0.5915500000000  0.4355140000000 1.0
C      1  0.4471690000000  0.5613890000000  0.4218140000000 1.0
C      1  0.4554690000000  0.4780020000000  0.6119120000000 1.0
C      1  0.4729810000000  0.4479090000000  0.4928960000000 1.0
C      1  0.4266620000000  0.4226840000000  0.4415860000000 1.0
C      1  0.3850630000000  0.4861010000000  0.4698970000000 1.0
C      1  0.4241080000000  0.4445950000000  0.4588200000000 1.0
C      1  0.4929030000000  0.5779080000000  0.5971180000000 1.0
C      1  0.5954220000000  0.4805330000000  0.5077640000000 1.0
C      1  0.5819160000000  0.5368670000000  0.4881150000000 1.0
C      1  0.4627490000000  0.4885220000000  0.5200290000000 1.0
C      1  0.4753660000000  0.4959670000000  0.4467400000000 1.0
C      1  0.4893210000000  0.4180420000000  0.4094230000000 1.0
C      1  0.5194200000000  0.4365760000000  0.5372910000000 1.0
C      1  0.4397050000000  0.4154320000000  0.3970090000000 1.0
C      1  0.5539970000000  0.4953510000000  0.4964060000000 1.0
C      1  0.4804100000000  0.4329620000000  0.5142900000000 1.0
C      1  0.5907860000000  0.4050680000000  0.4971150000000 1.0
C      1  0.5675000000000  0.6304250000000  0.5234420000000 1.0
C      1  0.3886000000000  0.5408200000000  0.5173630000000 1.0
C      1  0.5682150000000  0.3965850000000  0.5151660000000 1.0
C      1  0.4501240000000  0.5502240000000  0.6144760000000 1.0
C      1  0.5848510000000  0.4048370000000  0.4692050000000 1.0
C      1  0.5978910000000  0.5130110000000  0.4458160000000 1.0
C      1  0.4515460000000  0.4073900000000  0.4398290000000 1.0
C      1  0.5625170000000  0.4215100000000  0.5286850000000 1.0
C      1  0.4845930000000  0.5573770000000  0.4510840000000 1.0
C      1  0.5571020000000  0.5236000000000  0.4907830000000 1.0
C      1  0.4737470000000  0.4533200000000  0.3614710000000 1.0
C      1  0.5363990000000  0.5695210000000  0.6202010000000 1.0
C      1  0.5179880000000  0.6188650000000  0.5265370000000 1.0
C      1  0.5538480000000  0.4420130000000  0.4658010000000 1.0
C      1  0.5849460000000  0.5275490000000  0.6006490000000 1.0
C      1  0.4695010000000  0.4686310000000  0.3826830000000 1.0
C      1  0.4304080000000  0.5092360000000  0.4916610000000 1.0
C      1  0.4994160000000  0.4778670000000  0.5411810000000 1.0
C      1  0.5039440000000  0.4190770000000  0.5516760000000 1.0
C      1  0.5057380000000  0.4886740000000  0.5154920000000 1.0
C      1  0.5475170000000  0.4906590000000  0.4309550000000 1.0
C      1  0.3982970000000  0.5181030000000  0.5327960000000 1.0
C      1  0.5383180000000  0.4315730000000  0.5168300000000 1.0
C      1  0.5071360000000  0.5250890000000  0.5405940000000 1.0
C      1  0.5527070000000  0.5682750000000  0.4207510000000 1.0
C      1  0.4860740000000  0.6180260000000  0.4622300000000 1.0
C      1  0.4759410000000  0.4355960000000  0.6039800000000 1.0
C      1  0.4661200000000  0.5705170000000  0.6053460000000 1.0
C      1  0.4394050000000  0.5252430000000  0.6171680000000 1.0
C      1  0.4387320000000  0.5966640000000  0.4579370000000 1.0
C      1  0.3886760000000  0.5431170000000  0.4885160000000 1.0
C      1  0.6058030000000  0.5407350000000  0.5365790000000 1.0
C      1  0.3822830000000  0.4859390000000  0.4976930000000 1.0
C      1  0.4290400000000  0.4955290000000  0.5645010000000 1.0
C      1  0.5121200000000  0.5599020000000  0.6100930000000 1.0
C      1  0.5206800000000  0.4520290000000  0.4337650000000 1.0
C      1  0.4229020000000  0.4456820000000  0.4876970000000 1.0
C      1  0.4278470000000  0.4340880000000  0.5538980000000 1.0
C      1  0.4751580000000  0.6272690000000  0.5461030000000 1.0
C      1  0.4909870000000  0.3846020000000  0.2832350000000 1.0
C      1  0.5531690000000  0.5180480000000  0.5616610000000 1.0
C      1  0.5200690000000  0.3789070000000  0.5341180000000 1.0
C      1  0.4781940000000  0.4368330000000  0.3412090000000 1.0
C      1  0.4274500000000  0.5410230000000  0.4254680000000 1.0
C      1  0.4890560000000  0.5234380000000  0.5617900000000 1.0
C      1  0.5793440000000  0.4412460000000  0.5400020000000 1.0
C      1  0.4296010000000  0.4241150000000  0.5064740000000 1.0
C      1  0.5058820000000  0.5320440000000  0.6138670000000 1.0
C      1  0.6086620000000  0.4283320000000  0.5043140000000 1.0
C      1  0.4765520000000  0.4115880000000  0.5895400000000 1.0
C      1  0.4066310000000  0.5547190000000  0.4692250000000 1.0
C      1  0.5726080000000  0.5164240000000  0.5797950000000 1.0
C      1  0.4185690000000  0.4232040000000  0.4134430000000 1.0
C      1  0.3889520000000  0.4716380000000  0.5495850000000 1.0
C      1  0.4559310000000  0.5295050000000  0.3740500000000 1.0
C      1  0.4398100000000  0.4160090000000  0.5331800000000 1.0
C      1  0.5954880000000  0.5907050000000  0.4957990000000 1.0
C      1  0.5250320000000  0.4458240000000  0.6025500000000 1.0
C      1  0.5414460000000  0.3815030000000  0.5126700000000 1.0
C      1  0.5819780000000  0.6115540000000  0.5382580000000 1.0
C      1  0.6062140000000  0.5221110000000  0.4923040000000 1.0
C      1  0.4921370000000  0.5070740000000  0.4669150000000 1.0
C      1  0.5394930000000  0.6167880000000  0.4805390000000 1.0
C      1  0.5375320000000  0.5611350000000  0.5435370000000 1.0
C      1  0.4229300000000  0.5174660000000  0.4092050000000 1.0
C      1  0.5205200000000  0.5083190000000  0.4659990000000 1.0
C      1  0.5324740000000  0.5671140000000  0.5139390000000 1.0
C      1  0.4845490000000  0.3792100000000  0.5272580000000 1.0
C      1  0.4853640000000  0.4808830000000  0.6148140000000 1.0
C      1  0.4427060000000  0.5880490000000  0.4309170000000 1.0
C      1  0.5355630000000  0.5315560000000  0.4735670000000 1.0
C      1  0.4802030000000  0.4087200000000  0.5620090000000 1.0
C      1  0.4021940000000  0.4460950000000  0.5471990000000 1.0
C      1  0.4893590000000  0.5689570000000  0.5318890000000 1.0
C      1  0.3890780000000  0.4814490000000  0.5777760000000 1.0
C      1  0.5379750000000  0.4296600000000  0.4874790000000 1.0
C      1  0.4583390000000  0.4707760000000  0.4993280000000 1.0
C      1  0.5642510000000  0.5703350000000  0.5529470000000 1.0
C      1  0.4471320000000  0.4915700000000  0.4507860000000 1.0
C      1  0.5914620000000  0.4433950000000  0.3772490000000 1.0
C      1  0.5337510000000  0.5319010000000  0.5473650000000 1.0
C      1  0.3879680000000  0.4909730000000  0.5265030000000 1.0
C      1  0.4307530000000  0.4735190000000  0.4946500000000 1.0
C      1  0.4616680000000  0.5678550000000  0.5326130000000 1.0
END
