TITL C-627106-156-1768 31.6857581224217 125000 -997.599156975634 0 0 163 (C1) n - 1
REM
REM in /home/nfs/bkarasulu/CARBON/AIRSS/Generating-Clusters/LCBOP/Only-C1/SD-CG/FIRE-CG
REM
REM
REM
REM
REM
REM ./C.cell (11c1c37f851c82e70ff6c80c92926a4b)
REM AIRSS Version 0.9.1 bugfix July 2018 build 013d7b7c2542+ Fri, 06 Jul 2018 19:26:36 +0100
REM compiler GCC version 9.2.1 20190827 (Red Hat 9.2.1-1)
REM options -cpp -mtune=generic -march=x86-64 -g -O0 -fpre-include=/usr/include/finclude/math-vector-fortran.h
REM seed 704862875 1083431919 1392227868 -1860054382 -302340457 596844940 266146751 -1095345868 1576217253 -662127908 2131855376 -1361349751 782977159 337694510 -539143570 -210368955 533455346 347006673 1973539078 -41253323 -339232488 -891942759 1842049473 -325305751 630123758 -1326700589 -1665069682 1058226955 122623528 -1999737968 187725393 -675546306 1752345465
REM
CELL 1.54180   50.00000   50.00000   50.00000   90.00000   90.00000   90.00000
LATT -1
SFAC C  
C      1  0.4802680000000  0.4825010000000  0.4728690000000 1.0
C      1  0.5599460000000  0.5687640000000  0.4531340000000 1.0
C      1  0.5742950000000  0.4604140000000  0.5763790000000 1.0
C      1  0.4896640000000  0.5616150000000  0.5028300000000 1.0
C      1  0.5827100000000  0.5354960000000  0.4918770000000 1.0
C      1  0.5365380000000  0.4262790000000  0.5866240000000 1.0
C      1  0.5631860000000  0.4513030000000  0.4204410000000 1.0
C      1  0.5517960000000  0.4578970000000  0.5113130000000 1.0
C      1  0.4165040000000  0.4504060000000  0.4605580000000 1.0
C      1  0.4659000000000  0.5269250000000  0.4815150000000 1.0
C      1  0.4930040000000  0.5422230000000  0.5225300000000 1.0
C      1  0.5949450000000  0.5168790000000  0.4745700000000 1.0
C      1  0.4300270000000  0.4354820000000  0.5078160000000 1.0
C      1  0.4496290000000  0.5639350000000  0.4360270000000 1.0
C      1  0.3761570000000  0.4535030000000  0.3747060000000 1.0
C      1  0.5012890000000  0.5728890000000  0.5964420000000 1.0
C      1  0.5831400000000  0.5600430000000  0.5557260000000 1.0
C      1  0.4759450000000  0.5943850000000  0.5548710000000 1.0
C      1  0.4222170000000  0.4705140000000  0.4802240000000 1.0
C      1  0.4308610000000  0.5069730000000  0.5114800000000 1.0
C      1  0.5349070000000  0.4851810000000  0.5146470000000 1.0
C      1  0.4019110000000  0.5404470000000  0.4497500000000 1.0
C      1  0.5037690000000  0.5306460000000  0.5661170000000 1.0
C      1  0.5126460000000  0.5660130000000  0.4125800000000 1.0
C      1  0.5452940000000  0.5970660000000  0.5257330000000 1.0
C      1  0.5052240000000  0.4827270000000  0.5222080000000 1.0
C      1  0.5764400000000  0.4782150000000  0.4160330000000 1.0
C      1  0.5121930000000  0.4293150000000  0.4146830000000 1.0
C      1  0.4418550000000  0.5137030000000  0.4861310000000 1.0
C      1  0.5250660000000  0.5972240000000  0.5053200000000 1.0
C      1  0.6047440000000  0.4916370000000  0.4867510000000 1.0
C      1  0.5929250000000  0.4860680000000  0.4390660000000 1.0
C      1  0.4444750000000  0.5293850000000  0.5713720000000 1.0
C      1  0.3959640000000  0.4750870000000  0.5191740000000 1.0
C      1  0.4020620000000  0.5014830000000  0.5096560000000 1.0
C      1  0.4518770000000  0.5783600000000  0.5590830000000 1.0
C      1  0.5520940000000  0.5043510000000  0.4483590000000 1.0
C      1  0.4230860000000  0.5554230000000  0.4396070000000 1.0
C      1  0.5992830000000  0.4718540000000  0.4645450000000 1.0
C      1  0.5047630000000  0.4550500000000  0.5321120000000 1.0
C      1  0.5041130000000  0.4835620000000  0.5700570000000 1.0
C      1  0.4338990000000  0.4291470000000  0.4713030000000 1.0
C      1  0.5186810000000  0.3772120000000  0.5065430000000 1.0
C      1  0.5453930000000  0.5925390000000  0.5546480000000 1.0
C      1  0.4893820000000  0.4463510000000  0.4063370000000 1.0
C      1  0.5506540000000  0.4979440000000  0.5362810000000 1.0
C      1  0.5132820000000  0.5426810000000  0.5418770000000 1.0
C      1  0.5596110000000  0.4436540000000  0.5344060000000 1.0
C      1  0.4897610000000  0.4435190000000  0.5117810000000 1.0
C      1  0.4517460000000  0.6090810000000  0.4806230000000 1.0
C      1  0.4747170000000  0.4005440000000  0.5068140000000 1.0
C      1  0.5807860000000  0.4445810000000  0.5525970000000 1.0
C      1  0.5882510000000  0.4868570000000  0.5698000000000 1.0
C      1  0.5323900000000  0.5644350000000  0.4578880000000 1.0
C      1  0.4794770000000  0.4934270000000  0.5590080000000 1.0
C      1  0.4879440000000  0.5089380000000  0.4798750000000 1.0
C      1  0.5465520000000  0.4218290000000  0.4802020000000 1.0
C      1  0.4948800000000  0.5043920000000  0.6229820000000 1.0
C      1  0.5185440000000  0.4232870000000  0.4843210000000 1.0
C      1  0.4231870000000  0.5771000000000  0.3698220000000 1.0
C      1  0.4238660000000  0.5754150000000  0.5121520000000 1.0
C      1  0.5009930000000  0.5841400000000  0.5145680000000 1.0
C      1  0.4151140000000  0.4591040000000  0.5057560000000 1.0
C      1  0.4371300000000  0.4915460000000  0.4689280000000 1.0
C      1  0.5396190000000  0.5434950000000  0.5347240000000 1.0
C      1  0.5148190000000  0.3769170000000  0.4784460000000 1.0
C      1  0.4623010000000  0.3939080000000  0.4825360000000 1.0
C      1  0.4598490000000  0.4799440000000  0.4249990000000 1.0
C      1  0.4351730000000  0.4759680000000  0.4118610000000 1.0
C      1  0.4978020000000  0.5917020000000  0.5748790000000 1.0
C      1  0.4405980000000  0.5732950000000  0.3888380000000 1.0
C      1  0.4770980000000  0.4903370000000  0.5297730000000 1.0
C      1  0.5073220000000  0.4910790000000  0.4064720000000 1.0
C      1  0.4750000000000  0.3957760000000  0.5540290000000 1.0
C      1  0.5807940000000  0.5139170000000  0.5782740000000 1.0
C      1  0.5457230000000  0.3903880000000  0.4435160000000 1.0
C      1  0.4371130000000  0.4877510000000  0.6000140000000 1.0
C      1  0.3898620000000  0.4934950000000  0.4541710000000 1.0
C      1  0.4890880000000  0.4345870000000  0.5911470000000 1.0
C      1  0.5662410000000  0.5029140000000  0.4004700000000 1.0
C      1  0.4261080000000  0.5399800000000  0.5479450000000 1.0
C      1  0.4727590000000  0.5540140000000  0.4808890000000 1.0
C      1  0.5578920000000  0.4130710000000  0.4543950000000 1.0
C      1  0.5005110000000  0.6031460000000  0.4617850000000 1.0
C      1  0.5061000000000  0.4414340000000  0.4646760000000 1.0
C      1  0.5347540000000  0.5110790000000  0.5990880000000 1.0
C      1  0.4479140000000  0.4906610000000  0.5276980000000 1.0
C      1  0.5931190000000  0.5569800000000  0.5066530000000 1.0
C      1  0.6047640000000  0.4812540000000  0.5428540000000 1.0
C      1  0.4589940000000  0.5689120000000  0.4094330000000 1.0
C      1  0.5544600000000  0.4464400000000  0.5910890000000 1.0
C      1  0.6074620000000  0.4908580000000  0.5155900000000 1.0
C      1  0.4702100000000  0.5322130000000  0.5338040000000 1.0
C      1  0.3970420000000  0.5389170000000  0.4783140000000 1.0
C      1  0.4062680000000  0.5584780000000  0.4968500000000 1.0
C      1  0.5274950000000  0.4725230000000  0.3971820000000 1.0
C      1  0.5035450000000  0.3983960000000  0.5569480000000 1.0
C      1  0.6279180000000  0.4360540000000  0.5368380000000 1.0
C      1  0.4845520000000  0.4246120000000  0.4524100000000 1.0
C      1  0.4371110000000  0.4790120000000  0.5523140000000 1.0
C      1  0.5605510000000  0.5722870000000  0.5699700000000 1.0
C      1  0.4588940000000  0.4704030000000  0.6031400000000 1.0
C      1  0.5176620000000  0.3860140000000  0.5334320000000 1.0
C      1  0.5721620000000  0.4357520000000  0.4432780000000 1.0
C      1  0.5804690000000  0.5101110000000  0.4502420000000 1.0
C      1  0.3763810000000  0.4676020000000  0.5362270000000 1.0
C      1  0.4987300000000  0.4524840000000  0.6134040000000 1.0
C      1  0.4790640000000  0.4614530000000  0.4920650000000 1.0
C      1  0.5221030000000  0.5380090000000  0.4609380000000 1.0
C      1  0.5178870000000  0.3873480000000  0.4500730000000 1.0
C      1  0.5163840000000  0.5167110000000  0.4156070000000 1.0
C      1  0.4084760000000  0.4675240000000  0.4154090000000 1.0
C      1  0.4844330000000  0.6041410000000  0.5279790000000 1.0
C      1  0.4734950000000  0.5227820000000  0.5622580000000 1.0
C      1  0.4326240000000  0.5673550000000  0.5384550000000 1.0
C      1  0.4464950000000  0.4500890000000  0.5569100000000 1.0
C      1  0.5185670000000  0.5069170000000  0.5762080000000 1.0
C      1  0.5402590000000  0.4853030000000  0.4665870000000 1.0
C      1  0.5941200000000  0.5688820000000  0.5310250000000 1.0
C      1  0.3997260000000  0.4669460000000  0.4427400000000 1.0
C      1  0.5133530000000  0.5200000000000  0.4817370000000 1.0
C      1  0.4441150000000  0.4297250000000  0.5331500000000 1.0
C      1  0.4896940000000  0.6268110000000  0.5081550000000 1.0
C      1  0.4504170000000  0.5585410000000  0.5822080000000 1.0
C      1  0.5804570000000  0.5316860000000  0.5558820000000 1.0
C      1  0.5111440000000  0.6166390000000  0.4870730000000 1.0
C      1  0.5153190000000  0.5828110000000  0.4443950000000 1.0
C      1  0.5208760000000  0.5540700000000  0.6063630000000 1.0
C      1  0.5102010000000  0.4176470000000  0.5786670000000 1.0
C      1  0.5021110000000  0.4080340000000  0.4348240000000 1.0
C      1  0.5272420000000  0.5406570000000  0.4022520000000 1.0
C      1  0.5493550000000  0.5547410000000  0.5924960000000 1.0
C      1  0.5299070000000  0.5196070000000  0.4404070000000 1.0
C      1  0.4840320000000  0.4775220000000  0.6170190000000 1.0
C      1  0.5566000000000  0.5319920000000  0.3989220000000 1.0
C      1  0.4839840000000  0.4743450000000  0.4114130000000 1.0
C      1  0.4585430000000  0.4159600000000  0.4644210000000 1.0
C      1  0.5363090000000  0.4476430000000  0.4096190000000 1.0
C      1  0.4626610000000  0.4474820000000  0.5826200000000 1.0
C      1  0.4609290000000  0.4058210000000  0.5318210000000 1.0
C      1  0.4595210000000  0.4834340000000  0.4529540000000 1.0
C      1  0.4333250000000  0.4992330000000  0.5744860000000 1.0
C      1  0.5815650000000  0.4501260000000  0.4678000000000 1.0
C      1  0.5618370000000  0.4451440000000  0.4882870000000 1.0
C      1  0.5152650000000  0.5253880000000  0.6164780000000 1.0
C      1  0.6067840000000  0.4515910000000  0.5433100000000 1.0
C      1  0.3906850000000  0.5108050000000  0.4851140000000 1.0
C      1  0.5589370000000  0.5240920000000  0.5394800000000 1.0
C      1  0.4349210000000  0.5980910000000  0.4988810000000 1.0
C      1  0.3921870000000  0.5166120000000  0.4369230000000 1.0
C      1  0.5117970000000  0.4589890000000  0.5589540000000 1.0
C      1  0.5594810000000  0.5254900000000  0.5950330000000 1.0
C      1  0.5750490000000  0.5515920000000  0.4086900000000 1.0
C      1  0.4972840000000  0.4180120000000  0.5031860000000 1.0
C      1  0.5218140000000  0.4646810000000  0.4599400000000 1.0
C      1  0.5363700000000  0.5028210000000  0.4912520000000 1.0
C      1  0.4864130000000  0.5697540000000  0.4037220000000 1.0
C      1  0.5760890000000  0.5653340000000  0.4318560000000 1.0
C      1  0.4654730000000  0.5703260000000  0.4588220000000 1.0
C      1  0.4716870000000  0.5978270000000  0.4636570000000 1.0
C      1  0.3919380000000  0.4601880000000  0.3943380000000 1.0
C      1  0.5568650000000  0.5247170000000  0.4955140000000 1.0
C      1  0.5226440000000  0.6034520000000  0.5676040000000 1.0
END
