TITL C-627106-156-1338 -148679.318453437 125000 -996.27990134849 0 0 164 (C1) n - 1
REM
REM in /home/nfs/bkarasulu/CARBON/AIRSS/Generating-Clusters/LCBOP/Only-C1/SD-CG/FIRE-CG
REM
REM
REM
REM
REM
REM ./C.cell (11c1c37f851c82e70ff6c80c92926a4b)
REM AIRSS Version 0.9.1 bugfix July 2018 build 013d7b7c2542+ Fri, 06 Jul 2018 19:26:36 +0100
REM compiler GCC version 9.2.1 20190827 (Red Hat 9.2.1-1)
REM options -cpp -mtune=generic -march=x86-64 -g -O0 -fpre-include=/usr/include/finclude/math-vector-fortran.h
REM seed -1130479972 419470427 759009713 1833339767 -1649607387 -380181724 -74898023 -1354413001 -1301336804 1430139396 -816088900 -737982870 -1935049176 956133186 -1787618665 917194991 351224065 1577890834 1942427455 -519757210 1060987563 998299614 -608722848 275008294 1389146299 622125424 987442237 -605321244 -1248172492 1418083852 728728030 895823673 539990146
REM
CELL 1.54180   50.00000   50.00000   50.00000   90.00000   90.00000   90.00000
LATT -1
SFAC C  
C      1  0.4103880000000  0.4686450000000  0.4485490000000 1.0
C      1  0.4000620000000  0.5303590000000  0.5649210000000 1.0
C      1  0.5367610000000  0.4549530000000  0.4951130000000 1.0
C      1  0.5544220000000  0.5579870000000  0.5013290000000 1.0
C      1  0.5032790000000  0.4654180000000  0.4351200000000 1.0
C      1  0.3896300000000  0.5182040000000  0.4871820000000 1.0
C      1  0.4761480000000  0.4777210000000  0.5374580000000 1.0
C      1  0.6023830000000  0.4407760000000  0.4271980000000 1.0
C      1  0.4992900000000  0.4640940000000  0.3863500000000 1.0
C      1  0.4905930000000  0.3362370000000  0.4720070000000 1.0
C      1  0.5479810000000  0.5999480000000  0.5586000000000 1.0
C      1  0.4688140000000  0.6105470000000  0.5033630000000 1.0
C      1  0.4904600000000  0.5118990000000  0.5666760000000 1.0
C      1  0.5261520000000  0.4227650000000  0.5348540000000 1.0
C      1  0.5299050000000  0.4911340000000  0.5632770000000 1.0
C      1  0.5370250000000  0.5123350000000  0.4926300000000 1.0
C      1  0.5045910000000  0.5459550000000  0.4988010000000 1.0
C      1  0.4777890000000  0.4822020000000  0.3858300000000 1.0
C      1  0.5194780000000  0.5083830000000  0.4074940000000 1.0
C      1  0.5073300000000  0.4253440000000  0.5816450000000 1.0
C      1  0.4844370000000  0.5071950000000  0.4387250000000 1.0
C      1  0.5941270000000  0.5225250000000  0.4272600000000 1.0
C      1  0.4191470000000  0.5787510000000  0.4582010000000 1.0
C      1  0.4890820000000  0.5342270000000  0.4343710000000 1.0
C      1  0.5890660000000  0.5654170000000  0.5509680000000 1.0
C      1  0.5478310000000  0.5676450000000  0.4486880000000 1.0
C      1  0.4601240000000  0.5899320000000  0.5214260000000 1.0
C      1  0.4841910000000  0.4461220000000  0.5046470000000 1.0
C      1  0.5443630000000  0.5081120000000  0.5456220000000 1.0
C      1  0.5005160000000  0.5511040000000  0.4513940000000 1.0
C      1  0.4373950000000  0.3902200000000  0.5233530000000 1.0
C      1  0.4422690000000  0.4383920000000  0.5825690000000 1.0
C      1  0.5954870000000  0.5415990000000  0.4756490000000 1.0
C      1  0.4720010000000  0.4902460000000  0.5628940000000 1.0
C      1  0.5056530000000  0.4215120000000  0.4734500000000 1.0
C      1  0.5086780000000  0.5964820000000  0.4416930000000 1.0
C      1  0.4928610000000  0.5335100000000  0.5212190000000 1.0
C      1  0.5629940000000  0.4884770000000  0.5331630000000 1.0
C      1  0.5596450000000  0.5124900000000  0.4754230000000 1.0
C      1  0.5267600000000  0.4262620000000  0.4114890000000 1.0
C      1  0.4475830000000  0.5240000000000  0.4056380000000 1.0
C      1  0.5440070000000  0.5736050000000  0.5220000000000 1.0
C      1  0.5018780000000  0.4858270000000  0.4768920000000 1.0
C      1  0.4382760000000  0.4687060000000  0.4531590000000 1.0
C      1  0.3855980000000  0.5090970000000  0.5552740000000 1.0
C      1  0.5199890000000  0.4706780000000  0.5467370000000 1.0
C      1  0.5404370000000  0.5356470000000  0.5518870000000 1.0
C      1  0.4482870000000  0.5497970000000  0.5742410000000 1.0
C      1  0.5870180000000  0.5409570000000  0.4475540000000 1.0
C      1  0.4901570000000  0.5558970000000  0.6013530000000 1.0
C      1  0.5974050000000  0.5543300000000  0.5239440000000 1.0
C      1  0.4830320000000  0.3588400000000  0.5924420000000 1.0
C      1  0.4562940000000  0.6030400000000  0.4365470000000 1.0
C      1  0.4323030000000  0.4627870000000  0.5129960000000 1.0
C      1  0.4324970000000  0.6240770000000  0.4728430000000 1.0
C      1  0.4208810000000  0.4777000000000  0.5655710000000 1.0
C      1  0.4486730000000  0.5367960000000  0.4528870000000 1.0
C      1  0.5426930000000  0.4019480000000  0.4573830000000 1.0
C      1  0.4637760000000  0.5403380000000  0.5977320000000 1.0
C      1  0.3851680000000  0.4859570000000  0.5402010000000 1.0
C      1  0.6149630000000  0.4561270000000  0.4957620000000 1.0
C      1  0.5561660000000  0.5414910000000  0.5759900000000 1.0
C      1  0.4586400000000  0.5119550000000  0.6036670000000 1.0
C      1  0.5238490000000  0.5774170000000  0.3819290000000 1.0
C      1  0.5400510000000  0.4087800000000  0.5112340000000 1.0
C      1  0.5454740000000  0.6171800000000  0.5051900000000 1.0
C      1  0.6064160000000  0.5263410000000  0.5273570000000 1.0
C      1  0.4649240000000  0.4515800000000  0.5267080000000 1.0
C      1  0.5792420000000  0.4120930000000  0.6434670000000 1.0
C      1  0.4255020000000  0.5559530000000  0.5330840000000 1.0
C      1  0.5274220000000  0.5764010000000  0.4303010000000 1.0
C      1  0.4763180000000  0.3579610000000  0.4738320000000 1.0
C      1  0.4537080000000  0.4516960000000  0.4361380000000 1.0
C      1  0.5875800000000  0.4902300000000  0.5491080000000 1.0
C      1  0.5955220000000  0.5176830000000  0.5537990000000 1.0
C      1  0.4511580000000  0.5381300000000  0.4963700000000 1.0
C      1  0.5131800000000  0.6071210000000  0.4688200000000 1.0
C      1  0.4925300000000  0.6098410000000  0.4880500000000 1.0
C      1  0.4379630000000  0.4663210000000  0.5850610000000 1.0
C      1  0.4329180000000  0.5782920000000  0.5160650000000 1.0
C      1  0.4625530000000  0.3822700000000  0.4755540000000 1.0
C      1  0.4990880000000  0.3792090000000  0.5950530000000 1.0
C      1  0.5017880000000  0.4915620000000  0.4225150000000 1.0
C      1  0.4450810000000  0.4045420000000  0.4346600000000 1.0
C      1  0.5350900000000  0.4103770000000  0.4322600000000 1.0
C      1  0.4366470000000  0.4004430000000  0.5482700000000 1.0
C      1  0.4897450000000  0.5545140000000  0.4765260000000 1.0
C      1  0.4689300000000  0.5548210000000  0.5549880000000 1.0
C      1  0.5569360000000  0.5895770000000  0.4648990000000 1.0
C      1  0.5168400000000  0.5686950000000  0.5941320000000 1.0
C      1  0.4494720000000  0.4894340000000  0.4719770000000 1.0
C      1  0.4780970000000  0.5787870000000  0.5422400000000 1.0
C      1  0.5882390000000  0.5134690000000  0.4842090000000 1.0
C      1  0.5259160000000  0.5626880000000  0.4049820000000 1.0
C      1  0.5704560000000  0.4750090000000  0.4156720000000 1.0
C      1  0.5587860000000  0.5410150000000  0.4519390000000 1.0
C      1  0.5321180000000  0.5401900000000  0.4956510000000 1.0
C      1  0.4398150000000  0.4293570000000  0.4249010000000 1.0
C      1  0.4825420000000  0.6007210000000  0.4315430000000 1.0
C      1  0.5187050000000  0.4711680000000  0.4582230000000 1.0
C      1  0.4054520000000  0.4800260000000  0.3827320000000 1.0
C      1  0.5406920000000  0.5524040000000  0.5970720000000 1.0
C      1  0.4853760000000  0.5326950000000  0.5482220000000 1.0
C      1  0.5525240000000  0.4631950000000  0.5188040000000 1.0
C      1  0.4280700000000  0.5332840000000  0.5132870000000 1.0
C      1  0.5099670000000  0.4404730000000  0.4941790000000 1.0
C      1  0.4507590000000  0.4206360000000  0.5619970000000 1.0
C      1  0.4859770000000  0.4211560000000  0.4536420000000 1.0
C      1  0.5267600000000  0.5341180000000  0.4031660000000 1.0
C      1  0.4227180000000  0.5476700000000  0.5606240000000 1.0
C      1  0.4537270000000  0.4994110000000  0.3898810000000 1.0
C      1  0.5666840000000  0.4497280000000  0.4585960000000 1.0
C      1  0.6083470000000  0.4736700000000  0.5395450000000 1.0
C      1  0.3895250000000  0.4915840000000  0.4938670000000 1.0
C      1  0.4467940000000  0.3873660000000  0.4984350000000 1.0
C      1  0.5029970000000  0.4826590000000  0.5260400000000 1.0
C      1  0.5245000000000  0.4514050000000  0.3966800000000 1.0
C      1  0.3895400000000  0.4733920000000  0.4031620000000 1.0
C      1  0.5456670000000  0.6014610000000  0.5285470000000 1.0
C      1  0.5977120000000  0.4189150000000  0.6605550000000 1.0
C      1  0.6140260000000  0.4788590000000  0.5120450000000 1.0
C      1  0.4575500000000  0.4872040000000  0.5879070000000 1.0
C      1  0.5432980000000  0.4620090000000  0.4679460000000 1.0
C      1  0.5215980000000  0.5895760000000  0.5723850000000 1.0
C      1  0.5755880000000  0.4290990000000  0.4773010000000 1.0
C      1  0.5066850000000  0.5782690000000  0.5492050000000 1.0
C      1  0.5483990000000  0.4674870000000  0.3991880000000 1.0
C      1  0.4731890000000  0.4299870000000  0.5467410000000 1.0
C      1  0.4623200000000  0.5499820000000  0.4749650000000 1.0
C      1  0.4817620000000  0.4463070000000  0.4393030000000 1.0
C      1  0.5273050000000  0.5587240000000  0.5398100000000 1.0
C      1  0.5750960000000  0.5885310000000  0.5614680000000 1.0
C      1  0.5800150000000  0.4551150000000  0.4341260000000 1.0
C      1  0.5370230000000  0.4494800000000  0.5393850000000 1.0
C      1  0.4334880000000  0.5058600000000  0.5211760000000 1.0
C      1  0.5114770000000  0.4990510000000  0.5827660000000 1.0
C      1  0.4339870000000  0.6031420000000  0.4541180000000 1.0
C      1  0.4280830000000  0.4957960000000  0.5467940000000 1.0
C      1  0.4383220000000  0.5421900000000  0.4269120000000 1.0
C      1  0.5152370000000  0.4019940000000  0.5958480000000 1.0
C      1  0.6055720000000  0.5058720000000  0.5056470000000 1.0
C      1  0.5063300000000  0.4769660000000  0.6002850000000 1.0
C      1  0.5143540000000  0.4946450000000  0.5008990000000 1.0
C      1  0.4784150000000  0.4953300000000  0.4646210000000 1.0
C      1  0.4485780000000  0.6280200000000  0.4940660000000 1.0
C      1  0.5389400000000  0.4021370000000  0.6106310000000 1.0
C      1  0.4182620000000  0.5622770000000  0.4336660000000 1.0
C      1  0.4653350000000  0.4009420000000  0.4542100000000 1.0
C      1  0.4416030000000  0.4860320000000  0.5011800000000 1.0
C      1  0.4302260000000  0.4886940000000  0.3778450000000 1.0
C      1  0.3972440000000  0.4748200000000  0.5162250000000 1.0
C      1  0.5836250000000  0.5407780000000  0.5671350000000 1.0
C      1  0.5835500000000  0.5571880000000  0.4984390000000 1.0
C      1  0.5401880000000  0.6080540000000  0.4785760000000 1.0
C      1  0.4373250000000  0.5153360000000  0.4654500000000 1.0
C      1  0.5540660000000  0.4097460000000  0.4836430000000 1.0
C      1  0.4055780000000  0.5411790000000  0.4933300000000 1.0
C      1  0.3916400000000  0.4697420000000  0.4295660000000 1.0
C      1  0.6004880000000  0.4345370000000  0.4889530000000 1.0
C      1  0.5053240000000  0.4501450000000  0.5957520000000 1.0
C      1  0.5012650000000  0.4227550000000  0.5529140000000 1.0
C      1  0.5838040000000  0.5001190000000  0.4160420000000 1.0
C      1  0.5597960000000  0.4060360000000  0.6264990000000 1.0
C      1  0.4148220000000  0.5691540000000  0.4859960000000 1.0
END
