TITL C-627111-6168-889 0.000955097292925166 125000 -515.116165948878 0 0 85 (C1) n - 1
REM
REM in /home/nfs/bkarasulu/CARBON/AIRSS/Generating-Clusters/LCBOP/Only-C1/SD-CG/FIRE-CG
REM
REM
REM
REM
REM
REM ./C.cell (11c1c37f851c82e70ff6c80c92926a4b)
REM AIRSS Version 0.9.1 bugfix July 2018 build 013d7b7c2542+ Fri, 06 Jul 2018 19:26:36 +0100
REM compiler GCC version 9.2.1 20190827 (Red Hat 9.2.1-1)
REM options -cpp -mtune=generic -march=x86-64 -g -O0 -fpre-include=/usr/include/finclude/math-vector-fortran.h
REM seed 1978960150 -1207743820 1788198767 -644814071 912873874 -750659435 721114876 949274812 917672063 -1023413361 1970063858 556208887 -1640791039 910580737 709495935 971488027 -622625079 1268471804 -262057295 1196580390 -2124561207 -1002326475 1375805967 -1359576147 -2143123331 -2030586130 1180417424 -1879062251 1897940026 1566688680 -619488651 -634399251 1134543568
REM
CELL 1.54180   50.00000   50.00000   50.00000   90.00000   90.00000   90.00000
LATT -1
SFAC C  
C      1  0.5130430000000  0.4367360000000  0.4450320000000 1.0
C      1  0.4422350000000  0.4766470000000  0.5069480000000 1.0
C      1  0.5064840000000  0.4999660000000  0.6016630000000 1.0
C      1  0.5065970000000  0.4325070000000  0.5386490000000 1.0
C      1  0.3929100000000  0.4467500000000  0.5534770000000 1.0
C      1  0.4621730000000  0.5936910000000  0.5041330000000 1.0
C      1  0.5257440000000  0.5678890000000  0.5004530000000 1.0
C      1  0.4451750000000  0.4295510000000  0.4749760000000 1.0
C      1  0.5102080000000  0.5244160000000  0.5148280000000 1.0
C      1  0.5197660000000  0.4679850000000  0.4071070000000 1.0
C      1  0.4341590000000  0.5378130000000  0.5216040000000 1.0
C      1  0.5582860000000  0.4473010000000  0.4902020000000 1.0
C      1  0.4715960000000  0.6126900000000  0.4874460000000 1.0
C      1  0.4805630000000  0.5547350000000  0.4815140000000 1.0
C      1  0.4919690000000  0.4212150000000  0.5163720000000 1.0
C      1  0.4212170000000  0.5488280000000  0.4494440000000 1.0
C      1  0.4450480000000  0.4290670000000  0.5038700000000 1.0
C      1  0.5051690000000  0.4840350000000  0.3910490000000 1.0
C      1  0.5378000000000  0.5373340000000  0.5894800000000 1.0
C      1  0.5837220000000  0.4735270000000  0.5213930000000 1.0
C      1  0.4815800000000  0.4781990000000  0.5338010000000 1.0
C      1  0.6061240000000  0.4735050000000  0.4538810000000 1.0
C      1  0.4131970000000  0.5469000000000  0.4750590000000 1.0
C      1  0.5294880000000  0.4478940000000  0.5304240000000 1.0
C      1  0.5074560000000  0.5343080000000  0.4138460000000 1.0
C      1  0.4709440000000  0.4775180000000  0.5080770000000 1.0
C      1  0.4664710000000  0.5317690000000  0.4711830000000 1.0
C      1  0.4647470000000  0.4133000000000  0.5173230000000 1.0
C      1  0.5106790000000  0.4841460000000  0.4791670000000 1.0
C      1  0.4699900000000  0.4225700000000  0.4632430000000 1.0
C      1  0.5253500000000  0.4852230000000  0.6167910000000 1.0
C      1  0.4614730000000  0.5452180000000  0.5229450000000 1.0
C      1  0.4165750000000  0.5415280000000  0.5012560000000 1.0
C      1  0.5647400000000  0.5235590000000  0.4899420000000 1.0
C      1  0.4583720000000  0.5390670000000  0.4129070000000 1.0
C      1  0.4813340000000  0.4800550000000  0.5602910000000 1.0
C      1  0.5641710000000  0.4869380000000  0.5368860000000 1.0
C      1  0.5772280000000  0.5276910000000  0.5619890000000 1.0
C      1  0.4901170000000  0.6110510000000  0.4678850000000 1.0
C      1  0.4310610000000  0.4907140000000  0.4839960000000 1.0
C      1  0.5874620000000  0.5098110000000  0.4808480000000 1.0
C      1  0.5660120000000  0.5156510000000  0.5388050000000 1.0
C      1  0.4319540000000  0.4515300000000  0.5161770000000 1.0
C      1  0.5237530000000  0.4827710000000  0.4530180000000 1.0
C      1  0.4117780000000  0.4491450000000  0.5350470000000 1.0
C      1  0.4682060000000  0.4850690000000  0.4600540000000 1.0
C      1  0.5362260000000  0.5089050000000  0.4488880000000 1.0
C      1  0.5337090000000  0.4399950000000  0.5020580000000 1.0
C      1  0.5417370000000  0.4704220000000  0.5420300000000 1.0
C      1  0.5522610000000  0.4873760000000  0.6174950000000 1.0
C      1  0.5190820000000  0.5075240000000  0.4932040000000 1.0
C      1  0.5919850000000  0.4822800000000  0.4754340000000 1.0
C      1  0.4881860000000  0.4873770000000  0.5848620000000 1.0
C      1  0.5211250000000  0.4615830000000  0.4345370000000 1.0
C      1  0.5408280000000  0.5179530000000  0.4757350000000 1.0
C      1  0.5139370000000  0.5267690000000  0.5962300000000 1.0
C      1  0.5632010000000  0.5252280000000  0.5863760000000 1.0
C      1  0.4848300000000  0.5290550000000  0.5270330000000 1.0
C      1  0.5065290000000  0.5673230000000  0.4782610000000 1.0
C      1  0.5284890000000  0.5259400000000  0.4281920000000 1.0
C      1  0.5230940000000  0.5906690000000  0.4381470000000 1.0
C      1  0.4617020000000  0.4821130000000  0.4092130000000 1.0
C      1  0.4518420000000  0.5068630000000  0.4700300000000 1.0
C      1  0.5311920000000  0.5445750000000  0.5163750000000 1.0
C      1  0.4251220000000  0.4460680000000  0.4630590000000 1.0
C      1  0.6014510000000  0.5414070000000  0.5606330000000 1.0
C      1  0.4670190000000  0.5661240000000  0.5044600000000 1.0
C      1  0.4841030000000  0.4771040000000  0.4824250000000 1.0
C      1  0.5802530000000  0.4647670000000  0.4946090000000 1.0
C      1  0.5071820000000  0.5897610000000  0.4602350000000 1.0
C      1  0.5576990000000  0.5320360000000  0.5166760000000 1.0
C      1  0.4820480000000  0.5255900000000  0.4051980000000 1.0
C      1  0.5091230000000  0.4263460000000  0.4927690000000 1.0
C      1  0.4373920000000  0.5461360000000  0.4281280000000 1.0
C      1  0.5386130000000  0.5913640000000  0.5066960000000 1.0
C      1  0.4573180000000  0.3906810000000  0.5308160000000 1.0
C      1  0.3555510000000  0.4419640000000  0.5901610000000 1.0
C      1  0.5688630000000  0.5044340000000  0.6047570000000 1.0
C      1  0.6244600000000  0.5542900000000  0.5580980000000 1.0
C      1  0.4812030000000  0.4981190000000  0.3966680000000 1.0
C      1  0.4980880000000  0.4259930000000  0.4663840000000 1.0
C      1  0.6471020000000  0.5669320000000  0.5554330000000 1.0
C      1  0.3740760000000  0.4443370000000  0.5719700000000 1.0
C      1  0.4622770000000  0.4748850000000  0.4349660000000 1.0
C      1  0.4169730000000  0.4718960000000  0.4672770000000 1.0
END
