TITL C-627111-6168-1070 -5.97988455870853e-07 125000 -171.372489824338 0 0 29 (C1) n - 1
REM
REM in /home/nfs/bkarasulu/CARBON/AIRSS/Generating-Clusters/LCBOP/Only-C1/SD-CG/FIRE-CG
REM
REM
REM
REM
REM
REM ./C.cell (11c1c37f851c82e70ff6c80c92926a4b)
REM AIRSS Version 0.9.1 bugfix July 2018 build 013d7b7c2542+ Fri, 06 Jul 2018 19:26:36 +0100
REM compiler GCC version 9.2.1 20190827 (Red Hat 9.2.1-1)
REM options -cpp -mtune=generic -march=x86-64 -g -O0 -fpre-include=/usr/include/finclude/math-vector-fortran.h
REM seed -1001342073 1379423979 1812972867 289916454 -1937195236 -886018885 -800717770 645141088 -206299708 1847664130 271409485 1918413447 -1157416627 -807877737 1852447219 690416859 -1610884175 570310079 -1075551708 -1236495295 522345961 -1339581822 1262347760 -1056701512 -1396690127 -206071094 1225244319 1469685847 -1750631 -730552977 264218729 -2089616415 -191251271
REM
CELL 1.54180   50.00000   50.00000   50.00000   90.00000   90.00000   90.00000
LATT -1
SFAC C  
C      1  0.4974170000000  0.5265140000000  0.5555980000000 1.0
C      1  0.4980350000000  0.4793020000000  0.5490450000000 1.0
C      1  0.4637720000000  0.4860990000000  0.4713570000000 1.0
C      1  0.5364090000000  0.4721950000000  0.4741860000000 1.0
C      1  0.4794530000000  0.5360090000000  0.5378240000000 1.0
C      1  0.5602710000000  0.4798590000000  0.4870460000000 1.0
C      1  0.4713680000000  0.5261400000000  0.5127970000000 1.0
C      1  0.5675980000000  0.4916500000000  0.5100120000000 1.0
C      1  0.4886260000000  0.4922390000000  0.4838050000000 1.0
C      1  0.5542980000000  0.5369040000000  0.5165040000000 1.0
C      1  0.5221120000000  0.4300690000000  0.4954140000000 1.0
C      1  0.4824690000000  0.4732040000000  0.5261870000000 1.0
C      1  0.4496380000000  0.5072140000000  0.5091330000000 1.0
C      1  0.4545220000000  0.4824980000000  0.5244450000000 1.0
C      1  0.4430310000000  0.5045130000000  0.4802750000000 1.0
C      1  0.5402950000000  0.5041340000000  0.5489640000000 1.0
C      1  0.5185540000000  0.4566890000000  0.4908080000000 1.0
C      1  0.4970920000000  0.4716990000000  0.5013900000000 1.0
C      1  0.4340800000000  0.4688320000000  0.5365030000000 1.0
C      1  0.5128430000000  0.5027220000000  0.5551890000000 1.0
C      1  0.5573940000000  0.5111120000000  0.5276280000000 1.0
C      1  0.5361910000000  0.5459860000000  0.4988990000000 1.0
C      1  0.4918790000000  0.5196700000000  0.4932490000000 1.0
C      1  0.5131170000000  0.5371160000000  0.4887640000000 1.0
C      1  0.5094370000000  0.5022200000000  0.4379970000000 1.0
C      1  0.5263840000000  0.4858190000000  0.4512220000000 1.0
C      1  0.4874990000000  0.5176340000000  0.4344140000000 1.0
C      1  0.4632330000000  0.5273920000000  0.4415610000000 1.0
C      1  0.4429850000000  0.5245640000000  0.4597840000000 1.0
END
