TITL C-627110-360-95 0.00805031719084884 125000 -1056.77857479876 0 0 173 (C1) n - 1
REM
REM in /home/nfs/bkarasulu/CARBON/AIRSS/Generating-Clusters/LCBOP/Only-C1/SD-CG/FIRE-CG
REM
REM
REM
REM
REM
REM ./C.cell (11c1c37f851c82e70ff6c80c92926a4b)
REM AIRSS Version 0.9.1 bugfix July 2018 build 013d7b7c2542+ Fri, 06 Jul 2018 19:26:36 +0100
REM compiler GCC version 9.2.1 20190827 (Red Hat 9.2.1-1)
REM options -cpp -mtune=generic -march=x86-64 -g -O0 -fpre-include=/usr/include/finclude/math-vector-fortran.h
REM seed -1186434965 -208977270 -658103272 -898833185 1069030423 1503894077 1349719822 1383029626 1954021737 537495589 241382162 44890656 1948562618 -372823642 1303917749 -1772946140 1543146807 -891005392 708505159 -1571900043 361043367 1682095598 -1909923385 -1271560944 -755127905 -755465912 -1081011568 601241133 287822465 532911796 -298260737 -499729717 442093769
REM
CELL 1.54180   50.00000   50.00000   50.00000   90.00000   90.00000   90.00000
LATT -1
SFAC C  
C      1  0.5529790000000  0.4578150000000  0.4001690000000 1.0
C      1  0.5276770000000  0.4012510000000  0.5400660000000 1.0
C      1  0.5377710000000  0.5666580000000  0.6258230000000 1.0
C      1  0.5388660000000  0.6019900000000  0.4752870000000 1.0
C      1  0.4673070000000  0.5325540000000  0.6248650000000 1.0
C      1  0.6093790000000  0.5010230000000  0.4022470000000 1.0
C      1  0.5387810000000  0.4868810000000  0.4857370000000 1.0
C      1  0.5811860000000  0.4765270000000  0.5009760000000 1.0
C      1  0.5261940000000  0.5522970000000  0.5172280000000 1.0
C      1  0.3909740000000  0.4742290000000  0.5128490000000 1.0
C      1  0.4212310000000  0.5468230000000  0.4363880000000 1.0
C      1  0.5577320000000  0.4927790000000  0.5077200000000 1.0
C      1  0.5255760000000  0.4949290000000  0.3842110000000 1.0
C      1  0.5634200000000  0.5092450000000  0.6259540000000 1.0
C      1  0.4537490000000  0.5083030000000  0.4441350000000 1.0
C      1  0.4378430000000  0.4694660000000  0.4721190000000 1.0
C      1  0.4927340000000  0.3908110000000  0.4397110000000 1.0
C      1  0.5522200000000  0.3611480000000  0.4109930000000 1.0
C      1  0.5458730000000  0.4774620000000  0.3834200000000 1.0
C      1  0.4055350000000  0.4718080000000  0.5386370000000 1.0
C      1  0.5972980000000  0.5232620000000  0.4879400000000 1.0
C      1  0.5104280000000  0.3883730000000  0.4631940000000 1.0
C      1  0.4056320000000  0.4891800000000  0.3691700000000 1.0
C      1  0.5175550000000  0.5812200000000  0.6117880000000 1.0
C      1  0.5858210000000  0.5479360000000  0.5526970000000 1.0
C      1  0.5046520000000  0.6008880000000  0.5149160000000 1.0
C      1  0.5543140000000  0.3768600000000  0.4776550000000 1.0
C      1  0.5062960000000  0.5389490000000  0.5334790000000 1.0
C      1  0.3964360000000  0.5489990000000  0.4493890000000 1.0
C      1  0.4522880000000  0.5688870000000  0.5916780000000 1.0
C      1  0.5611540000000  0.5622030000000  0.5560120000000 1.0
C      1  0.4912470000000  0.6023640000000  0.5625180000000 1.0
C      1  0.4610780000000  0.5823080000000  0.5321170000000 1.0
C      1  0.5534510000000  0.5703670000000  0.5821080000000 1.0
C      1  0.4285830000000  0.5191440000000  0.4303960000000 1.0
C      1  0.5412360000000  0.5054070000000  0.5524430000000 1.0
C      1  0.4721630000000  0.4438920000000  0.4331280000000 1.0
C      1  0.4873260000000  0.4145240000000  0.4943090000000 1.0
C      1  0.5262540000000  0.4951870000000  0.6551360000000 1.0
C      1  0.4743240000000  0.5946530000000  0.5833050000000 1.0
C      1  0.5104750000000  0.5313810000000  0.5803180000000 1.0
C      1  0.4658560000000  0.6205970000000  0.4745210000000 1.0
C      1  0.4186940000000  0.5366240000000  0.5750440000000 1.0
C      1  0.6177970000000  0.5120940000000  0.4489770000000 1.0
C      1  0.4813290000000  0.5073660000000  0.5095690000000 1.0
C      1  0.4636520000000  0.4744880000000  0.5354910000000 1.0
C      1  0.5182600000000  0.6058090000000  0.5695060000000 1.0
C      1  0.5005420000000  0.4660460000000  0.5015090000000 1.0
C      1  0.5447210000000  0.4090430000000  0.5188310000000 1.0
C      1  0.6321680000000  0.4649030000000  0.4609710000000 1.0
C      1  0.4728620000000  0.3948680000000  0.5086180000000 1.0
C      1  0.5185720000000  0.4933050000000  0.5407280000000 1.0
C      1  0.5400460000000  0.4435840000000  0.4205240000000 1.0
C      1  0.4436060000000  0.4366060000000  0.5187410000000 1.0
C      1  0.4486170000000  0.3908870000000  0.5205750000000 1.0
C      1  0.4308100000000  0.4120050000000  0.5269420000000 1.0
C      1  0.5193200000000  0.4651940000000  0.5434640000000 1.0
C      1  0.4628360000000  0.5510000000000  0.4186880000000 1.0
C      1  0.5616720000000  0.5069060000000  0.5329410000000 1.0
C      1  0.5740890000000  0.5406820000000  0.4866090000000 1.0
C      1  0.6097820000000  0.5580240000000  0.5609050000000 1.0
C      1  0.5398300000000  0.6125990000000  0.4218800000000 1.0
C      1  0.5585100000000  0.5568050000000  0.6079340000000 1.0
C      1  0.4853470000000  0.5962980000000  0.5352730000000 1.0
C      1  0.4879120000000  0.4444250000000  0.4566820000000 1.0
C      1  0.5434700000000  0.4907430000000  0.6328810000000 1.0
C      1  0.4185660000000  0.5081380000000  0.5775280000000 1.0
C      1  0.6181000000000  0.4881910000000  0.4658910000000 1.0
C      1  0.4724840000000  0.5315750000000  0.4373740000000 1.0
C      1  0.4972600000000  0.4969400000000  0.4598680000000 1.0
C      1  0.3925130000000  0.4730310000000  0.3876510000000 1.0
C      1  0.4737580000000  0.4362820000000  0.4810130000000 1.0
C      1  0.4465280000000  0.5148660000000  0.6175650000000 1.0
C      1  0.5315150000000  0.5886990000000  0.5869400000000 1.0
C      1  0.4640840000000  0.3945220000000  0.4441410000000 1.0
C      1  0.4417630000000  0.5695970000000  0.5458950000000 1.0
C      1  0.4093130000000  0.4193810000000  0.5439580000000 1.0
C      1  0.6555930000000  0.4183740000000  0.4512630000000 1.0
C      1  0.4410360000000  0.4984320000000  0.4709210000000 1.0
C      1  0.6145700000000  0.5355640000000  0.4659810000000 1.0
C      1  0.4276970000000  0.4216890000000  0.4754400000000 1.0
C      1  0.4214990000000  0.5094140000000  0.3823060000000 1.0
C      1  0.4689070000000  0.5583300000000  0.6136450000000 1.0
C      1  0.3847300000000  0.4682250000000  0.4627830000000 1.0
C      1  0.4513690000000  0.4963070000000  0.5483670000000 1.0
C      1  0.4573180000000  0.5449310000000  0.3917700000000 1.0
C      1  0.5377640000000  0.6164270000000  0.3961770000000 1.0
C      1  0.4410020000000  0.4698420000000  0.5995530000000 1.0
C      1  0.5043770000000  0.5121620000000  0.5243690000000 1.0
C      1  0.5615450000000  0.5885640000000  0.4877900000000 1.0
C      1  0.4834780000000  0.5665320000000  0.4675380000000 1.0
C      1  0.4603110000000  0.5245440000000  0.5042530000000 1.0
C      1  0.3989300000000  0.4807690000000  0.4148170000000 1.0
C      1  0.5356260000000  0.3756700000000  0.4567730000000 1.0
C      1  0.4223410000000  0.4927270000000  0.5528800000000 1.0
C      1  0.5484270000000  0.4820330000000  0.4582250000000 1.0
C      1  0.5357040000000  0.3757530000000  0.4277120000000 1.0
C      1  0.5408880000000  0.6080330000000  0.4479520000000 1.0
C      1  0.4028590000000  0.4453100000000  0.5498470000000 1.0
C      1  0.5357410000000  0.5427730000000  0.4145600000000 1.0
C      1  0.5061940000000  0.4043290000000  0.5558080000000 1.0
C      1  0.4870760000000  0.4862900000000  0.4138490000000 1.0
C      1  0.4763160000000  0.4872010000000  0.4405200000000 1.0
C      1  0.5344260000000  0.5189480000000  0.5762240000000 1.0
C      1  0.5245660000000  0.4763030000000  0.6749480000000 1.0
C      1  0.5315800000000  0.4560250000000  0.5940570000000 1.0
C      1  0.3527360000000  0.5125160000000  0.5150170000000 1.0
C      1  0.6059080000000  0.5635380000000  0.4645610000000 1.0
C      1  0.3934980000000  0.5382940000000  0.4741040000000 1.0
C      1  0.3905690000000  0.4565560000000  0.4887930000000 1.0
C      1  0.6669520000000  0.3953940000000  0.4465130000000 1.0
C      1  0.4780030000000  0.4794380000000  0.5124590000000 1.0
C      1  0.4582730000000  0.5770280000000  0.4580180000000 1.0
C      1  0.5044360000000  0.5473390000000  0.4690790000000 1.0
C      1  0.4534090000000  0.4489200000000  0.5881810000000 1.0
C      1  0.4278920000000  0.4588620000000  0.4459800000000 1.0
C      1  0.4411090000000  0.5288300000000  0.3773120000000 1.0
C      1  0.5109170000000  0.4839180000000  0.4818490000000 1.0
C      1  0.5709880000000  0.4496850000000  0.5052270000000 1.0
C      1  0.5502100000000  0.5306390000000  0.4747880000000 1.0
C      1  0.5736590000000  0.5192350000000  0.4303790000000 1.0
C      1  0.5243690000000  0.4543350000000  0.5685600000000 1.0
C      1  0.5387480000000  0.4687660000000  0.6162010000000 1.0
C      1  0.4461090000000  0.4438710000000  0.4890970000000 1.0
C      1  0.4918920000000  0.5359660000000  0.5591400000000 1.0
C      1  0.4155100000000  0.5391610000000  0.4919030000000 1.0
C      1  0.5566150000000  0.5101400000000  0.4519500000000 1.0
C      1  0.5137150000000  0.6091630000000  0.4891160000000 1.0
C      1  0.5161390000000  0.4376710000000  0.4618550000000 1.0
C      1  0.4575110000000  0.4482850000000  0.5402840000000 1.0
C      1  0.5703510000000  0.5325750000000  0.6149000000000 1.0
C      1  0.5142820000000  0.3946220000000  0.4189300000000 1.0
C      1  0.4286800000000  0.5901100000000  0.4920960000000 1.0
C      1  0.5081310000000  0.5030560000000  0.4045240000000 1.0
C      1  0.5157130000000  0.5248100000000  0.4218900000000 1.0
C      1  0.5589330000000  0.5880670000000  0.5158950000000 1.0
C      1  0.6440230000000  0.4417270000000  0.4560960000000 1.0
C      1  0.5679870000000  0.3476500000000  0.3952360000000 1.0
C      1  0.5636600000000  0.5410210000000  0.4148810000000 1.0
C      1  0.4928380000000  0.6230640000000  0.4753790000000 1.0
C      1  0.4482790000000  0.5984970000000  0.4736840000000 1.0
C      1  0.5243640000000  0.4206590000000  0.4130330000000 1.0
C      1  0.5560510000000  0.3901670000000  0.5010610000000 1.0
C      1  0.5115580000000  0.4123400000000  0.4781900000000 1.0
C      1  0.5009740000000  0.5260520000000  0.4482240000000 1.0
C      1  0.5456330000000  0.4372640000000  0.5127290000000 1.0
C      1  0.5370380000000  0.4543470000000  0.4475810000000 1.0
C      1  0.6008130000000  0.4934060000000  0.4886660000000 1.0
C      1  0.5834300000000  0.5231490000000  0.5397290000000 1.0
C      1  0.3721590000000  0.4953510000000  0.5122810000000 1.0
C      1  0.4443600000000  0.4379280000000  0.4354780000000 1.0
C      1  0.4014950000000  0.4677320000000  0.4395810000000 1.0
C      1  0.4843570000000  0.4165550000000  0.5654270000000 1.0
C      1  0.4678630000000  0.5187630000000  0.5576780000000 1.0
C      1  0.5804950000000  0.5685170000000  0.4782420000000 1.0
C      1  0.6006500000000  0.5106110000000  0.4262700000000 1.0
C      1  0.4440700000000  0.5652020000000  0.4359010000000 1.0
C      1  0.4901490000000  0.5777610000000  0.6114230000000 1.0
C      1  0.5207360000000  0.4523290000000  0.5180350000000 1.0
C      1  0.4645510000000  0.4365920000000  0.5652970000000 1.0
C      1  0.5469750000000  0.5676930000000  0.5313130000000 1.0
C      1  0.4012630000000  0.4297090000000  0.4853990000000 1.0
C      1  0.5107890000000  0.5190600000000  0.6571470000000 1.0
C      1  0.5265590000000  0.5438300000000  0.4873050000000 1.0
C      1  0.4414730000000  0.4124770000000  0.4502180000000 1.0
C      1  0.4206620000000  0.5657410000000  0.5005930000000 1.0
C      1  0.4881110000000  0.5230570000000  0.6411540000000 1.0
C      1  0.4329650000000  0.4970420000000  0.6003370000000 1.0
C      1  0.5796720000000  0.5588170000000  0.4018720000000 1.0
C      1  0.5178950000000  0.5380670000000  0.6755860000000 1.0
C      1  0.4156090000000  0.5045170000000  0.4107000000000 1.0
C      1  0.4354860000000  0.5592530000000  0.5714610000000 1.0
C      1  0.4366590000000  0.5196600000000  0.4900300000000 1.0
END
