TITL C-627111-6168-189 7.02058422154137e-07 125000 -495.611763733188 0 0 82 (C1) n - 1
REM
REM in /home/nfs/bkarasulu/CARBON/AIRSS/Generating-Clusters/LCBOP/Only-C1/SD-CG/FIRE-CG
REM
REM
REM
REM
REM
REM ./C.cell (11c1c37f851c82e70ff6c80c92926a4b)
REM AIRSS Version 0.9.1 bugfix July 2018 build 013d7b7c2542+ Fri, 06 Jul 2018 19:26:36 +0100
REM compiler GCC version 9.2.1 20190827 (Red Hat 9.2.1-1)
REM options -cpp -mtune=generic -march=x86-64 -g -O0 -fpre-include=/usr/include/finclude/math-vector-fortran.h
REM seed 1459015097 1504795922 -1975190348 283184430 -1491323038 -1798875594 1416974961 -1618328293 63722051 -786506530 -726844507 -407989291 -1660346219 -899906596 -855769187 790238704 1220658151 -2054403224 1521022113 582974561 1857002781 -1978972042 -1671444353 1248695711 980764228 732273527 438177414 -1205804195 -353539003 -894605166 -1575627268 -2059565415 -792473397
REM
CELL 1.54180   50.00000   50.00000   50.00000   90.00000   90.00000   90.00000
LATT -1
SFAC C  
C      1  0.4650250000000  0.4269340000000  0.5458790000000 1.0
C      1  0.4697670000000  0.4202580000000  0.4635820000000 1.0
C      1  0.5076580000000  0.5091710000000  0.5839020000000 1.0
C      1  0.5951360000000  0.4910360000000  0.4748940000000 1.0
C      1  0.4482530000000  0.4734580000000  0.4320870000000 1.0
C      1  0.5136810000000  0.5786350000000  0.5596990000000 1.0
C      1  0.4759830000000  0.4848670000000  0.5359640000000 1.0
C      1  0.4710080000000  0.5941720000000  0.5032670000000 1.0
C      1  0.5135380000000  0.5429960000000  0.4133390000000 1.0
C      1  0.5334610000000  0.4982520000000  0.4642440000000 1.0
C      1  0.4949330000000  0.4613130000000  0.5709700000000 1.0
C      1  0.5336420000000  0.3882560000000  0.4440390000000 1.0
C      1  0.4258590000000  0.4816260000000  0.5553970000000 1.0
C      1  0.5367190000000  0.5226060000000  0.5378180000000 1.0
C      1  0.4884890000000  0.4344600000000  0.5614190000000 1.0
C      1  0.5604730000000  0.5637130000000  0.4589240000000 1.0
C      1  0.5158660000000  0.6028030000000  0.4903890000000 1.0
C      1  0.5249850000000  0.5944710000000  0.4666820000000 1.0
C      1  0.4917940000000  0.4729920000000  0.4666000000000 1.0
C      1  0.4640280000000  0.5108410000000  0.4785730000000 1.0
C      1  0.4624030000000  0.4249970000000  0.5172450000000 1.0
C      1  0.5817970000000  0.5042850000000  0.4971750000000 1.0
C      1  0.4800550000000  0.5154900000000  0.5897830000000 1.0
C      1  0.5356470000000  0.5256600000000  0.4756300000000 1.0
C      1  0.5343110000000  0.5724340000000  0.4515420000000 1.0
C      1  0.4387110000000  0.4348260000000  0.5550620000000 1.0
C      1  0.5254050000000  0.5318940000000  0.5865570000000 1.0
C      1  0.4253440000000  0.5085780000000  0.5422270000000 1.0
C      1  0.5582680000000  0.4912490000000  0.5089390000000 1.0
C      1  0.4718110000000  0.4833860000000  0.4844660000000 1.0
C      1  0.5488290000000  0.5290300000000  0.6005600000000 1.0
C      1  0.5291320000000  0.4534850000000  0.4889090000000 1.0
C      1  0.5474130000000  0.4337990000000  0.5325730000000 1.0
C      1  0.4977430000000  0.5985080000000  0.5115130000000 1.0
C      1  0.4629780000000  0.4899130000000  0.4166600000000 1.0
C      1  0.4528640000000  0.5502090000000  0.5050570000000 1.0
C      1  0.4274180000000  0.5079010000000  0.5129390000000 1.0
C      1  0.5765220000000  0.5528810000000  0.4778110000000 1.0
C      1  0.4976020000000  0.4242900000000  0.4625560000000 1.0
C      1  0.4191580000000  0.4825350000000  0.5022160000000 1.0
C      1  0.4522430000000  0.5757230000000  0.4927220000000 1.0
C      1  0.5473860000000  0.4967580000000  0.5353910000000 1.0
C      1  0.4382060000000  0.5267960000000  0.5617960000000 1.0
C      1  0.5264360000000  0.5405050000000  0.4957650000000 1.0
C      1  0.4753470000000  0.4775170000000  0.5109820000000 1.0
C      1  0.5066840000000  0.4494880000000  0.4718590000000 1.0
C      1  0.5386970000000  0.4346780000000  0.5072740000000 1.0
C      1  0.5534730000000  0.4894380000000  0.4431460000000 1.0
C      1  0.5399620000000  0.4801060000000  0.4890750000000 1.0
C      1  0.5186700000000  0.5574480000000  0.5756510000000 1.0
C      1  0.4407980000000  0.4561150000000  0.4513920000000 1.0
C      1  0.5524150000000  0.3721420000000  0.4358220000000 1.0
C      1  0.5656900000000  0.4637130000000  0.4491510000000 1.0
C      1  0.4932920000000  0.5459690000000  0.4550360000000 1.0
C      1  0.4498120000000  0.5504430000000  0.5526620000000 1.0
C      1  0.5161700000000  0.4820990000000  0.5732220000000 1.0
C      1  0.5738390000000  0.5083820000000  0.4355910000000 1.0
C      1  0.5065490000000  0.5930160000000  0.5379930000000 1.0
C      1  0.5143920000000  0.5558420000000  0.4385910000000 1.0
C      1  0.4432950000000  0.4382850000000  0.4996010000000 1.0
C      1  0.4791180000000  0.5030520000000  0.3972690000000 1.0
C      1  0.4930110000000  0.5429520000000  0.5305840000000 1.0
C      1  0.5827400000000  0.5328600000000  0.4949840000000 1.0
C      1  0.5966280000000  0.5079570000000  0.4512280000000 1.0
C      1  0.5150070000000  0.4050240000000  0.4526080000000 1.0
C      1  0.4481240000000  0.4369820000000  0.4711820000000 1.0
C      1  0.5043140000000  0.4969890000000  0.4568410000000 1.0
C      1  0.4722840000000  0.4759730000000  0.5619340000000 1.0
C      1  0.4662770000000  0.5503090000000  0.5301420000000 1.0
C      1  0.4253410000000  0.4568620000000  0.5129490000000 1.0
C      1  0.4985210000000  0.5230480000000  0.4029090000000 1.0
C      1  0.5392990000000  0.4779340000000  0.5558150000000 1.0
C      1  0.4756940000000  0.4958160000000  0.3709580000000 1.0
C      1  0.4481700000000  0.4841940000000  0.5740380000000 1.0
C      1  0.5188590000000  0.5373910000000  0.5223020000000 1.0
C      1  0.5867010000000  0.4645710000000  0.4671570000000 1.0
C      1  0.4351250000000  0.5820880000000  0.4725150000000 1.0
C      1  0.4455770000000  0.5240280000000  0.4963090000000 1.0
C      1  0.4529770000000  0.5117240000000  0.5820390000000 1.0
C      1  0.4858780000000  0.5198200000000  0.4615700000000 1.0
C      1  0.4245130000000  0.4562300000000  0.5421830000000 1.0
C      1  0.5487780000000  0.4515190000000  0.5526760000000 1.0
END
