TITL C-627111-6168-611 -7.6541657914514e-08 125000 -979.291161945387 0 0 160 (C1) n - 1
REM
REM in /home/nfs/bkarasulu/CARBON/AIRSS/Generating-Clusters/LCBOP/Only-C1/SD-CG/FIRE-CG
REM
REM
REM
REM
REM
REM ./C.cell (11c1c37f851c82e70ff6c80c92926a4b)
REM AIRSS Version 0.9.1 bugfix July 2018 build 013d7b7c2542+ Fri, 06 Jul 2018 19:26:36 +0100
REM compiler GCC version 9.2.1 20190827 (Red Hat 9.2.1-1)
REM options -cpp -mtune=generic -march=x86-64 -g -O0 -fpre-include=/usr/include/finclude/math-vector-fortran.h
REM seed 53671587 1904877235 -12571559 1547788778 -101561288 -1174713094 1993728522 -2123754881 485116509 560584229 26881465 -1497803914 1574996789 1684081894 -1506481897 -2022447801 -1553527400 791432170 1540660195 -310157696 -1935756617 -794307055 -1702445817 -1302441676 -1935787218 1584141638 1708234604 1511817267 766557509 786435741 -502554245 -1001611685 -1039242197
REM
CELL 1.54180   50.00000   50.00000   50.00000   90.00000   90.00000   90.00000
LATT -1
SFAC C  
C      1  0.4678930000000  0.4110910000000  0.5663330000000 1.0
C      1  0.4886900000000  0.5148060000000  0.4904090000000 1.0
C      1  0.5226090000000  0.6092680000000  0.5194620000000 1.0
C      1  0.3944250000000  0.4991740000000  0.4984130000000 1.0
C      1  0.4614950000000  0.5204600000000  0.4493460000000 1.0
C      1  0.5467000000000  0.3909630000000  0.4944000000000 1.0
C      1  0.5289770000000  0.5182330000000  0.6067850000000 1.0
C      1  0.4463020000000  0.4896990000000  0.4847790000000 1.0
C      1  0.5776300000000  0.4728700000000  0.5505970000000 1.0
C      1  0.5687180000000  0.5856260000000  0.5693860000000 1.0
C      1  0.5379360000000  0.4631000000000  0.5129820000000 1.0
C      1  0.5389040000000  0.4918320000000  0.5678790000000 1.0
C      1  0.5774420000000  0.5764380000000  0.4807040000000 1.0
C      1  0.4774160000000  0.4797680000000  0.5180840000000 1.0
C      1  0.4680840000000  0.4992820000000  0.5719740000000 1.0
C      1  0.4594270000000  0.5607370000000  0.4213330000000 1.0
C      1  0.5118210000000  0.4192180000000  0.4261710000000 1.0
C      1  0.4562130000000  0.4296240000000  0.5187190000000 1.0
C      1  0.5653010000000  0.4882840000000  0.4712610000000 1.0
C      1  0.4077960000000  0.4321340000000  0.5063410000000 1.0
C      1  0.5724440000000  0.5108220000000  0.4278120000000 1.0
C      1  0.4677570000000  0.3958380000000  0.4758410000000 1.0
C      1  0.4498140000000  0.4844810000000  0.5129290000000 1.0
C      1  0.5935110000000  0.4511980000000  0.4947870000000 1.0
C      1  0.4541560000000  0.5520330000000  0.3948800000000 1.0
C      1  0.4794450000000  0.5386430000000  0.6071580000000 1.0
C      1  0.5826250000000  0.4242010000000  0.4951480000000 1.0
C      1  0.3915880000000  0.4691460000000  0.4168520000000 1.0
C      1  0.6107720000000  0.4936400000000  0.5120030000000 1.0
C      1  0.5611140000000  0.3940850000000  0.4684520000000 1.0
C      1  0.5469020000000  0.4492940000000  0.4105840000000 1.0
C      1  0.5436470000000  0.6112430000000  0.5000040000000 1.0
C      1  0.3954240000000  0.5409770000000  0.4707360000000 1.0
C      1  0.4764400000000  0.5475030000000  0.3783780000000 1.0
C      1  0.5157990000000  0.5150900000000  0.3910070000000 1.0
C      1  0.4505440000000  0.5442530000000  0.5157240000000 1.0
C      1  0.4270570000000  0.4762710000000  0.4689440000000 1.0
C      1  0.4731550000000  0.4388770000000  0.6113770000000 1.0
C      1  0.5568630000000  0.4797130000000  0.5302990000000 1.0
C      1  0.5293080000000  0.4317340000000  0.4757590000000 1.0
C      1  0.5187340000000  0.5223230000000  0.4494050000000 1.0
C      1  0.5213800000000  0.5498600000000  0.5234990000000 1.0
C      1  0.5053540000000  0.4065640000000  0.5359570000000 1.0
C      1  0.4101900000000  0.5653650000000  0.4678340000000 1.0
C      1  0.4328230000000  0.4936120000000  0.4124560000000 1.0
C      1  0.5277230000000  0.5870680000000  0.4411490000000 1.0
C      1  0.3858850000000  0.4778780000000  0.5174590000000 1.0
C      1  0.4649810000000  0.5089970000000  0.4746120000000 1.0
C      1  0.5229830000000  0.4203520000000  0.4521860000000 1.0
C      1  0.4844070000000  0.4106510000000  0.4237410000000 1.0
C      1  0.5055700000000  0.5117730000000  0.5466960000000 1.0
C      1  0.5118500000000  0.5571540000000  0.5749550000000 1.0
C      1  0.4339340000000  0.5775250000000  0.4782380000000 1.0
C      1  0.4003890000000  0.4822950000000  0.4754640000000 1.0
C      1  0.4699450000000  0.5494080000000  0.4469120000000 1.0
C      1  0.4851650000000  0.5580100000000  0.5864900000000 1.0
C      1  0.5053330000000  0.4267690000000  0.5163160000000 1.0
C      1  0.4809840000000  0.4486520000000  0.4788210000000 1.0
C      1  0.4594180000000  0.5642840000000  0.4723720000000 1.0
C      1  0.4456100000000  0.4981620000000  0.5881450000000 1.0
C      1  0.4675900000000  0.4192770000000  0.5936570000000 1.0
C      1  0.5273240000000  0.5947220000000  0.5437040000000 1.0
C      1  0.5236560000000  0.4826290000000  0.4959880000000 1.0
C      1  0.4022650000000  0.5262710000000  0.4947840000000 1.0
C      1  0.5718810000000  0.5591980000000  0.5041160000000 1.0
C      1  0.5169450000000  0.5679930000000  0.5475400000000 1.0
C      1  0.4816340000000  0.5141630000000  0.6191600000000 1.0
C      1  0.5760560000000  0.4186590000000  0.4659580000000 1.0
C      1  0.5924040000000  0.4287120000000  0.5463750000000 1.0
C      1  0.3704020000000  0.4787580000000  0.4331300000000 1.0
C      1  0.4980440000000  0.4914170000000  0.5027860000000 1.0
C      1  0.5186070000000  0.3835580000000  0.4916630000000 1.0
C      1  0.6221660000000  0.5550760000000  0.5547400000000 1.0
C      1  0.5394030000000  0.4661250000000  0.6029820000000 1.0
C      1  0.4295050000000  0.4580450000000  0.4468420000000 1.0
C      1  0.5274550000000  0.5226990000000  0.5323680000000 1.0
C      1  0.4734540000000  0.6082460000000  0.5267920000000 1.0
C      1  0.5068110000000  0.4880680000000  0.3968050000000 1.0
C      1  0.4964260000000  0.6200860000000  0.5152760000000 1.0
C      1  0.4934740000000  0.6425620000000  0.4998420000000 1.0
C      1  0.4975880000000  0.5313610000000  0.3769040000000 1.0
C      1  0.4786850000000  0.5189010000000  0.5537510000000 1.0
C      1  0.5391850000000  0.5291680000000  0.4004360000000 1.0
C      1  0.5675180000000  0.5601880000000  0.4318470000000 1.0
C      1  0.4532670000000  0.5045130000000  0.4281860000000 1.0
C      1  0.5960530000000  0.5524650000000  0.5467570000000 1.0
C      1  0.4700420000000  0.5549020000000  0.4975850000000 1.0
C      1  0.5752880000000  0.4446830000000  0.4521190000000 1.0
C      1  0.5489540000000  0.6014360000000  0.5604320000000 1.0
C      1  0.4898310000000  0.3966830000000  0.5557430000000 1.0
C      1  0.4194450000000  0.4701800000000  0.4220570000000 1.0
C      1  0.5453770000000  0.5034520000000  0.4898170000000 1.0
C      1  0.5468050000000  0.4266740000000  0.5634480000000 1.0
C      1  0.4877610000000  0.4619660000000  0.4545820000000 1.0
C      1  0.4594160000000  0.4316220000000  0.5474010000000 1.0
C      1  0.5120500000000  0.4871280000000  0.5609490000000 1.0
C      1  0.4815060000000  0.4628370000000  0.6204510000000 1.0
C      1  0.5324130000000  0.5414890000000  0.5890750000000 1.0
C      1  0.5500990000000  0.5820980000000  0.4268240000000 1.0
C      1  0.5676260000000  0.4724030000000  0.6021220000000 1.0
C      1  0.5426900000000  0.5589660000000  0.5049080000000 1.0
C      1  0.5269900000000  0.4961250000000  0.4421270000000 1.0
C      1  0.5819560000000  0.4648660000000  0.4730580000000 1.0
C      1  0.6063010000000  0.4654790000000  0.5150760000000 1.0
C      1  0.5198560000000  0.4414410000000  0.4091140000000 1.0
C      1  0.4258550000000  0.4931450000000  0.6044390000000 1.0
C      1  0.5641360000000  0.6016960000000  0.4847600000000 1.0
C      1  0.4653130000000  0.5740860000000  0.5734520000000 1.0
C      1  0.4341830000000  0.5909630000000  0.5042580000000 1.0
C      1  0.5580160000000  0.5113260000000  0.5685160000000 1.0
C      1  0.6360770000000  0.5463730000000  0.4511550000000 1.0
C      1  0.5279670000000  0.4380340000000  0.5036800000000 1.0
C      1  0.3864190000000  0.4509740000000  0.5038380000000 1.0
C      1  0.5329040000000  0.5548940000000  0.4788150000000 1.0
C      1  0.5751010000000  0.5585070000000  0.5651660000000 1.0
C      1  0.6026260000000  0.5194390000000  0.5117140000000 1.0
C      1  0.5613100000000  0.5349670000000  0.4180510000000 1.0
C      1  0.4430890000000  0.4320400000000  0.4488040000000 1.0
C      1  0.4315150000000  0.4921390000000  0.5331620000000 1.0
C      1  0.4787490000000  0.4558850000000  0.4278920000000 1.0
C      1  0.4941630000000  0.5412350000000  0.5008010000000 1.0
C      1  0.5009480000000  0.5463340000000  0.4465930000000 1.0
C      1  0.3816310000000  0.4596800000000  0.4761690000000 1.0
C      1  0.4490120000000  0.5938470000000  0.5292080000000 1.0
C      1  0.5902200000000  0.5439270000000  0.5199180000000 1.0
C      1  0.4345350000000  0.4241520000000  0.5001490000000 1.0
C      1  0.6118750000000  0.5559380000000  0.4525090000000 1.0
C      1  0.4943580000000  0.4880500000000  0.6194540000000 1.0
C      1  0.5978180000000  0.4558590000000  0.5401640000000 1.0
C      1  0.4218030000000  0.5612420000000  0.5572420000000 1.0
C      1  0.4723260000000  0.4549450000000  0.5571370000000 1.0
C      1  0.5807870000000  0.4758480000000  0.5787540000000 1.0
C      1  0.5657860000000  0.4177230000000  0.5422040000000 1.0
C      1  0.5365830000000  0.4424540000000  0.5842310000000 1.0
C      1  0.3694040000000  0.5068380000000  0.4382100000000 1.0
C      1  0.3637750000000  0.4609830000000  0.4546120000000 1.0
C      1  0.4244320000000  0.5370940000000  0.5084120000000 1.0
C      1  0.5567720000000  0.4894110000000  0.4410970000000 1.0
C      1  0.4859060000000  0.4766550000000  0.5677160000000 1.0
C      1  0.5576230000000  0.5387590000000  0.5750520000000 1.0
C      1  0.4993060000000  0.4622250000000  0.4073990000000 1.0
C      1  0.5635940000000  0.4087010000000  0.5138000000000 1.0
C      1  0.4644660000000  0.4304090000000  0.4292110000000 1.0
C      1  0.4924460000000  0.3860320000000  0.4831920000000 1.0
C      1  0.3794430000000  0.5283150000000  0.4510930000000 1.0
C      1  0.5221750000000  0.4896220000000  0.6115430000000 1.0
C      1  0.5507000000000  0.5085030000000  0.5203410000000 1.0
C      1  0.4443130000000  0.5786790000000  0.5541260000000 1.0
C      1  0.4230670000000  0.5117710000000  0.3931490000000 1.0
C      1  0.5851700000000  0.5642530000000  0.4550960000000 1.0
C      1  0.5620760000000  0.4602370000000  0.4315260000000 1.0
C      1  0.4178320000000  0.5101510000000  0.5481230000000 1.0
C      1  0.4620510000000  0.5352910000000  0.5394250000000 1.0
C      1  0.4136000000000  0.5354510000000  0.5568120000000 1.0
C      1  0.5169170000000  0.5679630000000  0.4586070000000 1.0
C      1  0.5349630000000  0.5269580000000  0.4734070000000 1.0
C      1  0.4807590000000  0.4352750000000  0.5042780000000 1.0
C      1  0.4453110000000  0.4152520000000  0.4736060000000 1.0
C      1  0.4307920000000  0.5372930000000  0.3888070000000 1.0
C      1  0.5109950000000  0.4765360000000  0.4531060000000 1.0
END
