TITL C-627106-156-39 -5.02433175516756e-07 125000 -548.133679527203 0 0 90 (C1) n - 1
REM
REM in /home/nfs/bkarasulu/CARBON/AIRSS/Generating-Clusters/LCBOP/Only-C1/SD-CG/FIRE-CG
REM
REM
REM
REM
REM
REM ./C.cell (11c1c37f851c82e70ff6c80c92926a4b)
REM AIRSS Version 0.9.1 bugfix July 2018 build 013d7b7c2542+ Fri, 06 Jul 2018 19:26:36 +0100
REM compiler GCC version 9.2.1 20190827 (Red Hat 9.2.1-1)
REM options -cpp -mtune=generic -march=x86-64 -g -O0 -fpre-include=/usr/include/finclude/math-vector-fortran.h
REM seed -1686435162 -704398367 672827494 2090988117 1150710113 -90911389 -976641017 -2136049814 1172920858 283095726 87257734 168582819 -1976192348 -742086550 587664115 1414696069 1417665058 -1385492585 -95091830 -1700694686 1984632628 726395179 -1866737544 -1856888712 -1237786814 -1559687055 296101553 2063966101 80016695 -775689296 1593943284 -681023814 404523298
REM
CELL 1.54180   50.00000   50.00000   50.00000   90.00000   90.00000   90.00000
LATT -1
SFAC C  
C      1  0.5403080000000  0.4474080000000  0.5573750000000 1.0
C      1  0.4773500000000  0.5307880000000  0.5759120000000 1.0
C      1  0.5922910000000  0.5185230000000  0.5482380000000 1.0
C      1  0.4824650000000  0.4651530000000  0.5612880000000 1.0
C      1  0.5287690000000  0.5311670000000  0.5672120000000 1.0
C      1  0.5565990000000  0.5126010000000  0.4320690000000 1.0
C      1  0.5132040000000  0.5369890000000  0.4244310000000 1.0
C      1  0.5642060000000  0.4329790000000  0.5046080000000 1.0
C      1  0.6124900000000  0.5095390000000  0.5620360000000 1.0
C      1  0.4548120000000  0.5560130000000  0.4804640000000 1.0
C      1  0.5253620000000  0.4117000000000  0.4782510000000 1.0
C      1  0.5125750000000  0.4794610000000  0.4979250000000 1.0
C      1  0.4623820000000  0.5289830000000  0.4317700000000 1.0
C      1  0.5202270000000  0.4770710000000  0.5256920000000 1.0
C      1  0.4851860000000  0.5710850000000  0.5278190000000 1.0
C      1  0.4989570000000  0.4635640000000  0.4287470000000 1.0
C      1  0.4209060000000  0.5151760000000  0.4754190000000 1.0
C      1  0.4705400000000  0.5477770000000  0.5224680000000 1.0
C      1  0.5223370000000  0.4795600000000  0.4278770000000 1.0
C      1  0.4859580000000  0.5918490000000  0.5084620000000 1.0
C      1  0.5281780000000  0.4072620000000  0.5261550000000 1.0
C      1  0.5361980000000  0.4600260000000  0.5822420000000 1.0
C      1  0.5303680000000  0.4822580000000  0.4554980000000 1.0
C      1  0.5440770000000  0.4644090000000  0.5343340000000 1.0
C      1  0.4401870000000  0.4987570000000  0.4616980000000 1.0
C      1  0.5782690000000  0.5015040000000  0.4882380000000 1.0
C      1  0.4587710000000  0.4402470000000  0.4669750000000 1.0
C      1  0.4096230000000  0.4787610000000  0.5070750000000 1.0
C      1  0.4874640000000  0.3786050000000  0.5330570000000 1.0
C      1  0.4345810000000  0.5560720000000  0.5562640000000 1.0
C      1  0.5423150000000  0.4159400000000  0.5019160000000 1.0
C      1  0.4266360000000  0.4676210000000  0.5293830000000 1.0
C      1  0.5718760000000  0.4959820000000  0.4594930000000 1.0
C      1  0.5820690000000  0.4778700000000  0.5038580000000 1.0
C      1  0.4774120000000  0.4781830000000  0.4419010000000 1.0
C      1  0.5205130000000  0.5721250000000  0.4811350000000 1.0
C      1  0.4359500000000  0.4820550000000  0.5525660000000 1.0
C      1  0.5699240000000  0.5266040000000  0.5337460000000 1.0
C      1  0.4847020000000  0.5951600000000  0.4566670000000 1.0
C      1  0.4341490000000  0.5105940000000  0.5499320000000 1.0
C      1  0.5510410000000  0.4886020000000  0.3881660000000 1.0
C      1  0.4175200000000  0.5505490000000  0.5348530000000 1.0
C      1  0.5416000000000  0.5372810000000  0.4312870000000 1.0
C      1  0.4809530000000  0.5087180000000  0.5947500000000 1.0
C      1  0.5017990000000  0.4355020000000  0.4403100000000 1.0
C      1  0.5509270000000  0.5619760000000  0.4409060000000 1.0
C      1  0.5225270000000  0.4962380000000  0.4781170000000 1.0
C      1  0.5066160000000  0.5648990000000  0.5452870000000 1.0
C      1  0.5055230000000  0.5444230000000  0.4759760000000 1.0
C      1  0.4597050000000  0.4894880000000  0.5946430000000 1.0
C      1  0.4476790000000  0.4548300000000  0.5135730000000 1.0
C      1  0.4770230000000  0.4947410000000  0.5276440000000 1.0
C      1  0.5268570000000  0.4280730000000  0.4548390000000 1.0
C      1  0.5330610000000  0.5616430000000  0.5330510000000 1.0
C      1  0.5247110000000  0.4792340000000  0.5970870000000 1.0
C      1  0.5435750000000  0.4930490000000  0.4139400000000 1.0
C      1  0.4861940000000  0.5461170000000  0.4287450000000 1.0
C      1  0.4977910000000  0.4816380000000  0.5432870000000 1.0
C      1  0.4614280000000  0.5015720000000  0.4419360000000 1.0
C      1  0.4746100000000  0.4644030000000  0.4668310000000 1.0
C      1  0.5476210000000  0.5396630000000  0.5467910000000 1.0
C      1  0.4178940000000  0.5372560000000  0.4567750000000 1.0
C      1  0.4124380000000  0.4583610000000  0.4855880000000 1.0
C      1  0.5681140000000  0.5229410000000  0.5049180000000 1.0
C      1  0.4778680000000  0.5440900000000  0.4769550000000 1.0
C      1  0.4380060000000  0.4439060000000  0.4872970000000 1.0
C      1  0.5335600000000  0.4206790000000  0.5504040000000 1.0
C      1  0.4730390000000  0.5212820000000  0.5216360000000 1.0
C      1  0.5460910000000  0.5364540000000  0.4946870000000 1.0
C      1  0.5019770000000  0.5436670000000  0.5659710000000 1.0
C      1  0.4737530000000  0.6194930000000  0.4504900000000 1.0
C      1  0.4565650000000  0.4733680000000  0.5713020000000 1.0
C      1  0.5049100000000  0.3923420000000  0.5175210000000 1.0
C      1  0.4838520000000  0.5736780000000  0.4375230000000 1.0
C      1  0.4132760000000  0.5074520000000  0.5025640000000 1.0
C      1  0.5398200000000  0.5782700000000  0.4592530000000 1.0
C      1  0.4183610000000  0.5225670000000  0.5268900000000 1.0
C      1  0.5039720000000  0.3952260000000  0.4887380000000 1.0
C      1  0.4757880000000  0.4237430000000  0.4497940000000 1.0
C      1  0.5655400000000  0.4587170000000  0.5160340000000 1.0
C      1  0.4972970000000  0.5909980000000  0.4823920000000 1.0
C      1  0.5518410000000  0.4430250000000  0.4523450000000 1.0
C      1  0.4870570000000  0.4697020000000  0.4908240000000 1.0
C      1  0.4363590000000  0.5418520000000  0.4364900000000 1.0
C      1  0.5569390000000  0.4707410000000  0.4574410000000 1.0
C      1  0.4688060000000  0.4732130000000  0.5111780000000 1.0
C      1  0.4499070000000  0.5325040000000  0.5645770000000 1.0
C      1  0.5373720000000  0.5625010000000  0.5050220000000 1.0
C      1  0.5243760000000  0.5237090000000  0.4812240000000 1.0
C      1  0.5062760000000  0.4982030000000  0.6019560000000 1.0
END
