TITL C-627107-135-728 21.8176117128178 125000 -1227.38651239885 0 0 199 (C1) n - 1
REM
REM in /home/nfs/bkarasulu/CARBON/AIRSS/Generating-Clusters/LCBOP/Only-C1/SD-CG/FIRE-CG
REM
REM
REM
REM
REM
REM ./C.cell (11c1c37f851c82e70ff6c80c92926a4b)
REM AIRSS Version 0.9.1 bugfix July 2018 build 013d7b7c2542+ Fri, 06 Jul 2018 19:26:36 +0100
REM compiler GCC version 9.2.1 20190827 (Red Hat 9.2.1-1)
REM options -cpp -mtune=generic -march=x86-64 -g -O0 -fpre-include=/usr/include/finclude/math-vector-fortran.h
REM seed 1178756836 -839263306 -2106876416 1207722978 -2036577318 -729979060 -352193771 -573818009 764144313 -90001463 1167760081 1377441744 -497670157 2116734180 -1959319344 663794189 -429392616 -691171515 -1415858834 -1643254993 1220560502 -1626719459 994317294 1340807455 494295703 -519040243 1271958700 -1663836991 -1037565820 -228011122 -924965922 1878869212 221133288
REM
CELL 1.54180   50.00000   50.00000   50.00000   90.00000   90.00000   90.00000
LATT -1
SFAC C  
C      1  0.4898130000000  0.5721620000000  0.4693280000000 1.0
C      1  0.5899750000000  0.4774890000000  0.5136950000000 1.0
C      1  0.3940060000000  0.5016490000000  0.5375900000000 1.0
C      1  0.5053250000000  0.4754670000000  0.4492520000000 1.0
C      1  0.4806200000000  0.4407280000000  0.6147100000000 1.0
C      1  0.5048080000000  0.4771010000000  0.4999890000000 1.0
C      1  0.3748020000000  0.5545970000000  0.4425800000000 1.0
C      1  0.5686660000000  0.5340300000000  0.5342070000000 1.0
C      1  0.6228340000000  0.5923580000000  0.5124020000000 1.0
C      1  0.4595620000000  0.4681810000000  0.3992710000000 1.0
C      1  0.4861830000000  0.6113460000000  0.5434950000000 1.0
C      1  0.5950920000000  0.4674880000000  0.5607130000000 1.0
C      1  0.3923660000000  0.5471520000000  0.5049610000000 1.0
C      1  0.4815300000000  0.4325980000000  0.4981460000000 1.0
C      1  0.4442110000000  0.5456410000000  0.4887610000000 1.0
C      1  0.5327400000000  0.3827330000000  0.5110210000000 1.0
C      1  0.5253530000000  0.5164310000000  0.5193400000000 1.0
C      1  0.5363080000000  0.4962980000000  0.5394410000000 1.0
C      1  0.5457040000000  0.4566920000000  0.5693650000000 1.0
C      1  0.5697920000000  0.5755730000000  0.5618710000000 1.0
C      1  0.4210690000000  0.4819170000000  0.4871940000000 1.0
C      1  0.5297300000000  0.4637000000000  0.4598690000000 1.0
C      1  0.5030150000000  0.4739180000000  0.3771150000000 1.0
C      1  0.4578820000000  0.5503420000000  0.5136920000000 1.0
C      1  0.4622640000000  0.4745220000000  0.5550510000000 1.0
C      1  0.4497690000000  0.4130660000000  0.5805160000000 1.0
C      1  0.4796990000000  0.3778450000000  0.5215770000000 1.0
C      1  0.5313310000000  0.5544220000000  0.4590320000000 1.0
C      1  0.3577870000000  0.5259810000000  0.4770760000000 1.0
C      1  0.4366790000000  0.5378170000000  0.5924090000000 1.0
C      1  0.3953130000000  0.4666800000000  0.4222370000000 1.0
C      1  0.5675650000000  0.4718820000000  0.4134700000000 1.0
C      1  0.4521510000000  0.6000020000000  0.5061140000000 1.0
C      1  0.5798920000000  0.4036470000000  0.5112740000000 1.0
C      1  0.4736600000000  0.5782910000000  0.4255510000000 1.0
C      1  0.4938900000000  0.4056020000000  0.5600010000000 1.0
C      1  0.5351760000000  0.3758490000000  0.4842760000000 1.0
C      1  0.5807970000000  0.6194880000000  0.5266840000000 1.0
C      1  0.3637060000000  0.5291230000000  0.4497010000000 1.0
C      1  0.4630880000000  0.4384330000000  0.3981900000000 1.0
C      1  0.3749380000000  0.5252580000000  0.4993120000000 1.0
C      1  0.4763650000000  0.6292400000000  0.4731130000000 1.0
C      1  0.4978520000000  0.4520550000000  0.5109650000000 1.0
C      1  0.5579580000000  0.4433180000000  0.4940960000000 1.0
C      1  0.4049820000000  0.5189690000000  0.5575930000000 1.0
C      1  0.4442940000000  0.4903900000000  0.5720550000000 1.0
C      1  0.3837950000000  0.5004600000000  0.5107640000000 1.0
C      1  0.4378200000000  0.5875740000000  0.5916400000000 1.0
C      1  0.5106560000000  0.5612830000000  0.6003130000000 1.0
C      1  0.5447490000000  0.6012590000000  0.4544950000000 1.0
C      1  0.5642860000000  0.5226770000000  0.4835780000000 1.0
C      1  0.5359820000000  0.5774360000000  0.4412070000000 1.0
C      1  0.4818580000000  0.4905750000000  0.4900110000000 1.0
C      1  0.5488980000000  0.4986100000000  0.4815890000000 1.0
C      1  0.6156450000000  0.5009990000000  0.4668740000000 1.0
C      1  0.3769850000000  0.4787150000000  0.4416450000000 1.0
C      1  0.6137740000000  0.4633590000000  0.5049520000000 1.0
C      1  0.4722730000000  0.6180970000000  0.5670430000000 1.0
C      1  0.4996060000000  0.4591990000000  0.6173000000000 1.0
C      1  0.4963170000000  0.4106070000000  0.4892030000000 1.0
C      1  0.4612290000000  0.3948130000000  0.4263260000000 1.0
C      1  0.5133550000000  0.4197090000000  0.5444390000000 1.0
C      1  0.5108460000000  0.5771350000000  0.3770980000000 1.0
C      1  0.5592050000000  0.5121780000000  0.5525750000000 1.0
C      1  0.4994640000000  0.4638880000000  0.4243640000000 1.0
C      1  0.4868960000000  0.5657900000000  0.3816820000000 1.0
C      1  0.6110390000000  0.5582200000000  0.4750150000000 1.0
C      1  0.5186120000000  0.5122610000000  0.5766000000000 1.0
C      1  0.5772620000000  0.4235550000000  0.5546890000000 1.0
C      1  0.4764630000000  0.5170880000000  0.5855600000000 1.0
C      1  0.4133420000000  0.4874390000000  0.4122280000000 1.0
C      1  0.4752900000000  0.5574180000000  0.4061600000000 1.0
C      1  0.5916360000000  0.5760300000000  0.4628900000000 1.0
C      1  0.5265350000000  0.6362030000000  0.4859710000000 1.0
C      1  0.5360380000000  0.4031450000000  0.5320070000000 1.0
C      1  0.5547980000000  0.5285430000000  0.4308700000000 1.0
C      1  0.5794260000000  0.5240850000000  0.5096420000000 1.0
C      1  0.4335170000000  0.3685340000000  0.5365060000000 1.0
C      1  0.5592690000000  0.4319160000000  0.5751350000000 1.0
C      1  0.4313050000000  0.4955160000000  0.4643290000000 1.0
C      1  0.4912020000000  0.4323960000000  0.3911190000000 1.0
C      1  0.4400130000000  0.5197300000000  0.4464930000000 1.0
C      1  0.5116860000000  0.4464350000000  0.3740560000000 1.0
C      1  0.5043520000000  0.5483730000000  0.4660400000000 1.0
C      1  0.4159260000000  0.5326300000000  0.4337730000000 1.0
C      1  0.4885490000000  0.3859210000000  0.4291340000000 1.0
C      1  0.4849700000000  0.5830650000000  0.5372500000000 1.0
C      1  0.5811290000000  0.5171760000000  0.5992400000000 1.0
C      1  0.6165940000000  0.4427950000000  0.5252010000000 1.0
C      1  0.5725510000000  0.4807940000000  0.4398550000000 1.0
C      1  0.5305420000000  0.5165400000000  0.4209780000000 1.0
C      1  0.4554480000000  0.3887130000000  0.5352810000000 1.0
C      1  0.5005290000000  0.5043910000000  0.5966760000000 1.0
C      1  0.5031250000000  0.4472050000000  0.5386290000000 1.0
C      1  0.4355140000000  0.4711390000000  0.5087780000000 1.0
C      1  0.4419100000000  0.3805150000000  0.4419540000000 1.0
C      1  0.4199720000000  0.3659760000000  0.5123940000000 1.0
C      1  0.5764660000000  0.3761820000000  0.3841320000000 1.0
C      1  0.6257200000000  0.4799040000000  0.4844810000000 1.0
C      1  0.4865590000000  0.3840810000000  0.4949330000000 1.0
C      1  0.3955090000000  0.5463160000000  0.5564100000000 1.0
C      1  0.5140050000000  0.5736060000000  0.5742640000000 1.0
C      1  0.4428070000000  0.4356860000000  0.4425710000000 1.0
C      1  0.4639830000000  0.5770800000000  0.5193730000000 1.0
C      1  0.4162540000000  0.5495150000000  0.4902060000000 1.0
C      1  0.3906520000000  0.5572960000000  0.5310590000000 1.0
C      1  0.5347880000000  0.4410140000000  0.4764410000000 1.0
C      1  0.4552220000000  0.5116920000000  0.4207670000000 1.0
C      1  0.5331160000000  0.5814230000000  0.3913520000000 1.0
C      1  0.5439940000000  0.5900940000000  0.5068450000000 1.0
C      1  0.6075290000000  0.6120600000000  0.5221460000000 1.0
C      1  0.4274710000000  0.5142250000000  0.5757230000000 1.0
C      1  0.5750990000000  0.5618290000000  0.5856540000000 1.0
C      1  0.3773090000000  0.4722950000000  0.4691610000000 1.0
C      1  0.4236630000000  0.5632660000000  0.5904270000000 1.0
C      1  0.3933750000000  0.4412380000000  0.4128170000000 1.0
C      1  0.5598440000000  0.3953370000000  0.3901270000000 1.0
C      1  0.5352730000000  0.5508730000000  0.6120740000000 1.0
C      1  0.5977220000000  0.4911970000000  0.4471070000000 1.0
C      1  0.4949630000000  0.6160540000000  0.4556570000000 1.0
C      1  0.4000880000000  0.5123970000000  0.4208460000000 1.0
C      1  0.5678290000000  0.4908450000000  0.5944180000000 1.0
C      1  0.5046780000000  0.5198400000000  0.4139720000000 1.0
C      1  0.5762580000000  0.4880490000000  0.5656590000000 1.0
C      1  0.5136330000000  0.6385750000000  0.5097720000000 1.0
C      1  0.4536800000000  0.4285500000000  0.4938010000000 1.0
C      1  0.5565280000000  0.4606540000000  0.3917110000000 1.0
C      1  0.4576840000000  0.5343280000000  0.4657930000000 1.0
C      1  0.4730450000000  0.5228190000000  0.5560100000000 1.0
C      1  0.5122140000000  0.4927050000000  0.5562380000000 1.0
C      1  0.5765360000000  0.4218510000000  0.4915590000000 1.0
C      1  0.5478030000000  0.4678110000000  0.5396070000000 1.0
C      1  0.5251640000000  0.4982920000000  0.4969980000000 1.0
C      1  0.6246750000000  0.5708740000000  0.4964790000000 1.0
C      1  0.5391640000000  0.4402260000000  0.3823050000000 1.0
C      1  0.4641840000000  0.5374920000000  0.6009520000000 1.0
C      1  0.5302000000000  0.5973710000000  0.5736580000000 1.0
C      1  0.4861680000000  0.5265030000000  0.4627570000000 1.0
C      1  0.5700900000000  0.6222580000000  0.5528080000000 1.0
C      1  0.4662640000000  0.5268180000000  0.5280100000000 1.0
C      1  0.5414200000000  0.5666890000000  0.5215250000000 1.0
C      1  0.5199490000000  0.4169650000000  0.4749690000000 1.0
C      1  0.5992130000000  0.4418680000000  0.5486600000000 1.0
C      1  0.3974960000000  0.5625080000000  0.5794970000000 1.0
C      1  0.5459090000000  0.5725370000000  0.4145320000000 1.0
C      1  0.5486440000000  0.4038570000000  0.6197840000000 1.0
C      1  0.4655130000000  0.4025850000000  0.5594630000000 1.0
C      1  0.4540990000000  0.6071870000000  0.5835310000000 1.0
C      1  0.6165490000000  0.5300440000000  0.4699050000000 1.0
C      1  0.4016480000000  0.5565920000000  0.4379540000000 1.0
C      1  0.4718420000000  0.3691050000000  0.4762520000000 1.0
C      1  0.6086280000000  0.5131600000000  0.5489930000000 1.0
C      1  0.5728970000000  0.5959450000000  0.4604970000000 1.0
C      1  0.3959470000000  0.4123510000000  0.5775230000000 1.0
C      1  0.4295900000000  0.3840890000000  0.4920290000000 1.0
C      1  0.4925940000000  0.4707670000000  0.5540180000000 1.0
C      1  0.4852310000000  0.5903130000000  0.4483060000000 1.0
C      1  0.4219130000000  0.4119160000000  0.5796990000000 1.0
C      1  0.6036490000000  0.5198590000000  0.5766580000000 1.0
C      1  0.5420920000000  0.4154410000000  0.3971160000000 1.0
C      1  0.4482170000000  0.4658190000000  0.5316980000000 1.0
C      1  0.4535500000000  0.4221840000000  0.4201290000000 1.0
C      1  0.4418350000000  0.4065820000000  0.5064020000000 1.0
C      1  0.5518270000000  0.4813610000000  0.4594790000000 1.0
C      1  0.4688990000000  0.5052840000000  0.5098760000000 1.0
C      1  0.4699640000000  0.6216520000000  0.4997160000000 1.0
C      1  0.5548790000000  0.4173090000000  0.5983550000000 1.0
C      1  0.4897180000000  0.6275090000000  0.5201140000000 1.0
C      1  0.4774800000000  0.5290660000000  0.4126130000000 1.0
C      1  0.5235900000000  0.6196280000000  0.4628120000000 1.0
C      1  0.5159510000000  0.3925410000000  0.4352870000000 1.0
C      1  0.5244500000000  0.4146440000000  0.4194400000000 1.0
C      1  0.5275240000000  0.3922290000000  0.4616100000000 1.0
C      1  0.4417970000000  0.4884230000000  0.4081510000000 1.0
C      1  0.3746830000000  0.5070690000000  0.4350310000000 1.0
C      1  0.5147440000000  0.4801740000000  0.6064060000000 1.0
C      1  0.4252360000000  0.6029030000000  0.5023650000000 1.0
C      1  0.5650670000000  0.4070620000000  0.5352930000000 1.0
C      1  0.3763070000000  0.5756260000000  0.5904730000000 1.0
C      1  0.5568720000000  0.6008350000000  0.5653400000000 1.0
C      1  0.5049770000000  0.4357550000000  0.4181700000000 1.0
C      1  0.5632640000000  0.5499180000000  0.4139170000000 1.0
C      1  0.5541000000000  0.5366790000000  0.4595710000000 1.0
C      1  0.5420730000000  0.4750030000000  0.5941330000000 1.0
C      1  0.5642670000000  0.4626610000000  0.5155720000000 1.0
C      1  0.5616750000000  0.6103690000000  0.5080700000000 1.0
C      1  0.5038700000000  0.5643920000000  0.5481070000000 1.0
C      1  0.5974590000000  0.5041700000000  0.5214320000000 1.0
C      1  0.3927000000000  0.4818880000000  0.4908970000000 1.0
C      1  0.4901160000000  0.4975100000000  0.4629330000000 1.0
C      1  0.4432640000000  0.4373650000000  0.4691640000000 1.0
C      1  0.5590300000000  0.5391820000000  0.5964210000000 1.0
C      1  0.4627560000000  0.4256840000000  0.6019910000000 1.0
C      1  0.5637730000000  0.5609690000000  0.5384160000000 1.0
C      1  0.4447280000000  0.3747300000000  0.4693730000000 1.0
C      1  0.4839740000000  0.5560900000000  0.6096380000000 1.0
C      1  0.5432590000000  0.5250820000000  0.5746140000000 1.0
C      1  0.4875980000000  0.4769260000000  0.4012060000000 1.0
C      1  0.5197760000000  0.5478440000000  0.5279440000000 1.0
END
