TITL C-627106-156-361 -444.111072282615 125000 -961.082851675394 0 0 157 (C1) n - 1
REM
REM in /home/nfs/bkarasulu/CARBON/AIRSS/Generating-Clusters/LCBOP/Only-C1/SD-CG/FIRE-CG
REM
REM
REM
REM
REM
REM ./C.cell (11c1c37f851c82e70ff6c80c92926a4b)
REM AIRSS Version 0.9.1 bugfix July 2018 build 013d7b7c2542+ Fri, 06 Jul 2018 19:26:36 +0100
REM compiler GCC version 9.2.1 20190827 (Red Hat 9.2.1-1)
REM options -cpp -mtune=generic -march=x86-64 -g -O0 -fpre-include=/usr/include/finclude/math-vector-fortran.h
REM seed -2110450386 1218360969 743722118 1683819924 -1693771887 1747157464 1884657758 1182885606 646975402 1000052861 598488825 1619198213 -44817640 66716127 1983842254 1979214794 -1800627010 1420309434 -315488192 -969534789 -33214917 1219596292 -1290282214 -984224909 1890351834 801366337 1644559053 -89484810 1006588871 -666352527 1201866848 1664988988 445068832
REM
CELL 1.54180   50.00000   50.00000   50.00000   90.00000   90.00000   90.00000
LATT -1
SFAC C  
C      1  0.5103620000000  0.4967350000000  0.4661400000000 1.0
C      1  0.4774440000000  0.5917490000000  0.4798890000000 1.0
C      1  0.5666160000000  0.4573440000000  0.4404820000000 1.0
C      1  0.5744050000000  0.5588810000000  0.5053120000000 1.0
C      1  0.4398800000000  0.5625800000000  0.5860680000000 1.0
C      1  0.3844400000000  0.5259050000000  0.4477140000000 1.0
C      1  0.4145550000000  0.4885360000000  0.4317340000000 1.0
C      1  0.4483870000000  0.5282830000000  0.4426960000000 1.0
C      1  0.5172150000000  0.3970510000000  0.4621100000000 1.0
C      1  0.5282630000000  0.4955170000000  0.5455350000000 1.0
C      1  0.4670070000000  0.5846260000000  0.5503270000000 1.0
C      1  0.4484680000000  0.5839790000000  0.4764330000000 1.0
C      1  0.6048740000000  0.4701410000000  0.5298130000000 1.0
C      1  0.5952560000000  0.5489700000000  0.4439920000000 1.0
C      1  0.4862260000000  0.4268570000000  0.4230390000000 1.0
C      1  0.4999010000000  0.4359180000000  0.4963810000000 1.0
C      1  0.5345380000000  0.4905520000000  0.4553640000000 1.0
C      1  0.5377620000000  0.3957010000000  0.5866170000000 1.0
C      1  0.5421610000000  0.5162730000000  0.5599490000000 1.0
C      1  0.4257630000000  0.5231510000000  0.5597940000000 1.0
C      1  0.5296530000000  0.4236220000000  0.4520010000000 1.0
C      1  0.5326450000000  0.5406140000000  0.5694130000000 1.0
C      1  0.6006070000000  0.5505170000000  0.5723970000000 1.0
C      1  0.4925530000000  0.4953410000000  0.5991420000000 1.0
C      1  0.4060010000000  0.4980210000000  0.5585760000000 1.0
C      1  0.4689180000000  0.5758960000000  0.5235320000000 1.0
C      1  0.4865310000000  0.4464800000000  0.5211240000000 1.0
C      1  0.6056890000000  0.5528830000000  0.4687420000000 1.0
C      1  0.4347510000000  0.4463550000000  0.4511810000000 1.0
C      1  0.5703100000000  0.5155730000000  0.5550590000000 1.0
C      1  0.4203940000000  0.6060740000000  0.3383860000000 1.0
C      1  0.5493120000000  0.3716390000000  0.5274790000000 1.0
C      1  0.5595070000000  0.4284300000000  0.4434750000000 1.0
C      1  0.4404750000000  0.4889390000000  0.5893570000000 1.0
C      1  0.5945140000000  0.4482020000000  0.5139520000000 1.0
C      1  0.5587530000000  0.5185370000000  0.4840880000000 1.0
C      1  0.4715980000000  0.4118580000000  0.4427570000000 1.0
C      1  0.4745120000000  0.5275490000000  0.4533330000000 1.0
C      1  0.4859230000000  0.4935410000000  0.4214170000000 1.0
C      1  0.4416290000000  0.5465070000000  0.4227400000000 1.0
C      1  0.4415100000000  0.5776720000000  0.5621530000000 1.0
C      1  0.6124930000000  0.5186870000000  0.5034800000000 1.0
C      1  0.4555180000000  0.5535090000000  0.5148550000000 1.0
C      1  0.6063020000000  0.4405970000000  0.4887020000000 1.0
C      1  0.5282160000000  0.4703950000000  0.5588930000000 1.0
C      1  0.5738770000000  0.5363760000000  0.4296290000000 1.0
C      1  0.4184680000000  0.6102400000000  0.4393610000000 1.0
C      1  0.4924590000000  0.3965970000000  0.5984930000000 1.0
C      1  0.5451570000000  0.4559840000000  0.3904800000000 1.0
C      1  0.4051320000000  0.4771670000000  0.4782210000000 1.0
C      1  0.6165280000000  0.4802920000000  0.5767390000000 1.0
C      1  0.5781330000000  0.4535290000000  0.5665810000000 1.0
C      1  0.4860450000000  0.5449890000000  0.4713590000000 1.0
C      1  0.4943950000000  0.5938630000000  0.4566450000000 1.0
C      1  0.5096800000000  0.5721250000000  0.4114700000000 1.0
C      1  0.5603890000000  0.5776190000000  0.5236300000000 1.0
C      1  0.4308940000000  0.5077550000000  0.4504880000000 1.0
C      1  0.5172240000000  0.5256900000000  0.3957230000000 1.0
C      1  0.5649380000000  0.4755240000000  0.3947660000000 1.0
C      1  0.5285440000000  0.3843170000000  0.4852510000000 1.0
C      1  0.4369850000000  0.5601720000000  0.4005350000000 1.0
C      1  0.4350840000000  0.5347320000000  0.5862890000000 1.0
C      1  0.5548440000000  0.5051740000000  0.5085200000000 1.0
C      1  0.5091540000000  0.3878910000000  0.6206820000000 1.0
C      1  0.5525320000000  0.4526290000000  0.4878860000000 1.0
C      1  0.6007500000000  0.5459860000000  0.4967920000000 1.0
C      1  0.4338250000000  0.5963430000000  0.4558800000000 1.0
C      1  0.4505480000000  0.5086400000000  0.5450490000000 1.0
C      1  0.5046330000000  0.4108700000000  0.5505860000000 1.0
C      1  0.5657480000000  0.4460050000000  0.5123990000000 1.0
C      1  0.4882790000000  0.5433680000000  0.6102340000000 1.0
C      1  0.5491920000000  0.5513330000000  0.4259670000000 1.0
C      1  0.4109680000000  0.4633710000000  0.4521400000000 1.0
C      1  0.4185970000000  0.5834060000000  0.5177370000000 1.0
C      1  0.5650930000000  0.5754790000000  0.5515520000000 1.0
C      1  0.5435020000000  0.6169150000000  0.5009750000000 1.0
C      1  0.4655070000000  0.3995850000000  0.5982720000000 1.0
C      1  0.5286770000000  0.4393270000000  0.4032000000000 1.0
C      1  0.4061560000000  0.4931300000000  0.5280200000000 1.0
C      1  0.5722680000000  0.4636500000000  0.4679920000000 1.0
C      1  0.5440190000000  0.5648000000000  0.5668610000000 1.0
C      1  0.5090430000000  0.4930640000000  0.4950870000000 1.0
C      1  0.4439780000000  0.4195320000000  0.4475350000000 1.0
C      1  0.3544420000000  0.4067180000000  0.6279880000000 1.0
C      1  0.4360860000000  0.4818320000000  0.4113040000000 1.0
C      1  0.4818750000000  0.3941410000000  0.5115630000000 1.0
C      1  0.4136610000000  0.4823490000000  0.5815550000000 1.0
C      1  0.3895580000000  0.5052980000000  0.4301080000000 1.0
C      1  0.5262330000000  0.4408330000000  0.4798550000000 1.0
C      1  0.5920910000000  0.5237830000000  0.5721130000000 1.0
C      1  0.5283920000000  0.4971180000000  0.5163160000000 1.0
C      1  0.4677540000000  0.4675840000000  0.5189120000000 1.0
C      1  0.6027240000000  0.4646640000000  0.5580730000000 1.0
C      1  0.4954450000000  0.5915510000000  0.5553930000000 1.0
C      1  0.4721090000000  0.4706170000000  0.4725780000000 1.0
C      1  0.4638220000000  0.5279990000000  0.5236620000000 1.0
C      1  0.5750340000000  0.5067260000000  0.5286280000000 1.0
C      1  0.3685390000000  0.4256160000000  0.6168620000000 1.0
C      1  0.6195540000000  0.4843780000000  0.4687030000000 1.0
C      1  0.4263580000000  0.5904600000000  0.3583920000000 1.0
C      1  0.5145440000000  0.4298290000000  0.4257140000000 1.0
C      1  0.6009430000000  0.4984690000000  0.5213800000000 1.0
C      1  0.4373310000000  0.4871430000000  0.5237060000000 1.0
C      1  0.4121650000000  0.5427640000000  0.5416480000000 1.0
C      1  0.5350590000000  0.5585310000000  0.4737440000000 1.0
C      1  0.4321050000000  0.5748010000000  0.3789900000000 1.0
C      1  0.5561800000000  0.5464770000000  0.4866920000000 1.0
C      1  0.5775150000000  0.4885740000000  0.3744330000000 1.0
C      1  0.5907090000000  0.5733200000000  0.5624850000000 1.0
C      1  0.3829410000000  0.4447490000000  0.6055010000000 1.0
C      1  0.6008190000000  0.4642150000000  0.4727570000000 1.0
C      1  0.4958090000000  0.4381630000000  0.5468070000000 1.0
C      1  0.3934060000000  0.5394260000000  0.4695300000000 1.0
C      1  0.5028470000000  0.5851290000000  0.5818830000000 1.0
C      1  0.6269550000000  0.5064460000000  0.4821870000000 1.0
C      1  0.4731300000000  0.4471420000000  0.4081660000000 1.0
C      1  0.4809610000000  0.4852500000000  0.4978420000000 1.0
C      1  0.4905820000000  0.5051530000000  0.4472680000000 1.0
C      1  0.5371020000000  0.5683770000000  0.4474350000000 1.0
C      1  0.5517050000000  0.4573380000000  0.5666140000000 1.0
C      1  0.4318840000000  0.5654630000000  0.4963160000000 1.0
C      1  0.5092630000000  0.5520440000000  0.4822060000000 1.0
C      1  0.4975170000000  0.5668710000000  0.6010370000000 1.0
C      1  0.5377390000000  0.5954720000000  0.5175170000000 1.0
C      1  0.5358530000000  0.3875640000000  0.6130800000000 1.0
C      1  0.5574090000000  0.5056130000000  0.4592290000000 1.0
C      1  0.4401500000000  0.5020100000000  0.4976280000000 1.0
C      1  0.5707740000000  0.4804060000000  0.4221550000000 1.0
C      1  0.5715320000000  0.5075780000000  0.4343730000000 1.0
C      1  0.5007710000000  0.5049730000000  0.4004240000000 1.0
C      1  0.4765800000000  0.5177420000000  0.6077980000000 1.0
C      1  0.3975910000000  0.4635770000000  0.5939940000000 1.0
C      1  0.5050490000000  0.3928390000000  0.5280670000000 1.0
C      1  0.4641120000000  0.4728470000000  0.4204690000000 1.0
C      1  0.4667460000000  0.5109750000000  0.5007010000000 1.0
C      1  0.4878680000000  0.5898260000000  0.5072200000000 1.0
C      1  0.5130400000000  0.5829920000000  0.4380810000000 1.0
C      1  0.5282220000000  0.3826560000000  0.5139800000000 1.0
C      1  0.5995600000000  0.4167690000000  0.4744810000000 1.0
C      1  0.4032660000000  0.6235280000000  0.4228700000000 1.0
C      1  0.4481550000000  0.5146270000000  0.6021950000000 1.0
C      1  0.5101760000000  0.5939990000000  0.5274790000000 1.0
C      1  0.3937620000000  0.4772650000000  0.5048740000000 1.0
C      1  0.4600180000000  0.4879550000000  0.5669710000000 1.0
C      1  0.4196060000000  0.5709390000000  0.5435540000000 1.0
C      1  0.4241040000000  0.4990020000000  0.4762940000000 1.0
C      1  0.6088180000000  0.5048290000000  0.5842740000000 1.0
C      1  0.4853720000000  0.4793040000000  0.5763170000000 1.0
C      1  0.4880510000000  0.4014630000000  0.4634800000000 1.0
C      1  0.5112890000000  0.4017030000000  0.5761690000000 1.0
C      1  0.5804600000000  0.4125430000000  0.4553460000000 1.0
C      1  0.5024010000000  0.4601980000000  0.5639130000000 1.0
C      1  0.5275080000000  0.5496640000000  0.4060170000000 1.0
C      1  0.4581070000000  0.4637110000000  0.4496940000000 1.0
C      1  0.4840420000000  0.4118010000000  0.4896470000000 1.0
C      1  0.4092740000000  0.5435440000000  0.4929160000000 1.0
C      1  0.4043670000000  0.5290870000000  0.5178070000000 1.0
END
