TITL C-627107-135-1848 67778.4503922582 125000 -1246.70339209523 0 0 200 (C1) n - 1
REM
REM in /home/nfs/bkarasulu/CARBON/AIRSS/Generating-Clusters/LCBOP/Only-C1/SD-CG/FIRE-CG
REM
REM
REM
REM
REM
REM ./C.cell (11c1c37f851c82e70ff6c80c92926a4b)
REM AIRSS Version 0.9.1 bugfix July 2018 build 013d7b7c2542+ Fri, 06 Jul 2018 19:26:36 +0100
REM compiler GCC version 9.2.1 20190827 (Red Hat 9.2.1-1)
REM options -cpp -mtune=generic -march=x86-64 -g -O0 -fpre-include=/usr/include/finclude/math-vector-fortran.h
REM seed -783384358 -1370546766 -1242877293 1103649374 968661980 1255110791 -975920152 864662307 1737105160 861266111 -1423134700 133343996 452299063 1673794596 1434248448 -13991259 -1066165285 161494097 930061225 -1980098289 -65278894 404093063 2101345997 -285096537 632614145 1559385969 1869603727 573553677 -1660625582 2106849490 2045226103 -813355539 1979222676
REM
CELL 1.54180   50.00000   50.00000   50.00000   90.00000   90.00000   90.00000
LATT -1
SFAC C  
C      1  0.3870020000000  0.5842250000000  0.5295840000000 1.0
C      1  0.5601970000000  0.4767850000000  0.4834350000000 1.0
C      1  0.5900190000000  0.4050260000000  0.5382460000000 1.0
C      1  0.5694210000000  0.4402370000000  0.5167930000000 1.0
C      1  0.5970030000000  0.5412700000000  0.5493260000000 1.0
C      1  0.3954760000000  0.4789100000000  0.5623920000000 1.0
C      1  0.4879800000000  0.6076910000000  0.4800070000000 1.0
C      1  0.4906240000000  0.5143990000000  0.5000270000000 1.0
C      1  0.4373780000000  0.5854040000000  0.5432520000000 1.0
C      1  0.5169300000000  0.6008490000000  0.4759850000000 1.0
C      1  0.6699970000000  0.5147760000000  0.5375390000000 1.0
C      1  0.3779490000000  0.4812780000000  0.4665390000000 1.0
C      1  0.6016460000000  0.5330850000000  0.4309460000000 1.0
C      1  0.5109690000000  0.5876410000000  0.5250200000000 1.0
C      1  0.5049690000000  0.5088270000000  0.4574530000000 1.0
C      1  0.5713860000000  0.4673810000000  0.5102590000000 1.0
C      1  0.5743250000000  0.4423600000000  0.4272090000000 1.0
C      1  0.4927710000000  0.3892920000000  0.5417310000000 1.0
C      1  0.4871250000000  0.4294030000000  0.5669190000000 1.0
C      1  0.5173070000000  0.3993400000000  0.5015080000000 1.0
C      1  0.4098310000000  0.5305610000000  0.4514350000000 1.0
C      1  0.4006440000000  0.5061960000000  0.5693610000000 1.0
C      1  0.4234650000000  0.5246630000000  0.3833460000000 1.0
C      1  0.4822370000000  0.5386910000000  0.4310330000000 1.0
C      1  0.4665270000000  0.5029930000000  0.6100300000000 1.0
C      1  0.4772340000000  0.4029540000000  0.5609550000000 1.0
C      1  0.4675250000000  0.4588450000000  0.4569860000000 1.0
C      1  0.5642420000000  0.4978870000000  0.5572630000000 1.0
C      1  0.4654410000000  0.6000450000000  0.4996060000000 1.0
C      1  0.4731590000000  0.3978150000000  0.4458610000000 1.0
C      1  0.3889580000000  0.5580370000000  0.5190980000000 1.0
C      1  0.4367050000000  0.5233750000000  0.4403970000000 1.0
C      1  0.4371640000000  0.4444880000000  0.5930480000000 1.0
C      1  0.4475340000000  0.4045270000000  0.4355670000000 1.0
C      1  0.4805380000000  0.4509180000000  0.4024360000000 1.0
C      1  0.5779860000000  0.5054820000000  0.6133520000000 1.0
C      1  0.4279060000000  0.3987240000000  0.5495480000000 1.0
C      1  0.6818890000000  0.5091750000000  0.5142350000000 1.0
C      1  0.5749770000000  0.5185370000000  0.3900560000000 1.0
C      1  0.4859760000000  0.5302780000000  0.5456550000000 1.0
C      1  0.4945020000000  0.4558370000000  0.6064530000000 1.0
C      1  0.4796140000000  0.4449870000000  0.5213070000000 1.0
C      1  0.5301920000000  0.5148740000000  0.4673170000000 1.0
C      1  0.3969410000000  0.4820470000000  0.4878340000000 1.0
C      1  0.4592850000000  0.5466310000000  0.4779580000000 1.0
C      1  0.5498850000000  0.5067510000000  0.3937530000000 1.0
C      1  0.4537840000000  0.4935080000000  0.5417460000000 1.0
C      1  0.3871260000000  0.5025440000000  0.4167690000000 1.0
C      1  0.6295080000000  0.5176910000000  0.4675440000000 1.0
C      1  0.5653000000000  0.5939220000000  0.5047240000000 1.0
C      1  0.6132270000000  0.5104330000000  0.4449160000000 1.0
C      1  0.5107000000000  0.4354600000000  0.4541190000000 1.0
C      1  0.4451760000000  0.4610750000000  0.6143560000000 1.0
C      1  0.4240780000000  0.4786920000000  0.4459840000000 1.0
C      1  0.5493400000000  0.4594070000000  0.4627610000000 1.0
C      1  0.5901270000000  0.5671680000000  0.5361660000000 1.0
C      1  0.5000250000000  0.5771240000000  0.5699420000000 1.0
C      1  0.4598760000000  0.5385940000000  0.4490880000000 1.0
C      1  0.3890770000000  0.4740570000000  0.4137110000000 1.0
C      1  0.4466660000000  0.4860370000000  0.4050310000000 1.0
C      1  0.4072840000000  0.4617980000000  0.4301540000000 1.0
C      1  0.5971420000000  0.4859610000000  0.4500340000000 1.0
C      1  0.5949500000000  0.4566010000000  0.4445760000000 1.0
C      1  0.4150770000000  0.4127860000000  0.4762580000000 1.0
C      1  0.4434330000000  0.4845580000000  0.4917380000000 1.0
C      1  0.4637490000000  0.3909500000000  0.4967060000000 1.0
C      1  0.5352110000000  0.4589740000000  0.5401120000000 1.0
C      1  0.4110680000000  0.5949290000000  0.5390940000000 1.0
C      1  0.5562990000000  0.5202000000000  0.6202510000000 1.0
C      1  0.5253480000000  0.5215160000000  0.3869150000000 1.0
C      1  0.4811320000000  0.5521550000000  0.5281440000000 1.0
C      1  0.5903030000000  0.4214640000000  0.5144270000000 1.0
C      1  0.6043590000000  0.4249560000000  0.4895640000000 1.0
C      1  0.5792340000000  0.4893490000000  0.5314710000000 1.0
C      1  0.5207870000000  0.5825080000000  0.4535980000000 1.0
C      1  0.4751000000000  0.4521800000000  0.4306660000000 1.0
C      1  0.5283890000000  0.5770700000000  0.5753340000000 1.0
C      1  0.5615690000000  0.5483720000000  0.5756330000000 1.0
C      1  0.4822710000000  0.5721440000000  0.5912530000000 1.0
C      1  0.4085720000000  0.4553760000000  0.5534860000000 1.0
C      1  0.4728510000000  0.6118370000000  0.4538420000000 1.0
C      1  0.4503230000000  0.3958800000000  0.5638970000000 1.0
C      1  0.3618160000000  0.5928510000000  0.5385900000000 1.0
C      1  0.4573800000000  0.5979790000000  0.5268180000000 1.0
C      1  0.4556350000000  0.4673150000000  0.5542450000000 1.0
C      1  0.3434060000000  0.5799180000000  0.5533730000000 1.0
C      1  0.6567710000000  0.5126700000000  0.4704380000000 1.0
C      1  0.6063070000000  0.4847720000000  0.5735550000000 1.0
C      1  0.3605320000000  0.5343180000000  0.5629840000000 1.0
C      1  0.5390320000000  0.5610920000000  0.4558040000000 1.0
C      1  0.6764610000000  0.5088190000000  0.4880580000000 1.0
C      1  0.5957740000000  0.5738030000000  0.4645710000000 1.0
C      1  0.5328190000000  0.4404270000000  0.3935730000000 1.0
C      1  0.5238740000000  0.4774440000000  0.4244970000000 1.0
C      1  0.5488580000000  0.5816120000000  0.5561300000000 1.0
C      1  0.5420630000000  0.6055390000000  0.4909410000000 1.0
C      1  0.4056830000000  0.4535340000000  0.5027590000000 1.0
C      1  0.4394980000000  0.5610380000000  0.5585910000000 1.0
C      1  0.6138510000000  0.5263530000000  0.4898590000000 1.0
C      1  0.5959470000000  0.4934210000000  0.5970740000000 1.0
C      1  0.4585910000000  0.4659290000000  0.3913440000000 1.0
C      1  0.5506360000000  0.4032190000000  0.4581310000000 1.0
C      1  0.4724290000000  0.4732080000000  0.6124160000000 1.0
C      1  0.4718780000000  0.4386670000000  0.4770350000000 1.0
C      1  0.5020110000000  0.4938430000000  0.4148790000000 1.0
C      1  0.4626830000000  0.5174410000000  0.5545620000000 1.0
C      1  0.5377970000000  0.4958720000000  0.4862760000000 1.0
C      1  0.4446100000000  0.6059840000000  0.4569460000000 1.0
C      1  0.5874910000000  0.5151730000000  0.4917630000000 1.0
C      1  0.4768450000000  0.4493590000000  0.5486370000000 1.0
C      1  0.4209710000000  0.4877650000000  0.4732380000000 1.0
C      1  0.5354810000000  0.5223720000000  0.5229560000000 1.0
C      1  0.3956130000000  0.4345930000000  0.4798690000000 1.0
C      1  0.5015970000000  0.5022920000000  0.3850090000000 1.0
C      1  0.6052580000000  0.5687610000000  0.5111810000000 1.0
C      1  0.5607550000000  0.5580620000000  0.4384280000000 1.0
C      1  0.5663090000000  0.5837890000000  0.5341350000000 1.0
C      1  0.5209910000000  0.3921120000000  0.5459340000000 1.0
C      1  0.5184950000000  0.4714870000000  0.5209570000000 1.0
C      1  0.3756650000000  0.4513920000000  0.4640210000000 1.0
C      1  0.5412910000000  0.5566630000000  0.5925340000000 1.0
C      1  0.4051870000000  0.4388080000000  0.5295480000000 1.0
C      1  0.5883960000000  0.5556100000000  0.4439410000000 1.0
C      1  0.5330480000000  0.3965860000000  0.4777960000000 1.0
C      1  0.3851930000000  0.5245900000000  0.5539850000000 1.0
C      1  0.4866730000000  0.5008720000000  0.4765820000000 1.0
C      1  0.5480470000000  0.4815160000000  0.4082340000000 1.0
C      1  0.6465480000000  0.5237590000000  0.5467680000000 1.0
C      1  0.4398230000000  0.4999820000000  0.5171610000000 1.0
C      1  0.4661270000000  0.4831340000000  0.4726280000000 1.0
C      1  0.4386510000000  0.4970940000000  0.4296180000000 1.0
C      1  0.4700220000000  0.3833570000000  0.4700840000000 1.0
C      1  0.5324970000000  0.4087870000000  0.5255890000000 1.0
C      1  0.5011760000000  0.4402490000000  0.4807840000000 1.0
C      1  0.6056650000000  0.4813430000000  0.5449050000000 1.0
C      1  0.4588990000000  0.4407010000000  0.5022350000000 1.0
C      1  0.4436640000000  0.5914220000000  0.4820530000000 1.0
C      1  0.5060640000000  0.4513980000000  0.3874910000000 1.0
C      1  0.5061080000000  0.4362950000000  0.5879900000000 1.0
C      1  0.5716360000000  0.5137830000000  0.5150710000000 1.0
C      1  0.4862070000000  0.6056760000000  0.4294270000000 1.0
C      1  0.5129250000000  0.5250390000000  0.5513020000000 1.0
C      1  0.4216820000000  0.6011550000000  0.4412960000000 1.0
C      1  0.4973580000000  0.4129070000000  0.4416590000000 1.0
C      1  0.5340130000000  0.5455370000000  0.5038830000000 1.0
C      1  0.5896590000000  0.5821490000000  0.4910550000000 1.0
C      1  0.5342920000000  0.5362350000000  0.6110340000000 1.0
C      1  0.5032320000000  0.4524480000000  0.5069130000000 1.0
C      1  0.4308690000000  0.4036550000000  0.5003450000000 1.0
C      1  0.4840480000000  0.5255510000000  0.6101800000000 1.0
C      1  0.5820190000000  0.4939920000000  0.4732530000000 1.0
C      1  0.4191970000000  0.4123390000000  0.5264290000000 1.0
C      1  0.5031370000000  0.5828920000000  0.4310660000000 1.0
C      1  0.4358980000000  0.5639490000000  0.4799280000000 1.0
C      1  0.6053990000000  0.4393240000000  0.4662180000000 1.0
C      1  0.5201690000000  0.4857540000000  0.5750590000000 1.0
C      1  0.5450860000000  0.4747700000000  0.5644520000000 1.0
C      1  0.6224260000000  0.5338760000000  0.5374070000000 1.0
C      1  0.5572450000000  0.4535890000000  0.4056180000000 1.0
C      1  0.4249080000000  0.4075380000000  0.4501510000000 1.0
C      1  0.5517930000000  0.4547950000000  0.5854470000000 1.0
C      1  0.4497440000000  0.5237710000000  0.3764170000000 1.0
C      1  0.4749210000000  0.5523230000000  0.6080190000000 1.0
C      1  0.4951140000000  0.5137700000000  0.4325690000000 1.0
C      1  0.4184580000000  0.5186350000000  0.5184210000000 1.0
C      1  0.5642670000000  0.4176750000000  0.4395310000000 1.0
C      1  0.5169940000000  0.5471900000000  0.3976420000000 1.0
C      1  0.5150780000000  0.5125010000000  0.5760300000000 1.0
C      1  0.4337720000000  0.4536570000000  0.5665920000000 1.0
C      1  0.4242760000000  0.5173340000000  0.5829920000000 1.0
C      1  0.4267670000000  0.4827230000000  0.6194220000000 1.0
C      1  0.5356490000000  0.5412810000000  0.4755110000000 1.0
C      1  0.5747710000000  0.5275170000000  0.5624100000000 1.0
C      1  0.4987350000000  0.5581850000000  0.4174700000000 1.0
C      1  0.3876120000000  0.5096850000000  0.4455450000000 1.0
C      1  0.5271010000000  0.4569190000000  0.4452850000000 1.0
C      1  0.4365940000000  0.4570120000000  0.5013050000000 1.0
C      1  0.5953270000000  0.5289230000000  0.4038290000000 1.0
C      1  0.4053050000000  0.5797550000000  0.4460000000000 1.0
C      1  0.5269680000000  0.5707590000000  0.5120660000000 1.0
C      1  0.5532800000000  0.4090670000000  0.5773900000000 1.0
C      1  0.5221460000000  0.4988400000000  0.5109990000000 1.0
C      1  0.4007800000000  0.5182840000000  0.3969350000000 1.0
C      1  0.4886000000000  0.3919990000000  0.5123830000000 1.0
C      1  0.4123930000000  0.5574180000000  0.4626000000000 1.0
C      1  0.6207130000000  0.5445990000000  0.5100650000000 1.0
C      1  0.4924720000000  0.5754590000000  0.5419380000000 1.0
C      1  0.6263250000000  0.4704880000000  0.5307660000000 1.0
C      1  0.4770280000000  0.5401620000000  0.5014680000000 1.0
C      1  0.4756740000000  0.5156750000000  0.3763730000000 1.0
C      1  0.5744190000000  0.4027810000000  0.5608830000000 1.0
C      1  0.5359130000000  0.4306650000000  0.5864400000000 1.0
C      1  0.5110230000000  0.5228340000000  0.6020020000000 1.0
C      1  0.5453740000000  0.4337100000000  0.5300610000000 1.0
C      1  0.3435830000000  0.5550140000000  0.5634590000000 1.0
C      1  0.5069840000000  0.4757580000000  0.3715330000000 1.0
C      1  0.3965960000000  0.5328790000000  0.5289670000000 1.0
C      1  0.4832840000000  0.6204740000000  0.4067460000000 1.0
C      1  0.4418760000000  0.5335550000000  0.5665560000000 1.0
C      1  0.4367050000000  0.5066100000000  0.6066120000000 1.0
END
