TITL C-627112-676-753 14.2144204029144 125000 -469.063491520578 0 0 76 (C1) n - 1
REM
REM in /home/nfs/bkarasulu/CARBON/AIRSS/Generating-Clusters/LCBOP/Only-C1/SD-CG/FIRE-CG
REM
REM
REM
REM
REM
REM ./C.cell (11c1c37f851c82e70ff6c80c92926a4b)
REM AIRSS Version 0.9.1 bugfix July 2018 build 013d7b7c2542+ Fri, 06 Jul 2018 19:26:36 +0100
REM compiler GCC version 9.2.1 20190827 (Red Hat 9.2.1-1)
REM options -cpp -mtune=generic -march=x86-64 -g -O0 -fpre-include=/usr/include/finclude/math-vector-fortran.h
REM seed 370536434 -365808973 -41731857 -232573946 195109814 -1505011670 828946204 -26510542 328374012 -1352688054 1075407231 -298182308 -79153850 -1880935345 -1474293381 -2063943697 1273636051 -1982949918 -992606223 -949911592 881632311 1862364056 -1426212710 -361085689 -2110670190 635257483 172116793 1088473803 2013074805 533871806 -857244846 -1308165744 -1436613397
REM
CELL 1.54180   50.00000   50.00000   50.00000   90.00000   90.00000   90.00000
LATT -1
SFAC C  
C      1  0.4537550000000  0.3946870000000  0.4467570000000 1.0
C      1  0.5061500000000  0.4891080000000  0.4159470000000 1.0
C      1  0.5072630000000  0.4172080000000  0.4586460000000 1.0
C      1  0.5388050000000  0.4900230000000  0.4474680000000 1.0
C      1  0.5337750000000  0.4246620000000  0.4660830000000 1.0
C      1  0.5937710000000  0.5124130000000  0.5181220000000 1.0
C      1  0.5633230000000  0.4421500000000  0.5031970000000 1.0
C      1  0.5415190000000  0.4257740000000  0.4945380000000 1.0
C      1  0.5062890000000  0.4874270000000  0.4833140000000 1.0
C      1  0.5828170000000  0.4493820000000  0.4832860000000 1.0
C      1  0.5059070000000  0.4638220000000  0.5247510000000 1.0
C      1  0.4669000000000  0.6288240000000  0.6642500000000 1.0
C      1  0.4918420000000  0.4433930000000  0.4191920000000 1.0
C      1  0.4281660000000  0.6604150000000  0.7255260000000 1.0
C      1  0.5241490000000  0.5789110000000  0.5334690000000 1.0
C      1  0.5140120000000  0.5131780000000  0.5279170000000 1.0
C      1  0.5646710000000  0.4996590000000  0.5528900000000 1.0
C      1  0.4166860000000  0.4999750000000  0.4439620000000 1.0
C      1  0.5641720000000  0.5601140000000  0.5171910000000 1.0
C      1  0.4898190000000  0.4113210000000  0.4807300000000 1.0
C      1  0.4923840000000  0.5412290000000  0.4464060000000 1.0
C      1  0.5234990000000  0.5496560000000  0.4929550000000 1.0
C      1  0.4683990000000  0.4601490000000  0.4164220000000 1.0
C      1  0.4933080000000  0.4667400000000  0.4988170000000 1.0
C      1  0.5222150000000  0.4175270000000  0.5143970000000 1.0
C      1  0.5228380000000  0.5070780000000  0.4313400000000 1.0
C      1  0.5153460000000  0.4603620000000  0.4160960000000 1.0
C      1  0.4678650000000  0.4529970000000  0.4933280000000 1.0
C      1  0.4939930000000  0.4186830000000  0.4330590000000 1.0
C      1  0.4447570000000  0.4140270000000  0.4657370000000 1.0
C      1  0.4219580000000  0.4281470000000  0.4577810000000 1.0
C      1  0.5845420000000  0.4972690000000  0.4963000000000 1.0
C      1  0.5188150000000  0.5864820000000  0.5821220000000 1.0
C      1  0.5596700000000  0.5043320000000  0.4843590000000 1.0
C      1  0.5019820000000  0.4010520000000  0.5038080000000 1.0
C      1  0.4798810000000  0.6182380000000  0.6437160000000 1.0
C      1  0.5131640000000  0.4375510000000  0.5322600000000 1.0
C      1  0.4006270000000  0.5648300000000  0.5165590000000 1.0
C      1  0.5353220000000  0.5427040000000  0.4667670000000 1.0
C      1  0.5703220000000  0.5474980000000  0.5421610000000 1.0
C      1  0.5058410000000  0.5970650000000  0.6026470000000 1.0
C      1  0.5399710000000  0.4488360000000  0.4239290000000 1.0
C      1  0.4418000000000  0.4534900000000  0.4219850000000 1.0
C      1  0.5355400000000  0.4890370000000  0.4758790000000 1.0
C      1  0.5370360000000  0.5668250000000  0.5111190000000 1.0
C      1  0.4228650000000  0.4519900000000  0.4429190000000 1.0
C      1  0.5323630000000  0.5753500000000  0.5606210000000 1.0
C      1  0.4743200000000  0.3985390000000  0.4294940000000 1.0
C      1  0.5965510000000  0.4732990000000  0.4882010000000 1.0
C      1  0.4396060000000  0.5157150000000  0.4399100000000 1.0
C      1  0.4580980000000  0.5081490000000  0.4198610000000 1.0
C      1  0.5488510000000  0.4798370000000  0.5405240000000 1.0
C      1  0.4327830000000  0.5430340000000  0.4805220000000 1.0
C      1  0.4167450000000  0.5541170000000  0.4984480000000 1.0
C      1  0.4928610000000  0.6076510000000  0.6231820000000 1.0
C      1  0.5513700000000  0.4363190000000  0.4466270000000 1.0
C      1  0.4494030000000  0.5292970000000  0.4629660000000 1.0
C      1  0.5772510000000  0.4412420000000  0.4567500000000 1.0
C      1  0.4539200000000  0.6394110000000  0.6847850000000 1.0
C      1  0.5600770000000  0.5296260000000  0.4708180000000 1.0
C      1  0.3847710000000  0.5753560000000  0.5343760000000 1.0
C      1  0.5193560000000  0.5336190000000  0.4436380000000 1.0
C      1  0.5793850000000  0.5206950000000  0.5410330000000 1.0
C      1  0.4929610000000  0.5134210000000  0.4851780000000 1.0
C      1  0.4769970000000  0.4880920000000  0.4146820000000 1.0
C      1  0.4656030000000  0.4262150000000  0.4817600000000 1.0
C      1  0.4771890000000  0.5280410000000  0.4664270000000 1.0
C      1  0.4169810000000  0.4755230000000  0.4576250000000 1.0
C      1  0.4439880000000  0.4657570000000  0.5029800000000 1.0
C      1  0.4246050000000  0.4747360000000  0.4847150000000 1.0
C      1  0.4409360000000  0.6500000000000  0.7053250000000 1.0
C      1  0.5215010000000  0.4862020000000  0.5341860000000 1.0
C      1  0.4400590000000  0.4688460000000  0.5298990000000 1.0
C      1  0.5606720000000  0.4577030000000  0.5269420000000 1.0
C      1  0.5072940000000  0.5287540000000  0.5048320000000 1.0
C      1  0.5557710000000  0.5592150000000  0.5635870000000 1.0
END
