TITL C-627110-360-1621 0.0808399539242835 125000 -264.496593773228 0 0 45 (C1) n - 1
REM
REM in /home/nfs/bkarasulu/CARBON/AIRSS/Generating-Clusters/LCBOP/Only-C1/SD-CG/FIRE-CG
REM
REM
REM
REM
REM
REM ./C.cell (11c1c37f851c82e70ff6c80c92926a4b)
REM AIRSS Version 0.9.1 bugfix July 2018 build 013d7b7c2542+ Fri, 06 Jul 2018 19:26:36 +0100
REM compiler GCC version 9.2.1 20190827 (Red Hat 9.2.1-1)
REM options -cpp -mtune=generic -march=x86-64 -g -O0 -fpre-include=/usr/include/finclude/math-vector-fortran.h
REM seed 785885180 -1556114306 -413237993 1755915687 1112684542 -1192027799 -191043944 -1698217334 1561860146 -1130024995 987060083 -232458970 2090372491 -1908870093 1719483457 438875827 398156348 -2080517667 -1698574894 1900319764 196162926 1818367283 -2024541602 -2138925055 295885324 -1595943534 1272887489 36876329 -2054404260 -1422861476 -2021828048 325138650 -2019562531
REM
CELL 1.54180   50.00000   50.00000   50.00000   90.00000   90.00000   90.00000
LATT -1
SFAC C  
C      1  0.5396770000000  0.5026540000000  0.3945930000000 1.0
C      1  0.5143420000000  0.4563890000000  0.5862000000000 1.0
C      1  0.4912930000000  0.5841220000000  0.4281230000000 1.0
C      1  0.4871660000000  0.5040720000000  0.5136460000000 1.0
C      1  0.4913270000000  0.4858930000000  0.4682240000000 1.0
C      1  0.4621040000000  0.5480910000000  0.5315740000000 1.0
C      1  0.5607320000000  0.4290260000000  0.4055020000000 1.0
C      1  0.4226260000000  0.5305850000000  0.4732750000000 1.0
C      1  0.4955290000000  0.5569240000000  0.4328340000000 1.0
C      1  0.5133960000000  0.4360300000000  0.5144110000000 1.0
C      1  0.4787800000000  0.5617600000000  0.5766510000000 1.0
C      1  0.5081610000000  0.4562200000000  0.5329690000000 1.0
C      1  0.5208080000000  0.4157190000000  0.4991010000000 1.0
C      1  0.5588030000000  0.4076940000000  0.4211250000000 1.0
C      1  0.5450890000000  0.3526680000000  0.4693000000000 1.0
C      1  0.5138000000000  0.4711010000000  0.6082700000000 1.0
C      1  0.4778520000000  0.5249670000000  0.5298860000000 1.0
C      1  0.4459530000000  0.5383200000000  0.4853140000000 1.0
C      1  0.5472320000000  0.3270710000000  0.4737040000000 1.0
C      1  0.4988650000000  0.4812140000000  0.5245520000000 1.0
C      1  0.4920430000000  0.5658790000000  0.6009220000000 1.0
C      1  0.5123040000000  0.4515780000000  0.5602100000000 1.0
C      1  0.5040140000000  0.6161850000000  0.6164530000000 1.0
C      1  0.4834020000000  0.5063850000000  0.4854540000000 1.0
C      1  0.5105590000000  0.4936330000000  0.6219040000000 1.0
C      1  0.4966670000000  0.4661330000000  0.4514060000000 1.0
C      1  0.5001460000000  0.4458540000000  0.4354020000000 1.0
C      1  0.4621700000000  0.5653750000000  0.5546100000000 1.0
C      1  0.5505270000000  0.4786220000000  0.3918740000000 1.0
C      1  0.5526400000000  0.3911980000000  0.4409260000000 1.0
C      1  0.5052550000000  0.5194860000000  0.6245760000000 1.0
C      1  0.4456300000000  0.5545210000000  0.5085750000000 1.0
C      1  0.4294090000000  0.5776640000000  0.5105130000000 1.0
C      1  0.4288010000000  0.5935280000000  0.5324480000000 1.0
C      1  0.4983910000000  0.5918130000000  0.6091310000000 1.0
C      1  0.4834480000000  0.5444570000000  0.4546980000000 1.0
C      1  0.5306040000000  0.3966540000000  0.4835280000000 1.0
C      1  0.5427870000000  0.3800920000000  0.4645960000000 1.0
C      1  0.5264680000000  0.5240780000000  0.4028970000000 1.0
C      1  0.4444440000000  0.5875560000000  0.5537290000000 1.0
C      1  0.4871360000000  0.6095030000000  0.4239100000000 1.0
C      1  0.4989060000000  0.5440570000000  0.6169370000000 1.0
C      1  0.5578700000000  0.4534070000000  0.3954890000000 1.0
C      1  0.5118420000000  0.5420820000000  0.4156930000000 1.0
C      1  0.4710010000000  0.5297430000000  0.4748670000000 1.0
END
