TITL C-627108-131-1446 -4.37348594409379e-07 125000 -781.371744973743 0 0 127 (C1) n - 1
REM
REM in /home/nfs/bkarasulu/CARBON/AIRSS/Generating-Clusters/LCBOP/Only-C1/SD-CG/FIRE-CG
REM
REM
REM
REM
REM
REM ./C.cell (11c1c37f851c82e70ff6c80c92926a4b)
REM AIRSS Version 0.9.1 bugfix July 2018 build 013d7b7c2542+ Fri, 06 Jul 2018 19:26:36 +0100
REM compiler GCC version 9.2.1 20190827 (Red Hat 9.2.1-1)
REM options -cpp -mtune=generic -march=x86-64 -g -O0 -fpre-include=/usr/include/finclude/math-vector-fortran.h
REM seed -1647735786 1454366395 1298868553 -1110732295 1859790527 -764709024 -58820949 1240908448 1674615973 1563734472 1884098837 238413767 957588930 -2058482414 -2042366488 1126839343 2047503704 -40798372 1623936482 675865098 822104681 1239357695 -1260582696 -438492138 94248752 599248910 -1258683824 -1253460509 1568116870 -1536556917 -1381703679 410880277 40185375
REM
CELL 1.54180   50.00000   50.00000   50.00000   90.00000   90.00000   90.00000
LATT -1
SFAC C  
C      1  0.5981930000000  0.4395120000000  0.5730010000000 1.0
C      1  0.5223180000000  0.4113970000000  0.5344900000000 1.0
C      1  0.4380050000000  0.5836950000000  0.5070330000000 1.0
C      1  0.6058090000000  0.4272510000000  0.5499870000000 1.0
C      1  0.3982640000000  0.5277050000000  0.4386680000000 1.0
C      1  0.4928480000000  0.5652360000000  0.4618960000000 1.0
C      1  0.4535290000000  0.4899730000000  0.4514850000000 1.0
C      1  0.5529920000000  0.4685910000000  0.4160860000000 1.0
C      1  0.4170660000000  0.5277960000000  0.4171540000000 1.0
C      1  0.5127540000000  0.5043960000000  0.4867860000000 1.0
C      1  0.5394850000000  0.5761140000000  0.5638240000000 1.0
C      1  0.5044270000000  0.5476850000000  0.5854460000000 1.0
C      1  0.4993660000000  0.4740130000000  0.4514780000000 1.0
C      1  0.5016460000000  0.5233590000000  0.4427500000000 1.0
C      1  0.4563340000000  0.5006540000000  0.4241420000000 1.0
C      1  0.5825970000000  0.5825170000000  0.4625810000000 1.0
C      1  0.4904770000000  0.4119670000000  0.4966360000000 1.0
C      1  0.4819030000000  0.5318090000000  0.5776850000000 1.0
C      1  0.5564200000000  0.4304120000000  0.4683790000000 1.0
C      1  0.5338930000000  0.4488290000000  0.4230390000000 1.0
C      1  0.6039860000000  0.4238600000000  0.5233110000000 1.0
C      1  0.4592110000000  0.4449770000000  0.4677150000000 1.0
C      1  0.5362470000000  0.4505600000000  0.4698270000000 1.0
C      1  0.5518440000000  0.4638770000000  0.5118080000000 1.0
C      1  0.4930460000000  0.5954130000000  0.4964940000000 1.0
C      1  0.5890740000000  0.5647300000000  0.5469440000000 1.0
C      1  0.5781290000000  0.4936170000000  0.5330350000000 1.0
C      1  0.5083730000000  0.4516970000000  0.5093910000000 1.0
C      1  0.4138600000000  0.4675290000000  0.5653270000000 1.0
C      1  0.4741760000000  0.5318890000000  0.4996560000000 1.0
C      1  0.5549100000000  0.4516580000000  0.5371350000000 1.0
C      1  0.4947490000000  0.4074770000000  0.5259000000000 1.0
C      1  0.4065480000000  0.4547440000000  0.4701170000000 1.0
C      1  0.5484960000000  0.5467750000000  0.4847860000000 1.0
C      1  0.4911410000000  0.5517840000000  0.4873370000000 1.0
C      1  0.5336730000000  0.4215670000000  0.4145150000000 1.0
C      1  0.3906210000000  0.5021480000000  0.4484510000000 1.0
C      1  0.5349960000000  0.4606890000000  0.6097790000000 1.0
C      1  0.5789010000000  0.4601260000000  0.5772690000000 1.0
C      1  0.5328330000000  0.5897090000000  0.4661000000000 1.0
C      1  0.4735210000000  0.5922400000000  0.5414460000000 1.0
C      1  0.4810180000000  0.4847060000000  0.5178760000000 1.0
C      1  0.5494580000000  0.4963730000000  0.4218350000000 1.0
C      1  0.3920800000000  0.5228850000000  0.5193850000000 1.0
C      1  0.4219710000000  0.5655760000000  0.4630300000000 1.0
C      1  0.5559140000000  0.4918530000000  0.5131420000000 1.0
C      1  0.3878100000000  0.5711050000000  0.5162410000000 1.0
C      1  0.4870430000000  0.5476740000000  0.4404080000000 1.0
C      1  0.3985030000000  0.4480890000000  0.4966510000000 1.0
C      1  0.4168750000000  0.5379030000000  0.5279620000000 1.0
C      1  0.4720970000000  0.4355420000000  0.4912850000000 1.0
C      1  0.5961350000000  0.4277920000000  0.4978470000000 1.0
C      1  0.5282460000000  0.5070250000000  0.4060920000000 1.0
C      1  0.4451900000000  0.5263730000000  0.4196480000000 1.0
C      1  0.5141410000000  0.4490760000000  0.5607260000000 1.0
C      1  0.6066560000000  0.4807880000000  0.4971780000000 1.0
C      1  0.5269310000000  0.5510670000000  0.5688690000000 1.0
C      1  0.4809220000000  0.5062950000000  0.5902340000000 1.0
C      1  0.5204030000000  0.4557630000000  0.4472940000000 1.0
C      1  0.3754360000000  0.5952930000000  0.5149740000000 1.0
C      1  0.4631870000000  0.5702370000000  0.5556470000000 1.0
C      1  0.5517280000000  0.5347120000000  0.4569700000000 1.0
C      1  0.4520240000000  0.5304150000000  0.4787140000000 1.0
C      1  0.6015440000000  0.5007680000000  0.5173570000000 1.0
C      1  0.6064370000000  0.5380700000000  0.4834990000000 1.0
C      1  0.5067530000000  0.4584110000000  0.6036530000000 1.0
C      1  0.6074000000000  0.5290350000000  0.5115250000000 1.0
C      1  0.6042420000000  0.5482840000000  0.5321410000000 1.0
C      1  0.4270180000000  0.5872840000000  0.4803470000000 1.0
C      1  0.4831910000000  0.4169830000000  0.5739980000000 1.0
C      1  0.5303160000000  0.5300000000000  0.5508140000000 1.0
C      1  0.5319210000000  0.5059080000000  0.5085130000000 1.0
C      1  0.5025510000000  0.5921760000000  0.4670840000000 1.0
C      1  0.5520410000000  0.5565110000000  0.4379060000000 1.0
C      1  0.5365500000000  0.5725550000000  0.4905610000000 1.0
C      1  0.4777580000000  0.4941040000000  0.4065860000000 1.0
C      1  0.5624470000000  0.5372070000000  0.5060230000000 1.0
C      1  0.5387900000000  0.4068420000000  0.4633080000000 1.0
C      1  0.5900760000000  0.4711550000000  0.4745150000000 1.0
C      1  0.4987580000000  0.4919180000000  0.5399940000000 1.0
C      1  0.5601520000000  0.5078760000000  0.4465600000000 1.0
C      1  0.3746330000000  0.5451660000000  0.5139310000000 1.0
C      1  0.4864860000000  0.5048280000000  0.4984190000000 1.0
C      1  0.5028610000000  0.5006930000000  0.3992410000000 1.0
C      1  0.4635240000000  0.5314630000000  0.5279880000000 1.0
C      1  0.5715130000000  0.4711520000000  0.5520110000000 1.0
C      1  0.4969160000000  0.6041130000000  0.5521640000000 1.0
C      1  0.4953740000000  0.4821800000000  0.5887670000000 1.0
C      1  0.5190970000000  0.5112100000000  0.5337340000000 1.0
C      1  0.5562060000000  0.5822180000000  0.4501390000000 1.0
C      1  0.4042410000000  0.3982550000000  0.4991240000000 1.0
C      1  0.4469830000000  0.4181220000000  0.5407320000000 1.0
C      1  0.3978110000000  0.4686560000000  0.5175500000000 1.0
C      1  0.4014720000000  0.4959240000000  0.5106880000000 1.0
C      1  0.4169120000000  0.5666810000000  0.5212830000000 1.0
C      1  0.4715960000000  0.4678930000000  0.4557280000000 1.0
C      1  0.4670510000000  0.5926290000000  0.5128130000000 1.0
C      1  0.5823520000000  0.4417980000000  0.4768060000000 1.0
C      1  0.5309380000000  0.4145230000000  0.3883080000000 1.0
C      1  0.5174280000000  0.5835460000000  0.5095790000000 1.0
C      1  0.5033620000000  0.4754060000000  0.5615420000000 1.0
C      1  0.4229620000000  0.4304700000000  0.5327100000000 1.0
C      1  0.5995930000000  0.5647570000000  0.4747550000000 1.0
C      1  0.4381330000000  0.5197490000000  0.5236130000000 1.0
C      1  0.4117510000000  0.4564020000000  0.5405630000000 1.0
C      1  0.5668850000000  0.5757290000000  0.5571970000000 1.0
C      1  0.4685950000000  0.5424140000000  0.5540930000000 1.0
C      1  0.5135780000000  0.4045660000000  0.4793080000000 1.0
C      1  0.4313870000000  0.4429560000000  0.4626080000000 1.0
C      1  0.4295410000000  0.5002600000000  0.5024560000000 1.0
C      1  0.6033950000000  0.5170990000000  0.4643820000000 1.0
C      1  0.5218530000000  0.5979800000000  0.5603820000000 1.0
C      1  0.5015030000000  0.4363280000000  0.5838770000000 1.0
C      1  0.4449720000000  0.5497910000000  0.4596770000000 1.0
C      1  0.4741290000000  0.4118460000000  0.5467780000000 1.0
C      1  0.5081720000000  0.5007880000000  0.4586950000000 1.0
C      1  0.4084900000000  0.4234210000000  0.5084410000000 1.0
C      1  0.5333680000000  0.4352720000000  0.5458030000000 1.0
C      1  0.5599440000000  0.4613450000000  0.5987440000000 1.0
C      1  0.4587610000000  0.5462380000000  0.4350260000000 1.0
C      1  0.3949290000000  0.4767240000000  0.4563620000000 1.0
C      1  0.5362490000000  0.4021520000000  0.4352290000000 1.0
C      1  0.5311670000000  0.4563090000000  0.4958960000000 1.0
C      1  0.4420700000000  0.5034870000000  0.4758790000000 1.0
C      1  0.5839280000000  0.4962900000000  0.4590780000000 1.0
C      1  0.3985620000000  0.5520860000000  0.4538860000000 1.0
C      1  0.4809590000000  0.4574740000000  0.5087310000000 1.0
END
