TITL C-627110-360-1715 -1.05808221658565e-06 125000 -783.149089531874 0 0 126 (C1) n - 1
REM
REM in /home/nfs/bkarasulu/CARBON/AIRSS/Generating-Clusters/LCBOP/Only-C1/SD-CG/FIRE-CG
REM
REM
REM
REM
REM
REM ./C.cell (11c1c37f851c82e70ff6c80c92926a4b)
REM AIRSS Version 0.9.1 bugfix July 2018 build 013d7b7c2542+ Fri, 06 Jul 2018 19:26:36 +0100
REM compiler GCC version 9.2.1 20190827 (Red Hat 9.2.1-1)
REM options -cpp -mtune=generic -march=x86-64 -g -O0 -fpre-include=/usr/include/finclude/math-vector-fortran.h
REM seed 1772310661 1653489584 -25482294 -1546988015 -1037185110 1885125052 1782904974 -377140681 1062121413 1316727511 1064099144 -721010061 -1857332957 -783380891 -1712817668 1952087368 1667141685 714130721 1458869401 -1429097354 1547403268 1166333803 -1133177044 874277838 -1819747873 -570443343 504391713 1123566915 1241503649 1602186103 -683654853 1001288281 -888071513
REM
CELL 1.54180   50.00000   50.00000   50.00000   90.00000   90.00000   90.00000
LATT -1
SFAC C  
C      1  0.4675130000000  0.5912480000000  0.4360540000000 1.0
C      1  0.4890990000000  0.5285560000000  0.5218950000000 1.0
C      1  0.4914990000000  0.5064160000000  0.4680230000000 1.0
C      1  0.6019540000000  0.4696400000000  0.4498800000000 1.0
C      1  0.4419070000000  0.4917110000000  0.5055230000000 1.0
C      1  0.5140680000000  0.5438700000000  0.4827430000000 1.0
C      1  0.4595580000000  0.5752430000000  0.4161700000000 1.0
C      1  0.5001580000000  0.4519690000000  0.5060360000000 1.0
C      1  0.4348870000000  0.5436710000000  0.5560330000000 1.0
C      1  0.4640830000000  0.3775440000000  0.4870000000000 1.0
C      1  0.4417340000000  0.4633910000000  0.5087790000000 1.0
C      1  0.4646860000000  0.5047060000000  0.4304070000000 1.0
C      1  0.4225290000000  0.5289950000000  0.4303690000000 1.0
C      1  0.4336830000000  0.5704010000000  0.5469000000000 1.0
C      1  0.5048060000000  0.4787610000000  0.4363670000000 1.0
C      1  0.5191180000000  0.4346100000000  0.4038480000000 1.0
C      1  0.5269870000000  0.4803430000000  0.6193810000000 1.0
C      1  0.5728330000000  0.4759280000000  0.6055880000000 1.0
C      1  0.5613530000000  0.3988970000000  0.5574410000000 1.0
C      1  0.5874520000000  0.5350950000000  0.5110670000000 1.0
C      1  0.5220650000000  0.5838390000000  0.5344150000000 1.0
C      1  0.3910390000000  0.5430980000000  0.4947940000000 1.0
C      1  0.4751640000000  0.5537630000000  0.6162120000000 1.0
C      1  0.5383740000000  0.3511830000000  0.4824590000000 1.0
C      1  0.4721670000000  0.5115740000000  0.5682460000000 1.0
C      1  0.4448650000000  0.4661580000000  0.5569410000000 1.0
C      1  0.4567160000000  0.5363090000000  0.5741700000000 1.0
C      1  0.4186320000000  0.4468240000000  0.4390820000000 1.0
C      1  0.5832290000000  0.5054040000000  0.3989780000000 1.0
C      1  0.4639950000000  0.4383050000000  0.4069290000000 1.0
C      1  0.6044160000000  0.4742700000000  0.5232430000000 1.0
C      1  0.5234860000000  0.5567030000000  0.5424490000000 1.0
C      1  0.5176290000000  0.5678000000000  0.4202000000000 1.0
C      1  0.6235390000000  0.4837970000000  0.5410950000000 1.0
C      1  0.4730200000000  0.5950550000000  0.5293420000000 1.0
C      1  0.5685370000000  0.5356200000000  0.4372610000000 1.0
C      1  0.6210710000000  0.4857130000000  0.5913540000000 1.0
C      1  0.5135460000000  0.4905790000000  0.4609690000000 1.0
C      1  0.5723220000000  0.4392910000000  0.5076180000000 1.0
C      1  0.4096260000000  0.5230750000000  0.4544560000000 1.0
C      1  0.5381440000000  0.4847220000000  0.5724260000000 1.0
C      1  0.5832510000000  0.4654680000000  0.4287410000000 1.0
C      1  0.5108280000000  0.4935830000000  0.6357600000000 1.0
C      1  0.4643330000000  0.4982840000000  0.4589720000000 1.0
C      1  0.4886130000000  0.3675510000000  0.4868760000000 1.0
C      1  0.4919940000000  0.5952810000000  0.4825480000000 1.0
C      1  0.5689330000000  0.5537540000000  0.5221200000000 1.0
C      1  0.4563690000000  0.4923420000000  0.5532660000000 1.0
C      1  0.5416080000000  0.4412520000000  0.4178140000000 1.0
C      1  0.4994130000000  0.5995770000000  0.5382530000000 1.0
C      1  0.4484420000000  0.5260040000000  0.4201960000000 1.0
C      1  0.4955250000000  0.4521840000000  0.4378530000000 1.0
C      1  0.5371760000000  0.5901860000000  0.5113830000000 1.0
C      1  0.5894220000000  0.4502700000000  0.5285290000000 1.0
C      1  0.4845510000000  0.5376570000000  0.6351300000000 1.0
C      1  0.4122940000000  0.5421820000000  0.4762690000000 1.0
C      1  0.5642150000000  0.5795050000000  0.5100180000000 1.0
C      1  0.5763410000000  0.5266870000000  0.4135170000000 1.0
C      1  0.4668550000000  0.5580840000000  0.5900540000000 1.0
C      1  0.5761910000000  0.5837240000000  0.4846630000000 1.0
C      1  0.5573170000000  0.5471830000000  0.4598610000000 1.0
C      1  0.4206230000000  0.4654920000000  0.5716500000000 1.0
C      1  0.4462200000000  0.4493910000000  0.5334070000000 1.0
C      1  0.5564470000000  0.4166150000000  0.5126110000000 1.0
C      1  0.4922570000000  0.4397860000000  0.4117480000000 1.0
C      1  0.4593970000000  0.5348650000000  0.4846910000000 1.0
C      1  0.5376010000000  0.4847160000000  0.4747910000000 1.0
C      1  0.4493070000000  0.5065240000000  0.4823140000000 1.0
C      1  0.4412200000000  0.5045560000000  0.5311050000000 1.0
C      1  0.5350480000000  0.5896350000000  0.4616960000000 1.0
C      1  0.4978610000000  0.4764740000000  0.5159910000000 1.0
C      1  0.5459060000000  0.4789550000000  0.5988130000000 1.0
C      1  0.4580840000000  0.4270970000000  0.4534860000000 1.0
C      1  0.4964750000000  0.5149880000000  0.6421890000000 1.0
C      1  0.5405680000000  0.5339660000000  0.4793300000000 1.0
C      1  0.5464860000000  0.5414840000000  0.5347150000000 1.0
C      1  0.4581740000000  0.5496170000000  0.4085560000000 1.0
C      1  0.4244540000000  0.6002790000000  0.4863530000000 1.0
C      1  0.4950120000000  0.4369250000000  0.4847340000000 1.0
C      1  0.4397960000000  0.3912720000000  0.4852140000000 1.0
C      1  0.6304350000000  0.4877260000000  0.5664950000000 1.0
C      1  0.5990130000000  0.4802710000000  0.6052020000000 1.0
C      1  0.4375140000000  0.4137130000000  0.4686780000000 1.0
C      1  0.5725060000000  0.4523390000000  0.4826460000000 1.0
C      1  0.4017100000000  0.4957670000000  0.4553040000000 1.0
C      1  0.5008820000000  0.5400600000000  0.5449550000000 1.0
C      1  0.5218040000000  0.5954860000000  0.4874430000000 1.0
C      1  0.5796190000000  0.4165750000000  0.5666290000000 1.0
C      1  0.5862410000000  0.4794050000000  0.4046600000000 1.0
C      1  0.5572870000000  0.4553420000000  0.4369280000000 1.0
C      1  0.4913420000000  0.5022850000000  0.5155960000000 1.0
C      1  0.5010420000000  0.5163090000000  0.5625620000000 1.0
C      1  0.4697030000000  0.5907430000000  0.5007250000000 1.0
C      1  0.5516180000000  0.4610040000000  0.4653110000000 1.0
C      1  0.4556620000000  0.5875090000000  0.5506210000000 1.0
C      1  0.5146240000000  0.5438610000000  0.4086230000000 1.0
C      1  0.4229780000000  0.5237100000000  0.5404770000000 1.0
C      1  0.3969190000000  0.4780830000000  0.5691820000000 1.0
C      1  0.5979670000000  0.4874210000000  0.4987060000000 1.0
C      1  0.3970990000000  0.3746330000000  0.5137970000000 1.0
C      1  0.5803480000000  0.5098450000000  0.4993410000000 1.0
C      1  0.5151750000000  0.5856960000000  0.4416270000000 1.0
C      1  0.4838060000000  0.4374610000000  0.4593260000000 1.0
C      1  0.4384920000000  0.5540530000000  0.4834060000000 1.0
C      1  0.5596250000000  0.5755600000000  0.4631900000000 1.0
C      1  0.5955020000000  0.4691450000000  0.4771860000000 1.0
C      1  0.4441710000000  0.5814520000000  0.4902020000000 1.0
C      1  0.5259690000000  0.5019050000000  0.5538100000000 1.0
C      1  0.4456200000000  0.4391580000000  0.4289950000000 1.0
C      1  0.4132810000000  0.4262890000000  0.4592340000000 1.0
C      1  0.4669110000000  0.5833280000000  0.5767770000000 1.0
C      1  0.4177320000000  0.3822150000000  0.4997980000000 1.0
C      1  0.4516080000000  0.4227330000000  0.5350770000000 1.0
C      1  0.4069450000000  0.4720430000000  0.4435030000000 1.0
C      1  0.3950630000000  0.5189820000000  0.5388450000000 1.0
C      1  0.4893920000000  0.5926510000000  0.4532460000000 1.0
C      1  0.5137150000000  0.3592440000000  0.4850260000000 1.0
C      1  0.5509630000000  0.3993330000000  0.5324910000000 1.0
C      1  0.4886210000000  0.5332610000000  0.4782860000000 1.0
C      1  0.5496440000000  0.5077080000000  0.4953700000000 1.0
C      1  0.3856310000000  0.4983750000000  0.5555340000000 1.0
C      1  0.5055610000000  0.5187080000000  0.4068790000000 1.0
C      1  0.3823170000000  0.5322030000000  0.5177020000000 1.0
C      1  0.5403060000000  0.5134370000000  0.5302570000000 1.0
C      1  0.4909400000000  0.4981510000000  0.4194590000000 1.0
C      1  0.5906040000000  0.4373500000000  0.5535340000000 1.0
END
