TITL C-627109-622-972 0.00440189021547512 125000 -410.692688414235 0 0 68 (C1) n - 1
REM
REM in /home/nfs/bkarasulu/CARBON/AIRSS/Generating-Clusters/LCBOP/Only-C1/SD-CG/FIRE-CG
REM
REM
REM
REM
REM
REM ./C.cell (11c1c37f851c82e70ff6c80c92926a4b)
REM AIRSS Version 0.9.1 bugfix July 2018 build 013d7b7c2542+ Fri, 06 Jul 2018 19:26:36 +0100
REM compiler GCC version 9.2.1 20190827 (Red Hat 9.2.1-1)
REM options -cpp -mtune=generic -march=x86-64 -g -O0 -fpre-include=/usr/include/finclude/math-vector-fortran.h
REM seed -19939166 1603397998 441453711 1190150708 525240716 1728985466 1889630841 1426523164 873637248 -1698870252 -1299672705 1052811605 -1843217859 2130498887 -1080856120 2051128136 1820279356 134375615 1632903752 578410021 -817692704 -128037873 84000845 -789563948 342915004 1016640182 -279998058 759904828 1263659079 519959170 2099132410 1184041531 145339701
REM
CELL 1.54180   50.00000   50.00000   50.00000   90.00000   90.00000   90.00000
LATT -1
SFAC C  
C      1  0.4196390000000  0.5004390000000  0.4982380000000 1.0
C      1  0.5624010000000  0.5209210000000  0.5521970000000 1.0
C      1  0.5083220000000  0.5614090000000  0.5832330000000 1.0
C      1  0.5433040000000  0.4650720000000  0.5726990000000 1.0
C      1  0.5967660000000  0.5366860000000  0.4890560000000 1.0
C      1  0.4428990000000  0.4215220000000  0.4386730000000 1.0
C      1  0.5271890000000  0.4425630000000  0.4451180000000 1.0
C      1  0.4706290000000  0.4661430000000  0.4795870000000 1.0
C      1  0.5738320000000  0.4947450000000  0.5512550000000 1.0
C      1  0.4815010000000  0.4723340000000  0.5047540000000 1.0
C      1  0.4567060000000  0.4830500000000  0.4359150000000 1.0
C      1  0.5691750000000  0.4469260000000  0.5363800000000 1.0
C      1  0.4595710000000  0.5767300000000  0.5798580000000 1.0
C      1  0.4094780000000  0.4492230000000  0.4955300000000 1.0
C      1  0.4599860000000  0.5449140000000  0.3940980000000 1.0
C      1  0.5039990000000  0.4374920000000  0.5555370000000 1.0
C      1  0.5685550000000  0.5389650000000  0.5311730000000 1.0
C      1  0.5652570000000  0.5456820000000  0.4471070000000 1.0
C      1  0.5317210000000  0.4191490000000  0.5133380000000 1.0
C      1  0.5246770000000  0.5204860000000  0.4357500000000 1.0
C      1  0.5736910000000  0.5716040000000  0.4000520000000 1.0
C      1  0.4387410000000  0.5020010000000  0.4775580000000 1.0
C      1  0.5158440000000  0.4797510000000  0.5368070000000 1.0
C      1  0.5037410000000  0.4223700000000  0.5089960000000 1.0
C      1  0.5704270000000  0.5593090000000  0.4232910000000 1.0
C      1  0.5861500000000  0.5398420000000  0.4648390000000 1.0
C      1  0.4457830000000  0.4260330000000  0.4663630000000 1.0
C      1  0.4824030000000  0.5386050000000  0.4067550000000 1.0
C      1  0.4760300000000  0.5168460000000  0.5541210000000 1.0
C      1  0.5661240000000  0.4677830000000  0.5551350000000 1.0
C      1  0.4519560000000  0.4645390000000  0.4170780000000 1.0
C      1  0.5766350000000  0.5835970000000  0.3770930000000 1.0
C      1  0.5244390000000  0.5496770000000  0.5050480000000 1.0
C      1  0.5326440000000  0.4669640000000  0.4359620000000 1.0
C      1  0.4150420000000  0.5629020000000  0.5515480000000 1.0
C      1  0.4889270000000  0.4335580000000  0.5315160000000 1.0
C      1  0.4983220000000  0.5323130000000  0.5469030000000 1.0
C      1  0.5425540000000  0.4817840000000  0.5954060000000 1.0
C      1  0.4156120000000  0.5217270000000  0.5158550000000 1.0
C      1  0.5173350000000  0.5402610000000  0.5670110000000 1.0
C      1  0.5263820000000  0.5470020000000  0.4772260000000 1.0
C      1  0.5916040000000  0.5364180000000  0.5152930000000 1.0
C      1  0.5318210000000  0.4934490000000  0.4336730000000 1.0
C      1  0.4232420000000  0.4301700000000  0.4827290000000 1.0
C      1  0.5142840000000  0.4255950000000  0.4611870000000 1.0
C      1  0.5420050000000  0.5087880000000  0.5945220000000 1.0
C      1  0.5238100000000  0.4927130000000  0.4910860000000 1.0
C      1  0.4702360000000  0.4377310000000  0.4749710000000 1.0
C      1  0.5037240000000  0.5305300000000  0.4202340000000 1.0
C      1  0.4572620000000  0.4701430000000  0.5459730000000 1.0
C      1  0.3910630000000  0.5758420000000  0.5542980000000 1.0
C      1  0.5550640000000  0.4291490000000  0.5219930000000 1.0
C      1  0.4376510000000  0.5505660000000  0.3819000000000 1.0
C      1  0.4075830000000  0.4751930000000  0.5016720000000 1.0
C      1  0.4568640000000  0.4854060000000  0.4638840000000 1.0
C      1  0.5069340000000  0.4836490000000  0.5103490000000 1.0
C      1  0.5415080000000  0.5258030000000  0.5717520000000 1.0
C      1  0.5385180000000  0.5379730000000  0.4534990000000 1.0
C      1  0.4172910000000  0.5415250000000  0.5335060000000 1.0
C      1  0.4458150000000  0.4383570000000  0.4178440000000 1.0
C      1  0.4607580000000  0.4949840000000  0.5556230000000 1.0
C      1  0.4851810000000  0.5743600000000  0.5868480000000 1.0
C      1  0.4370880000000  0.5711610000000  0.5668010000000 1.0
C      1  0.4948060000000  0.4246670000000  0.4816010000000 1.0
C      1  0.4714970000000  0.4559220000000  0.5263090000000 1.0
C      1  0.5195530000000  0.4609870000000  0.5579710000000 1.0
C      1  0.5479710000000  0.5542990000000  0.5197500000000 1.0
C      1  0.5024810000000  0.5417050000000  0.5206710000000 1.0
END
