TITL C-627110-360-1836 -3.51110273939664e-07 125000 -433.1574606811 0 0 72 (C1) n - 1
REM
REM in /home/nfs/bkarasulu/CARBON/AIRSS/Generating-Clusters/LCBOP/Only-C1/SD-CG/FIRE-CG
REM
REM
REM
REM
REM
REM ./C.cell (11c1c37f851c82e70ff6c80c92926a4b)
REM AIRSS Version 0.9.1 bugfix July 2018 build 013d7b7c2542+ Fri, 06 Jul 2018 19:26:36 +0100
REM compiler GCC version 9.2.1 20190827 (Red Hat 9.2.1-1)
REM options -cpp -mtune=generic -march=x86-64 -g -O0 -fpre-include=/usr/include/finclude/math-vector-fortran.h
REM seed -292439142 1587714876 -1089737597 992291236 -545051962 -204581375 1849994212 -22262749 -800822334 -1112815952 -1277366836 -182341547 -109469033 774238474 257014345 -69100434 303884492 -748383695 -2134090112 -1208627008 45181883 1866502470 1978492606 -808310722 -1346542082 12658312 -2079483324 1920890396 1363442054 -427110651 -1285562135 -1599964240 301959874
REM
CELL 1.54180   50.00000   50.00000   50.00000   90.00000   90.00000   90.00000
LATT -1
SFAC C  
C      1  0.5088640000000  0.5208790000000  0.5500080000000 1.0
C      1  0.5234650000000  0.4379360000000  0.4398300000000 1.0
C      1  0.4555520000000  0.5331250000000  0.5285560000000 1.0
C      1  0.4911990000000  0.4329790000000  0.5486980000000 1.0
C      1  0.4088310000000  0.5236390000000  0.5067200000000 1.0
C      1  0.4315050000000  0.5355480000000  0.5140500000000 1.0
C      1  0.5591640000000  0.4735870000000  0.4715150000000 1.0
C      1  0.5642640000000  0.4695960000000  0.5185660000000 1.0
C      1  0.5103000000000  0.5407580000000  0.4417520000000 1.0
C      1  0.4713860000000  0.4721920000000  0.4742810000000 1.0
C      1  0.5478630000000  0.4801810000000  0.5395620000000 1.0
C      1  0.4852310000000  0.5424950000000  0.4286590000000 1.0
C      1  0.5524180000000  0.5384530000000  0.5020000000000 1.0
C      1  0.5125570000000  0.5495130000000  0.4715170000000 1.0
C      1  0.4916310000000  0.4389500000000  0.5763910000000 1.0
C      1  0.4365050000000  0.5472810000000  0.5959510000000 1.0
C      1  0.4038600000000  0.4779350000000  0.5196120000000 1.0
C      1  0.5315300000000  0.5164430000000  0.5662760000000 1.0
C      1  0.5135200000000  0.4845020000000  0.4528340000000 1.0
C      1  0.5199520000000  0.4767350000000  0.5319200000000 1.0
C      1  0.5601550000000  0.5559330000000  0.4591040000000 1.0
C      1  0.5065800000000  0.4442070000000  0.4869230000000 1.0
C      1  0.3930080000000  0.5004440000000  0.5068030000000 1.0
C      1  0.4450320000000  0.4696590000000  0.3929200000000 1.0
C      1  0.5214530000000  0.4526700000000  0.4170830000000 1.0
C      1  0.4237280000000  0.4658060000000  0.5324900000000 1.0
C      1  0.5543330000000  0.5043320000000  0.5540590000000 1.0
C      1  0.4646570000000  0.4360180000000  0.5065500000000 1.0
C      1  0.4847280000000  0.4838080000000  0.4518170000000 1.0
C      1  0.5350400000000  0.5793670000000  0.5476320000000 1.0
C      1  0.5272060000000  0.4377130000000  0.4681720000000 1.0
C      1  0.4624870000000  0.5520430000000  0.4755240000000 1.0
C      1  0.4838040000000  0.4602330000000  0.5908020000000 1.0
C      1  0.4678750000000  0.4975600000000  0.4330160000000 1.0
C      1  0.5650950000000  0.5455230000000  0.5263870000000 1.0
C      1  0.5582240000000  0.5700600000000  0.5380610000000 1.0
C      1  0.4500030000000  0.4656300000000  0.5428290000000 1.0
C      1  0.3684080000000  0.4998030000000  0.4950320000000 1.0
C      1  0.5571060000000  0.4422390000000  0.5085740000000 1.0
C      1  0.4553880000000  0.4835110000000  0.4124120000000 1.0
C      1  0.4872990000000  0.5500850000000  0.4900110000000 1.0
C      1  0.4812770000000  0.5448370000000  0.5189130000000 1.0
C      1  0.4698970000000  0.4820380000000  0.5834580000000 1.0
C      1  0.5723810000000  0.5235600000000  0.5432390000000 1.0
C      1  0.5280480000000  0.5229090000000  0.4266870000000 1.0
C      1  0.4678830000000  0.4436970000000  0.5340490000000 1.0
C      1  0.5158400000000  0.4227040000000  0.5373150000000 1.0
C      1  0.4571220000000  0.4889270000000  0.5590450000000 1.0
C      1  0.5209180000000  0.5060440000000  0.4931340000000 1.0
C      1  0.5705620000000  0.5327730000000  0.4460800000000 1.0
C      1  0.5527010000000  0.4459400000000  0.4789460000000 1.0
C      1  0.5084400000000  0.5711560000000  0.5512560000000 1.0
C      1  0.5646570000000  0.4882060000000  0.4959250000000 1.0
C      1  0.4439590000000  0.5326640000000  0.5757070000000 1.0
C      1  0.4493020000000  0.5373000000000  0.4571060000000 1.0
C      1  0.4656690000000  0.4902060000000  0.4950940000000 1.0
C      1  0.5474280000000  0.5109440000000  0.4983820000000 1.0
C      1  0.4795600000000  0.4969130000000  0.5169220000000 1.0
C      1  0.5009940000000  0.4976510000000  0.5351380000000 1.0
C      1  0.5967580000000  0.5298930000000  0.4393240000000 1.0
C      1  0.4907000000000  0.5864300000000  0.5653420000000 1.0
C      1  0.5199640000000  0.5039480000000  0.4065420000000 1.0
C      1  0.5409460000000  0.5536260000000  0.4802280000000 1.0
C      1  0.5507280000000  0.5131430000000  0.4411110000000 1.0
C      1  0.5145420000000  0.4592290000000  0.5101140000000 1.0
C      1  0.4637550000000  0.5256540000000  0.4359700000000 1.0
C      1  0.5197840000000  0.4767150000000  0.4045220000000 1.0
C      1  0.5428020000000  0.4883190000000  0.4532860000000 1.0
C      1  0.5006230000000  0.5462760000000  0.5399610000000 1.0
C      1  0.4785290000000  0.4460780000000  0.4837910000000 1.0
C      1  0.4527840000000  0.5175220000000  0.5535330000000 1.0
C      1  0.5402380000000  0.4253300000000  0.5249790000000 1.0
END
