TITL C-627110-360-201 -1.20158242084345e-07 125000 -994.630981321986 0 0 162 (C1) n - 1
REM
REM in /home/nfs/bkarasulu/CARBON/AIRSS/Generating-Clusters/LCBOP/Only-C1/SD-CG/FIRE-CG
REM
REM
REM
REM
REM
REM ./C.cell (11c1c37f851c82e70ff6c80c92926a4b)
REM AIRSS Version 0.9.1 bugfix July 2018 build 013d7b7c2542+ Fri, 06 Jul 2018 19:26:36 +0100
REM compiler GCC version 9.2.1 20190827 (Red Hat 9.2.1-1)
REM options -cpp -mtune=generic -march=x86-64 -g -O0 -fpre-include=/usr/include/finclude/math-vector-fortran.h
REM seed -466330447 -1530333330 -1729858499 444496394 1877391871 1952165991 -662971824 1329102014 -582777139 1637311189 -283185558 -198740330 -635268512 -1846273589 -1386998598 -446204794 -1830658862 554040725 772425113 -748603048 1955173967 -1153963006 962870356 15129967 -1322344426 190828873 -2003758700 -2040211581 -1980245686 324237036 1583786073 1716713813 -325793064
REM
CELL 1.54180   50.00000   50.00000   50.00000   90.00000   90.00000   90.00000
LATT -1
SFAC C  
C      1  0.5040910000000  0.6115060000000  0.5494100000000 1.0
C      1  0.4222970000000  0.5235740000000  0.5744790000000 1.0
C      1  0.5283050000000  0.6167350000000  0.5362500000000 1.0
C      1  0.6017090000000  0.4311910000000  0.4923700000000 1.0
C      1  0.4765410000000  0.4215150000000  0.4675590000000 1.0
C      1  0.5247150000000  0.5039390000000  0.5784490000000 1.0
C      1  0.5666730000000  0.4145350000000  0.5264570000000 1.0
C      1  0.6215520000000  0.4505170000000  0.4832460000000 1.0
C      1  0.5460130000000  0.5887700000000  0.4167090000000 1.0
C      1  0.4088430000000  0.5924350000000  0.5074850000000 1.0
C      1  0.3994270000000  0.6255800000000  0.5472270000000 1.0
C      1  0.4148720000000  0.4808980000000  0.5354680000000 1.0
C      1  0.4633680000000  0.5547760000000  0.5904350000000 1.0
C      1  0.5792130000000  0.4881690000000  0.5849740000000 1.0
C      1  0.5715990000000  0.4196690000000  0.5543140000000 1.0
C      1  0.6094290000000  0.6448340000000  0.4881530000000 1.0
C      1  0.4150630000000  0.6411380000000  0.5620840000000 1.0
C      1  0.5828660000000  0.4850760000000  0.4642290000000 1.0
C      1  0.5836440000000  0.4450000000000  0.5603130000000 1.0
C      1  0.4311920000000  0.4187340000000  0.4363540000000 1.0
C      1  0.4541330000000  0.4032750000000  0.4752680000000 1.0
C      1  0.5669320000000  0.5956060000000  0.4348110000000 1.0
C      1  0.5709450000000  0.6104490000000  0.5037710000000 1.0
C      1  0.4135860000000  0.4073130000000  0.5111910000000 1.0
C      1  0.5912600000000  0.4690710000000  0.3886720000000 1.0
C      1  0.5707150000000  0.5838480000000  0.4935530000000 1.0
C      1  0.4988510000000  0.4016800000000  0.5486640000000 1.0
C      1  0.4181380000000  0.5517030000000  0.5334300000000 1.0
C      1  0.5936160000000  0.4171290000000  0.4678740000000 1.0
C      1  0.4803760000000  0.5836460000000  0.4136800000000 1.0
C      1  0.5391880000000  0.4764400000000  0.6174850000000 1.0
C      1  0.5746940000000  0.5151300000000  0.5477530000000 1.0
C      1  0.5508540000000  0.5663870000000  0.5039260000000 1.0
C      1  0.4264730000000  0.5085460000000  0.4230540000000 1.0
C      1  0.6139140000000  0.5661110000000  0.4798850000000 1.0
C      1  0.5538370000000  0.5203160000000  0.5292660000000 1.0
C      1  0.5475500000000  0.5598470000000  0.4135280000000 1.0
C      1  0.5738500000000  0.3977220000000  0.4719680000000 1.0
C      1  0.5909970000000  0.4924810000000  0.5382140000000 1.0
C      1  0.4796280000000  0.4685120000000  0.4461280000000 1.0
C      1  0.4795490000000  0.5084030000000  0.5920210000000 1.0
C      1  0.5166280000000  0.4405890000000  0.4869310000000 1.0
C      1  0.5750270000000  0.5158710000000  0.5763150000000 1.0
C      1  0.4815750000000  0.4604660000000  0.5182300000000 1.0
C      1  0.5795790000000  0.5722330000000  0.4463890000000 1.0
C      1  0.4268060000000  0.4341290000000  0.5507660000000 1.0
C      1  0.4492380000000  0.5652040000000  0.4971500000000 1.0
C      1  0.4099010000000  0.6012700000000  0.4807220000000 1.0
C      1  0.5323350000000  0.5213680000000  0.4713020000000 1.0
C      1  0.4801880000000  0.4843950000000  0.4222890000000 1.0
C      1  0.5572300000000  0.5394960000000  0.5085890000000 1.0
C      1  0.5001290000000  0.3973390000000  0.5030800000000 1.0
C      1  0.5654850000000  0.4016410000000  0.5738630000000 1.0
C      1  0.4742010000000  0.5108750000000  0.5625010000000 1.0
C      1  0.6177520000000  0.4580620000000  0.4549720000000 1.0
C      1  0.5132100000000  0.4696630000000  0.6085470000000 1.0
C      1  0.4949850000000  0.5071400000000  0.4146340000000 1.0
C      1  0.5290710000000  0.4650670000000  0.4840490000000 1.0
C      1  0.4735720000000  0.5708920000000  0.5429750000000 1.0
C      1  0.5525320000000  0.5062920000000  0.4278720000000 1.0
C      1  0.3810810000000  0.4337840000000  0.5349640000000 1.0
C      1  0.5906940000000  0.6286270000000  0.4962460000000 1.0
C      1  0.5772490000000  0.5211390000000  0.4288230000000 1.0
C      1  0.4589830000000  0.4794960000000  0.4046070000000 1.0
C      1  0.5987010000000  0.4359360000000  0.4460590000000 1.0
C      1  0.5233380000000  0.5722660000000  0.5017700000000 1.0
C      1  0.5001320000000  0.5564140000000  0.4976330000000 1.0
C      1  0.4583460000000  0.5065680000000  0.4806450000000 1.0
C      1  0.4629980000000  0.4982120000000  0.5389370000000 1.0
C      1  0.4174040000000  0.4761610000000  0.4823740000000 1.0
C      1  0.3763870000000  0.4812420000000  0.4551010000000 1.0
C      1  0.4712740000000  0.4515450000000  0.4678060000000 1.0
C      1  0.5056890000000  0.5323360000000  0.4809860000000 1.0
C      1  0.5764200000000  0.4526660000000  0.4063850000000 1.0
C      1  0.4921010000000  0.5304500000000  0.5510720000000 1.0
C      1  0.4397910000000  0.6485990000000  0.5684020000000 1.0
C      1  0.5448380000000  0.3991990000000  0.5138310000000 1.0
C      1  0.5094240000000  0.4575990000000  0.5621190000000 1.0
C      1  0.3841030000000  0.4363380000000  0.4345310000000 1.0
C      1  0.3701110000000  0.4574270000000  0.4440920000000 1.0
C      1  0.4909230000000  0.4462500000000  0.5424630000000 1.0
C      1  0.5667230000000  0.4588620000000  0.5113710000000 1.0
C      1  0.4292040000000  0.4121240000000  0.4644760000000 1.0
C      1  0.6041060000000  0.4913740000000  0.4005930000000 1.0
C      1  0.3428290000000  0.4621840000000  0.5244050000000 1.0
C      1  0.5587730000000  0.5336320000000  0.5907190000000 1.0
C      1  0.4683820000000  0.5641760000000  0.4271660000000 1.0
C      1  0.4849120000000  0.6271330000000  0.3934020000000 1.0
C      1  0.4200980000000  0.4620080000000  0.5555490000000 1.0
C      1  0.4242710000000  0.4989630000000  0.5854260000000 1.0
C      1  0.3973280000000  0.6076250000000  0.5277490000000 1.0
C      1  0.4544720000000  0.5592550000000  0.5633580000000 1.0
C      1  0.4307190000000  0.3847970000000  0.5121410000000 1.0
C      1  0.5135530000000  0.4486330000000  0.5885720000000 1.0
C      1  0.5373710000000  0.4742990000000  0.4589970000000 1.0
C      1  0.5478050000000  0.3937550000000  0.4833520000000 1.0
C      1  0.4525100000000  0.4302330000000  0.5661740000000 1.0
C      1  0.5127110000000  0.4939110000000  0.5334320000000 1.0
C      1  0.5171130000000  0.4847550000000  0.5594840000000 1.0
C      1  0.4878860000000  0.6327310000000  0.5577830000000 1.0
C      1  0.4176100000000  0.4596710000000  0.4117310000000 1.0
C      1  0.4099240000000  0.4493380000000  0.4866770000000 1.0
C      1  0.4502160000000  0.4525220000000  0.5877550000000 1.0
C      1  0.5584680000000  0.5233170000000  0.4850840000000 1.0
C      1  0.4669920000000  0.4631420000000  0.6073780000000 1.0
C      1  0.4127530000000  0.4216710000000  0.4858230000000 1.0
C      1  0.3976820000000  0.4909480000000  0.4686750000000 1.0
C      1  0.5881940000000  0.4729780000000  0.5611100000000 1.0
C      1  0.4320140000000  0.4834930000000  0.4109380000000 1.0
C      1  0.5505490000000  0.6179820000000  0.5216710000000 1.0
C      1  0.4433640000000  0.4847400000000  0.4948730000000 1.0
C      1  0.5085860000000  0.3961150000000  0.4433930000000 1.0
C      1  0.4293920000000  0.4716850000000  0.5803220000000 1.0
C      1  0.4579640000000  0.4124720000000  0.4254820000000 1.0
C      1  0.5352570000000  0.5015630000000  0.4506410000000 1.0
C      1  0.5172700000000  0.3965100000000  0.5259560000000 1.0
C      1  0.4838270000000  0.5368760000000  0.5996210000000 1.0
C      1  0.4834250000000  0.4100650000000  0.4399910000000 1.0
C      1  0.5101450000000  0.5478690000000  0.5939860000000 1.0
C      1  0.4109600000000  0.4359240000000  0.4253110000000 1.0
C      1  0.4644340000000  0.4614490000000  0.4942700000000 1.0
C      1  0.4780280000000  0.4226670000000  0.5530120000000 1.0
C      1  0.5446680000000  0.4747710000000  0.5057710000000 1.0
C      1  0.5930130000000  0.4638270000000  0.3619840000000 1.0
C      1  0.5398220000000  0.5026020000000  0.4030970000000 1.0
C      1  0.4746560000000  0.5639130000000  0.5123450000000 1.0
C      1  0.6073040000000  0.4851660000000  0.4487630000000 1.0
C      1  0.4386430000000  0.4922470000000  0.5242660000000 1.0
C      1  0.5137480000000  0.5416270000000  0.5419380000000 1.0
C      1  0.5168000000000  0.5189600000000  0.4014430000000 1.0
C      1  0.4987820000000  0.4193890000000  0.4863740000000 1.0
C      1  0.5801120000000  0.4343790000000  0.5104620000000 1.0
C      1  0.4865510000000  0.4880510000000  0.5249180000000 1.0
C      1  0.4068450000000  0.4214880000000  0.5346710000000 1.0
C      1  0.4961730000000  0.6051620000000  0.4050810000000 1.0
C      1  0.4345880000000  0.5305680000000  0.4363000000000 1.0
C      1  0.3878850000000  0.4807310000000  0.5273570000000 1.0
C      1  0.5251990000000  0.5459720000000  0.4028250000000 1.0
C      1  0.5885270000000  0.5739220000000  0.4732240000000 1.0
C      1  0.4500900000000  0.5526570000000  0.4451730000000 1.0
C      1  0.3695330000000  0.4590100000000  0.5288220000000 1.0
C      1  0.5754260000000  0.4478540000000  0.4340640000000 1.0
C      1  0.4961420000000  0.5850060000000  0.5562540000000 1.0
C      1  0.6010820000000  0.5033350000000  0.4262310000000 1.0
C      1  0.5238790000000  0.6033780000000  0.4088650000000 1.0
C      1  0.5640500000000  0.4790330000000  0.6070330000000 1.0
C      1  0.4822210000000  0.5173930000000  0.4754010000000 1.0
C      1  0.5274790000000  0.3901770000000  0.4625190000000 1.0
C      1  0.4248510000000  0.5692020000000  0.5127530000000 1.0
C      1  0.4871010000000  0.4835300000000  0.6065780000000 1.0
C      1  0.5714820000000  0.5494040000000  0.4292770000000 1.0
C      1  0.4273340000000  0.5907440000000  0.4630030000000 1.0
C      1  0.5637220000000  0.4663870000000  0.4525160000000 1.0
C      1  0.4519300000000  0.3836000000000  0.4952920000000 1.0
C      1  0.5091450000000  0.5722500000000  0.5787110000000 1.0
C      1  0.4302880000000  0.5449250000000  0.5575280000000 1.0
C      1  0.4660480000000  0.6454520000000  0.5658580000000 1.0
C      1  0.5370670000000  0.4976930000000  0.5206670000000 1.0
C      1  0.5798650000000  0.5029190000000  0.4858830000000 1.0
C      1  0.5310550000000  0.5290710000000  0.5903540000000 1.0
C      1  0.4444080000000  0.5684080000000  0.4684080000000 1.0
C      1  0.5947340000000  0.4958990000000  0.5100110000000 1.0
END
