TITL C-627111-6168-1001 -4.87580513532996e-07 125000 -706.080028810958 0 0 115 (C1) n - 1
REM
REM in /home/nfs/bkarasulu/CARBON/AIRSS/Generating-Clusters/LCBOP/Only-C1/SD-CG/FIRE-CG
REM
REM
REM
REM
REM
REM ./C.cell (11c1c37f851c82e70ff6c80c92926a4b)
REM AIRSS Version 0.9.1 bugfix July 2018 build 013d7b7c2542+ Fri, 06 Jul 2018 19:26:36 +0100
REM compiler GCC version 9.2.1 20190827 (Red Hat 9.2.1-1)
REM options -cpp -mtune=generic -march=x86-64 -g -O0 -fpre-include=/usr/include/finclude/math-vector-fortran.h
REM seed -500238120 1567834833 -716818298 1438352976 633553944 1396377418 -1684152337 1279516665 2042014919 678652691 -545729362 190948555 -2114798793 -428952485 904533007 -446358492 935272087 -264128735 1016716368 -804030197 1169074180 1827946035 -1426861919 1786496116 1784732158 -487226549 -910270977 456261077 1746214584 -1846060573 642568167 -1120161823 -2090234000
REM
CELL 1.54180   50.00000   50.00000   50.00000   90.00000   90.00000   90.00000
LATT -1
SFAC C  
C      1  0.5370040000000  0.5034430000000  0.5236710000000 1.0
C      1  0.5537000000000  0.5665200000000  0.5438940000000 1.0
C      1  0.4175320000000  0.5811290000000  0.5205770000000 1.0
C      1  0.4489220000000  0.4689740000000  0.5797990000000 1.0
C      1  0.5668250000000  0.5727210000000  0.4155560000000 1.0
C      1  0.4925200000000  0.4869420000000  0.5253160000000 1.0
C      1  0.4732050000000  0.5398670000000  0.4997700000000 1.0
C      1  0.5468900000000  0.5528820000000  0.4140930000000 1.0
C      1  0.4039630000000  0.4778650000000  0.4418840000000 1.0
C      1  0.4642670000000  0.5556580000000  0.5466930000000 1.0
C      1  0.6167200000000  0.5102570000000  0.4896740000000 1.0
C      1  0.4835860000000  0.5747190000000  0.5566060000000 1.0
C      1  0.4572080000000  0.5293260000000  0.4788040000000 1.0
C      1  0.5082270000000  0.5632480000000  0.5654910000000 1.0
C      1  0.4202740000000  0.4576590000000  0.4335370000000 1.0
C      1  0.5332520000000  0.5372030000000  0.4586620000000 1.0
C      1  0.5912770000000  0.4586080000000  0.4425600000000 1.0
C      1  0.5328550000000  0.5976700000000  0.4843000000000 1.0
C      1  0.5868980000000  0.5917870000000  0.4575170000000 1.0
C      1  0.4121020000000  0.4249020000000  0.4917270000000 1.0
C      1  0.6067440000000  0.4689990000000  0.4648680000000 1.0
C      1  0.5142930000000  0.4424230000000  0.4250660000000 1.0
C      1  0.4354300000000  0.5136990000000  0.4753880000000 1.0
C      1  0.4703660000000  0.4847020000000  0.5081490000000 1.0
C      1  0.5816080000000  0.5884220000000  0.4313820000000 1.0
C      1  0.5069570000000  0.4978220000000  0.5997780000000 1.0
C      1  0.5106320000000  0.6003560000000  0.4390700000000 1.0
C      1  0.5278940000000  0.4599750000000  0.5105150000000 1.0
C      1  0.3904560000000  0.4978860000000  0.4546880000000 1.0
C      1  0.5067560000000  0.5712700000000  0.4331670000000 1.0
C      1  0.5827620000000  0.5484170000000  0.4774020000000 1.0
C      1  0.5548050000000  0.4206820000000  0.5298080000000 1.0
C      1  0.5733330000000  0.4722800000000  0.5348450000000 1.0
C      1  0.4641150000000  0.4267780000000  0.4271730000000 1.0
C      1  0.4918070000000  0.4238650000000  0.4346280000000 1.0
C      1  0.5588160000000  0.4517380000000  0.4758610000000 1.0
C      1  0.4250600000000  0.4941800000000  0.4928220000000 1.0
C      1  0.4330120000000  0.4699330000000  0.5317930000000 1.0
C      1  0.5346730000000  0.4426610000000  0.4885560000000 1.0
C      1  0.5183730000000  0.5593780000000  0.5092270000000 1.0
C      1  0.4487230000000  0.4478640000000  0.5353420000000 1.0
C      1  0.4653100000000  0.4725760000000  0.6027830000000 1.0
C      1  0.5465720000000  0.4061610000000  0.4418660000000 1.0
C      1  0.4649480000000  0.4663200000000  0.4635300000000 1.0
C      1  0.5237710000000  0.5133260000000  0.5813160000000 1.0
C      1  0.4434410000000  0.4892560000000  0.5142900000000 1.0
C      1  0.5861240000000  0.4778400000000  0.5082660000000 1.0
C      1  0.5155440000000  0.5223450000000  0.4755910000000 1.0
C      1  0.4331790000000  0.4075820000000  0.4940440000000 1.0
C      1  0.5564070000000  0.5841790000000  0.4956510000000 1.0
C      1  0.4882330000000  0.6138120000000  0.4264410000000 1.0
C      1  0.5667510000000  0.4439100000000  0.5383690000000 1.0
C      1  0.4987820000000  0.4211800000000  0.4627590000000 1.0
C      1  0.5499880000000  0.5085730000000  0.5692900000000 1.0
C      1  0.4709770000000  0.5951340000000  0.4152730000000 1.0
C      1  0.4290200000000  0.4901060000000  0.5703170000000 1.0
C      1  0.4681910000000  0.4610380000000  0.4912490000000 1.0
C      1  0.4570880000000  0.5348660000000  0.5657470000000 1.0
C      1  0.4122680000000  0.4792170000000  0.5485600000000 1.0
C      1  0.4398110000000  0.4393430000000  0.4281250000000 1.0
C      1  0.5465490000000  0.5658390000000  0.5165650000000 1.0
C      1  0.4857450000000  0.4020680000000  0.5056640000000 1.0
C      1  0.5645170000000  0.4763310000000  0.4895620000000 1.0
C      1  0.6083030000000  0.4833400000000  0.4902360000000 1.0
C      1  0.5540130000000  0.4936220000000  0.5447400000000 1.0
C      1  0.5335520000000  0.4056970000000  0.5171000000000 1.0
C      1  0.5280470000000  0.6087630000000  0.4591840000000 1.0
C      1  0.5273970000000  0.5523530000000  0.4352310000000 1.0
C      1  0.5695700000000  0.5289540000000  0.5722730000000 1.0
C      1  0.5467130000000  0.3934230000000  0.4660090000000 1.0
C      1  0.5126410000000  0.4449800000000  0.4714190000000 1.0
C      1  0.3833520000000  0.5156450000000  0.4743370000000 1.0
C      1  0.5030660000000  0.5339190000000  0.5025790000000 1.0
C      1  0.4324710000000  0.5193990000000  0.5637010000000 1.0
C      1  0.5459860000000  0.5348090000000  0.3936340000000 1.0
C      1  0.5387800000000  0.4866210000000  0.4993690000000 1.0
C      1  0.4582570000000  0.4472990000000  0.5620920000000 1.0
C      1  0.3845410000000  0.5258090000000  0.4998870000000 1.0
C      1  0.5731420000000  0.5508100000000  0.5567680000000 1.0
C      1  0.5432740000000  0.4339000000000  0.4332510000000 1.0
C      1  0.4418070000000  0.5767290000000  0.5086790000000 1.0
C      1  0.5055920000000  0.4117400000000  0.5261240000000 1.0
C      1  0.5211340000000  0.4943320000000  0.4763830000000 1.0
C      1  0.5009340000000  0.4358190000000  0.5415470000000 1.0
C      1  0.5017980000000  0.3998410000000  0.4816360000000 1.0
C      1  0.5060240000000  0.5367510000000  0.5752040000000 1.0
C      1  0.4752790000000  0.4733040000000  0.4389400000000 1.0
C      1  0.6055380000000  0.5341880000000  0.4851330000000 1.0
C      1  0.4949170000000  0.4713040000000  0.5997460000000 1.0
C      1  0.4593310000000  0.5565070000000  0.5187730000000 1.0
C      1  0.5644360000000  0.4493010000000  0.4480600000000 1.0
C      1  0.4782970000000  0.6014540000000  0.5580760000000 1.0
C      1  0.4812620000000  0.5696490000000  0.4193090000000 1.0
C      1  0.4836840000000  0.4354020000000  0.5637950000000 1.0
C      1  0.4596540000000  0.4129650000000  0.5033260000000 1.0
C      1  0.5301740000000  0.3949950000000  0.4890420000000 1.0
C      1  0.6017750000000  0.4578160000000  0.4173180000000 1.0
C      1  0.4009300000000  0.4495140000000  0.4942350000000 1.0
C      1  0.5069870000000  0.4614120000000  0.5292270000000 1.0
C      1  0.5788330000000  0.5767050000000  0.4799070000000 1.0
C      1  0.5137490000000  0.4723240000000  0.4602290000000 1.0
C      1  0.3928070000000  0.5177190000000  0.5263760000000 1.0
C      1  0.4496440000000  0.5920650000000  0.4873400000000 1.0
C      1  0.5328720000000  0.5752910000000  0.5608050000000 1.0
C      1  0.4825540000000  0.5145030000000  0.6076090000000 1.0
C      1  0.5606300000000  0.5353480000000  0.4659000000000 1.0
C      1  0.4014390000000  0.4772900000000  0.5011120000000 1.0
C      1  0.5089730000000  0.5111040000000  0.5232550000000 1.0
C      1  0.4785020000000  0.5308480000000  0.5844580000000 1.0
C      1  0.4604210000000  0.4401540000000  0.5102330000000 1.0
C      1  0.3936480000000  0.4886880000000  0.5281390000000 1.0
C      1  0.4618920000000  0.4973930000000  0.6173290000000 1.0
C      1  0.5033610000000  0.4691940000000  0.4335610000000 1.0
C      1  0.5102830000000  0.5839790000000  0.4963000000000 1.0
C      1  0.4106780000000  0.5293140000000  0.5461650000000 1.0
END
