TITL C-627111-6168-1953 2.24443295103627e-07 125000 -954.653607225061 0 0 157 (C1) n - 1
REM
REM in /home/nfs/bkarasulu/CARBON/AIRSS/Generating-Clusters/LCBOP/Only-C1/SD-CG/FIRE-CG
REM
REM
REM
REM
REM
REM ./C.cell (11c1c37f851c82e70ff6c80c92926a4b)
REM AIRSS Version 0.9.1 bugfix July 2018 build 013d7b7c2542+ Fri, 06 Jul 2018 19:26:36 +0100
REM compiler GCC version 9.2.1 20190827 (Red Hat 9.2.1-1)
REM options -cpp -mtune=generic -march=x86-64 -g -O0 -fpre-include=/usr/include/finclude/math-vector-fortran.h
REM seed 5637130 304026008 747579442 -155390253 1754204032 1230118401 36236453 -1664719622 1533021805 411746867 692584847 -3129709 -1926906410 277652562 -1278309588 -1578974678 -974299430 -2134378097 996566449 -176458033 77394679 1481067692 -1228806048 716633238 1553612452 320200673 1868472540 -2090524902 684128176 -678296788 1314810913 1078720279 -806474744
REM
CELL 1.54180   50.00000   50.00000   50.00000   90.00000   90.00000   90.00000
LATT -1
SFAC C  
C      1  0.4703650000000  0.4665170000000  0.4710270000000 1.0
C      1  0.5166370000000  0.5506910000000  0.4207470000000 1.0
C      1  0.5468980000000  0.4756850000000  0.4855260000000 1.0
C      1  0.3796330000000  0.5011560000000  0.5092500000000 1.0
C      1  0.4209770000000  0.4552510000000  0.5294440000000 1.0
C      1  0.4474290000000  0.4190210000000  0.5186200000000 1.0
C      1  0.5820930000000  0.5067370000000  0.4888570000000 1.0
C      1  0.5776490000000  0.5304700000000  0.4707720000000 1.0
C      1  0.5743830000000  0.4992030000000  0.5477170000000 1.0
C      1  0.5783460000000  0.4082700000000  0.4583240000000 1.0
C      1  0.5361530000000  0.4626220000000  0.4235880000000 1.0
C      1  0.4696760000000  0.6073210000000  0.5217640000000 1.0
C      1  0.6251390000000  0.5349580000000  0.5120030000000 1.0
C      1  0.3843110000000  0.4764550000000  0.4415950000000 1.0
C      1  0.5949130000000  0.4804290000000  0.4833670000000 1.0
C      1  0.4553630000000  0.5076660000000  0.5373290000000 1.0
C      1  0.5328640000000  0.4992460000000  0.4783910000000 1.0
C      1  0.5302670000000  0.4096030000000  0.5602560000000 1.0
C      1  0.5664450000000  0.4745700000000  0.5616250000000 1.0
C      1  0.5271330000000  0.4871180000000  0.4350630000000 1.0
C      1  0.4496800000000  0.4171470000000  0.4700440000000 1.0
C      1  0.5001110000000  0.3739800000000  0.5606760000000 1.0
C      1  0.5231610000000  0.5914860000000  0.4758580000000 1.0
C      1  0.5534520000000  0.5331410000000  0.4524830000000 1.0
C      1  0.5302200000000  0.6116850000000  0.4965170000000 1.0
C      1  0.5228960000000  0.4824250000000  0.5209460000000 1.0
C      1  0.4098460000000  0.4634020000000  0.5544510000000 1.0
C      1  0.4518750000000  0.3944210000000  0.5291140000000 1.0
C      1  0.4930510000000  0.4418270000000  0.5462870000000 1.0
C      1  0.4744290000000  0.5233850000000  0.5190110000000 1.0
C      1  0.4703960000000  0.5689530000000  0.4292320000000 1.0
C      1  0.4655240000000  0.4424400000000  0.4289150000000 1.0
C      1  0.5625820000000  0.5812480000000  0.5000220000000 1.0
C      1  0.5286990000000  0.5803500000000  0.5634590000000 1.0
C      1  0.4531490000000  0.6068240000000  0.5000760000000 1.0
C      1  0.5857550000000  0.4478790000000  0.5227140000000 1.0
C      1  0.5593070000000  0.4222960000000  0.4417280000000 1.0
C      1  0.5406490000000  0.4294690000000  0.5208630000000 1.0
C      1  0.4803240000000  0.5073690000000  0.4421540000000 1.0
C      1  0.4137290000000  0.4427640000000  0.5980940000000 1.0
C      1  0.4008240000000  0.5190290000000  0.5139160000000 1.0
C      1  0.4872540000000  0.5056200000000  0.4951960000000 1.0
C      1  0.4995600000000  0.5261880000000  0.5389190000000 1.0
C      1  0.4214480000000  0.5626720000000  0.4406330000000 1.0
C      1  0.4932160000000  0.4375570000000  0.5749980000000 1.0
C      1  0.5493400000000  0.4283210000000  0.5496640000000 1.0
C      1  0.4137150000000  0.5262990000000  0.5598250000000 1.0
C      1  0.4432410000000  0.4285910000000  0.4434940000000 1.0
C      1  0.4326350000000  0.4965010000000  0.4798980000000 1.0
C      1  0.5887570000000  0.5351260000000  0.5760080000000 1.0
C      1  0.5571470000000  0.4562570000000  0.4701590000000 1.0
C      1  0.5042100000000  0.5021910000000  0.4271240000000 1.0
C      1  0.5417300000000  0.4330200000000  0.4629250000000 1.0
C      1  0.5819080000000  0.4655730000000  0.4304510000000 1.0
C      1  0.3978380000000  0.5292260000000  0.5817840000000 1.0
C      1  0.4507920000000  0.5022840000000  0.5846480000000 1.0
C      1  0.4500880000000  0.4725450000000  0.5866850000000 1.0
C      1  0.4218270000000  0.5146620000000  0.4957010000000 1.0
C      1  0.5200080000000  0.4847670000000  0.5494080000000 1.0
C      1  0.4822130000000  0.4509450000000  0.4507640000000 1.0
C      1  0.5146510000000  0.5064560000000  0.3736250000000 1.0
C      1  0.4708870000000  0.5456000000000  0.4747040000000 1.0
C      1  0.4025730000000  0.5302480000000  0.4108420000000 1.0
C      1  0.4724390000000  0.5196140000000  0.5935810000000 1.0
C      1  0.4368500000000  0.5975770000000  0.4802590000000 1.0
C      1  0.4243390000000  0.5816250000000  0.4620540000000 1.0
C      1  0.5466210000000  0.6048900000000  0.4351510000000 1.0
C      1  0.5703240000000  0.5567790000000  0.5730290000000 1.0
C      1  0.4745530000000  0.5667760000000  0.4567220000000 1.0
C      1  0.5230960000000  0.5161780000000  0.5964250000000 1.0
C      1  0.4832100000000  0.5691310000000  0.5801470000000 1.0
C      1  0.5167310000000  0.5072550000000  0.5023200000000 1.0
C      1  0.4736450000000  0.4545490000000  0.5888910000000 1.0
C      1  0.4964740000000  0.3888140000000  0.5838410000000 1.0
C      1  0.5210400000000  0.4174990000000  0.4735830000000 1.0
C      1  0.5012310000000  0.4027260000000  0.4878640000000 1.0
C      1  0.5172280000000  0.5236910000000  0.4138130000000 1.0
C      1  0.5721330000000  0.5700360000000  0.5474440000000 1.0
C      1  0.4810430000000  0.5195230000000  0.4686760000000 1.0
C      1  0.4236450000000  0.4730770000000  0.4044650000000 1.0
C      1  0.5793120000000  0.5513570000000  0.5268300000000 1.0
C      1  0.5088380000000  0.3909880000000  0.5135010000000 1.0
C      1  0.4871660000000  0.5081160000000  0.3838300000000 1.0
C      1  0.3807660000000  0.4845510000000  0.4864120000000 1.0
C      1  0.4213220000000  0.5600510000000  0.5266630000000 1.0
C      1  0.4483880000000  0.4826030000000  0.4620080000000 1.0
C      1  0.5338600000000  0.5433110000000  0.6023470000000 1.0
C      1  0.5569750000000  0.5105200000000  0.6264730000000 1.0
C      1  0.5367210000000  0.5572040000000  0.4413230000000 1.0
C      1  0.4540720000000  0.4954940000000  0.4368280000000 1.0
C      1  0.4068220000000  0.5372150000000  0.5345820000000 1.0
C      1  0.5682210000000  0.4285730000000  0.5070670000000 1.0
C      1  0.5356430000000  0.5850640000000  0.4506170000000 1.0
C      1  0.5189600000000  0.5671590000000  0.4916330000000 1.0
C      1  0.3972620000000  0.4537400000000  0.4540120000000 1.0
C      1  0.5457120000000  0.5577510000000  0.4969700000000 1.0
C      1  0.4958890000000  0.5650850000000  0.5073120000000 1.0
C      1  0.5397480000000  0.5071910000000  0.4526470000000 1.0
C      1  0.4760760000000  0.5352870000000  0.3942600000000 1.0
C      1  0.4846000000000  0.4753710000000  0.4931990000000 1.0
C      1  0.5708200000000  0.4489340000000  0.5493690000000 1.0
C      1  0.5425900000000  0.5611690000000  0.5821520000000 1.0
C      1  0.4162090000000  0.4371690000000  0.4415540000000 1.0
C      1  0.4975490000000  0.5014130000000  0.5575950000000 1.0
C      1  0.4475800000000  0.4441350000000  0.5323580000000 1.0
C      1  0.4278330000000  0.5200490000000  0.4033200000000 1.0
C      1  0.5165840000000  0.3887310000000  0.5413600000000 1.0
C      1  0.6183750000000  0.4954770000000  0.5532980000000 1.0
C      1  0.4762160000000  0.4812270000000  0.3908380000000 1.0
C      1  0.5961870000000  0.5120460000000  0.5612530000000 1.0
C      1  0.5785590000000  0.4122670000000  0.4857240000000 1.0
C      1  0.4384940000000  0.5127770000000  0.5602160000000 1.0
C      1  0.5510140000000  0.5376450000000  0.6253770000000 1.0
C      1  0.4702620000000  0.4582670000000  0.5401820000000 1.0
C      1  0.4338490000000  0.4250450000000  0.4931770000000 1.0
C      1  0.3837150000000  0.4716790000000  0.5559370000000 1.0
C      1  0.4732390000000  0.4858750000000  0.5456730000000 1.0
C      1  0.3857900000000  0.5254760000000  0.4546880000000 1.0
C      1  0.4746960000000  0.4041100000000  0.4766720000000 1.0
C      1  0.5490820000000  0.5893000000000  0.5431760000000 1.0
C      1  0.5945390000000  0.5520960000000  0.4793440000000 1.0
C      1  0.4979840000000  0.5099290000000  0.5856700000000 1.0
C      1  0.5548320000000  0.4780400000000  0.5872350000000 1.0
C      1  0.4136440000000  0.4464480000000  0.5014330000000 1.0
C      1  0.6215710000000  0.4869300000000  0.5256580000000 1.0
C      1  0.5238260000000  0.5279770000000  0.5233020000000 1.0
C      1  0.4356840000000  0.4953790000000  0.4148970000000 1.0
C      1  0.5532690000000  0.5359690000000  0.5171260000000 1.0
C      1  0.4712920000000  0.5481220000000  0.5923060000000 1.0
C      1  0.3792740000000  0.4982720000000  0.4600540000000 1.0
C      1  0.5433540000000  0.4962940000000  0.6050910000000 1.0
C      1  0.4900210000000  0.5575060000000  0.4112050000000 1.0
C      1  0.4704320000000  0.4577660000000  0.4045280000000 1.0
C      1  0.4699590000000  0.5501970000000  0.5047670000000 1.0
C      1  0.5051830000000  0.4621090000000  0.5077480000000 1.0
C      1  0.5667200000000  0.5056970000000  0.5179310000000 1.0
C      1  0.4005530000000  0.5421840000000  0.4368670000000 1.0
C      1  0.5603460000000  0.4456230000000  0.4243290000000 1.0
C      1  0.4246910000000  0.4599290000000  0.5794130000000 1.0
C      1  0.5411530000000  0.5013960000000  0.3779980000000 1.0
C      1  0.4860890000000  0.5997400000000  0.5421420000000 1.0
C      1  0.5642900000000  0.4963110000000  0.3914460000000 1.0
C      1  0.6330340000000  0.5090670000000  0.5115030000000 1.0
C      1  0.6047650000000  0.5710730000000  0.4626550000000 1.0
C      1  0.5489270000000  0.6014040000000  0.5165100000000 1.0
C      1  0.6035940000000  0.4684770000000  0.5102920000000 1.0
C      1  0.6015320000000  0.5498940000000  0.5075800000000 1.0
C      1  0.4475480000000  0.5398960000000  0.4011730000000 1.0
C      1  0.3954410000000  0.4588540000000  0.4832430000000 1.0
C      1  0.5117290000000  0.4387770000000  0.5231220000000 1.0
C      1  0.5811230000000  0.4862390000000  0.4105080000000 1.0
C      1  0.5834210000000  0.4657460000000  0.4599610000000 1.0
C      1  0.4997830000000  0.5839950000000  0.5620920000000 1.0
C      1  0.4454990000000  0.5623500000000  0.5154050000000 1.0
C      1  0.4438520000000  0.5612140000000  0.4212560000000 1.0
C      1  0.5092220000000  0.4148430000000  0.5813480000000 1.0
C      1  0.5508530000000  0.4799300000000  0.5128800000000 1.0
END
