TITL C-627110-360-1160 0.00194513287094994 125000 -315.126611511873 0 0 52 (C1) n - 1
REM
REM in /home/nfs/bkarasulu/CARBON/AIRSS/Generating-Clusters/LCBOP/Only-C1/SD-CG/FIRE-CG
REM
REM
REM
REM
REM
REM ./C.cell (11c1c37f851c82e70ff6c80c92926a4b)
REM AIRSS Version 0.9.1 bugfix July 2018 build 013d7b7c2542+ Fri, 06 Jul 2018 19:26:36 +0100
REM compiler GCC version 9.2.1 20190827 (Red Hat 9.2.1-1)
REM options -cpp -mtune=generic -march=x86-64 -g -O0 -fpre-include=/usr/include/finclude/math-vector-fortran.h
REM seed -1915946779 -1095835877 -446753659 788491254 231354325 1591884887 1415235835 -1755560370 377287379 -155846656 -703784618 -37887737 372677395 -1232367015 2013297976 -2088728512 -1206814915 -399056914 -478412788 564893001 -1815020480 1040935194 -2124758891 1439133950 -1637147435 1236939829 -957532711 -437005702 782002915 1938315843 1643932053 1247356422 1098949300
REM
CELL 1.54180   50.00000   50.00000   50.00000   90.00000   90.00000   90.00000
LATT -1
SFAC C  
C      1  0.4714370000000  0.4067380000000  0.5346390000000 1.0
C      1  0.5139470000000  0.4127080000000  0.5570590000000 1.0
C      1  0.4811850000000  0.6359290000000  0.4941030000000 1.0
C      1  0.5615390000000  0.5271080000000  0.5312300000000 1.0
C      1  0.5010790000000  0.5332350000000  0.4549310000000 1.0
C      1  0.5292490000000  0.5626540000000  0.5459390000000 1.0
C      1  0.4363650000000  0.5085010000000  0.5117990000000 1.0
C      1  0.4998420000000  0.4031880000000  0.5347510000000 1.0
C      1  0.5576720000000  0.4577280000000  0.5000460000000 1.0
C      1  0.4929550000000  0.6127530000000  0.4921210000000 1.0
C      1  0.5583070000000  0.5449710000000  0.4797930000000 1.0
C      1  0.4632240000000  0.4299220000000  0.5208070000000 1.0
C      1  0.4562590000000  0.5482930000000  0.5404580000000 1.0
C      1  0.5465380000000  0.4975070000000  0.4768870000000 1.0
C      1  0.4176970000000  0.5600400000000  0.4550950000000 1.0
C      1  0.4917110000000  0.4369970000000  0.4813800000000 1.0
C      1  0.5409870000000  0.4378430000000  0.4925720000000 1.0
C      1  0.4773450000000  0.5622740000000  0.5493530000000 1.0
C      1  0.4426130000000  0.5288860000000  0.5280120000000 1.0
C      1  0.4345180000000  0.5402390000000  0.4530890000000 1.0
C      1  0.5151990000000  0.5633560000000  0.4913300000000 1.0
C      1  0.5123740000000  0.4029370000000  0.5093530000000 1.0
C      1  0.5200590000000  0.4348580000000  0.5705950000000 1.0
C      1  0.4541890000000  0.3893630000000  0.5465400000000 1.0
C      1  0.4990390000000  0.5188550000000  0.5026340000000 1.0
C      1  0.5190540000000  0.4612130000000  0.5741720000000 1.0
C      1  0.4678790000000  0.4742990000000  0.4502170000000 1.0
C      1  0.5280900000000  0.5298860000000  0.4459350000000 1.0
C      1  0.5009650000000  0.4920110000000  0.4938340000000 1.0
C      1  0.5467020000000  0.5509360000000  0.5270670000000 1.0
C      1  0.5162310000000  0.4238850000000  0.4904980000000 1.0
C      1  0.4767090000000  0.4472730000000  0.5036250000000 1.0
C      1  0.5492420000000  0.5230830000000  0.4641640000000 1.0
C      1  0.5673910000000  0.5032680000000  0.5200580000000 1.0
C      1  0.4830460000000  0.4933800000000  0.4308510000000 1.0
C      1  0.4492790000000  0.4928030000000  0.4641060000000 1.0
C      1  0.5138270000000  0.4686250000000  0.4522180000000 1.0
C      1  0.4793760000000  0.5205600000000  0.4414120000000 1.0
C      1  0.5045790000000  0.5889960000000  0.4906310000000 1.0
C      1  0.4889420000000  0.4539400000000  0.4585360000000 1.0
C      1  0.5132900000000  0.4864840000000  0.5682000000000 1.0
C      1  0.5035450000000  0.5673480000000  0.5522760000000 1.0
C      1  0.5421970000000  0.5576160000000  0.4995180000000 1.0
C      1  0.4380660000000  0.4929990000000  0.4898990000000 1.0
C      1  0.5060280000000  0.5072690000000  0.5532810000000 1.0
C      1  0.5210230000000  0.4851900000000  0.4742120000000 1.0
C      1  0.4845240000000  0.4737630000000  0.5079550000000 1.0
C      1  0.5093870000000  0.4822720000000  0.4272690000000 1.0
C      1  0.5611510000000  0.4859400000000  0.4986440000000 1.0
C      1  0.5003590000000  0.5400730000000  0.4833510000000 1.0
C      1  0.5007990000000  0.5203520000000  0.5305980000000 1.0
C      1  0.4529900000000  0.5196530000000  0.4529580000000 1.0
END
