TITL C-627109-622-2009 0.000108095641431903 125000 -676.2646397626 0 0 112 (C1) n - 1
REM
REM in /home/nfs/bkarasulu/CARBON/AIRSS/Generating-Clusters/LCBOP/Only-C1/SD-CG/FIRE-CG
REM
REM
REM
REM
REM
REM ./C.cell (11c1c37f851c82e70ff6c80c92926a4b)
REM AIRSS Version 0.9.1 bugfix July 2018 build 013d7b7c2542+ Fri, 06 Jul 2018 19:26:36 +0100
REM compiler GCC version 9.2.1 20190827 (Red Hat 9.2.1-1)
REM options -cpp -mtune=generic -march=x86-64 -g -O0 -fpre-include=/usr/include/finclude/math-vector-fortran.h
REM seed -2129914700 -2029816379 -1443700827 -270800608 1911362317 -546075303 337128092 -1427012838 -1466522383 1265614714 1519765895 -1357049727 721562337 -606954365 1615379317 -2107672059 1976923560 -1571028607 1555308322 -1821954782 -1665911222 856350098 -1762562618 -1617683513 271507271 -563119932 1555979468 1547467221 -667036461 809976723 355200241 36101092 1829539456
REM
CELL 1.54180   50.00000   50.00000   50.00000   90.00000   90.00000   90.00000
LATT -1
SFAC C  
C      1  0.4463070000000  0.5628400000000  0.5401410000000 1.0
C      1  0.5540320000000  0.4641930000000  0.4452890000000 1.0
C      1  0.4288010000000  0.5143510000000  0.5937010000000 1.0
C      1  0.4592600000000  0.5828080000000  0.6155320000000 1.0
C      1  0.5036440000000  0.4648130000000  0.5525610000000 1.0
C      1  0.5129510000000  0.5515500000000  0.5282310000000 1.0
C      1  0.5452680000000  0.5340090000000  0.4743930000000 1.0
C      1  0.4847100000000  0.4858700000000  0.5502140000000 1.0
C      1  0.4774790000000  0.4046110000000  0.4549870000000 1.0
C      1  0.4564290000000  0.5122010000000  0.5989100000000 1.0
C      1  0.4196890000000  0.5190310000000  0.5456860000000 1.0
C      1  0.4283750000000  0.4766350000000  0.4976920000000 1.0
C      1  0.4877970000000  0.5282290000000  0.4576170000000 1.0
C      1  0.4425670000000  0.4645390000000  0.5420430000000 1.0
C      1  0.5819430000000  0.4435470000000  0.4832500000000 1.0
C      1  0.5796610000000  0.4627480000000  0.4604830000000 1.0
C      1  0.4875360000000  0.5000430000000  0.4942810000000 1.0
C      1  0.5443970000000  0.5630410000000  0.4722290000000 1.0
C      1  0.5194330000000  0.4607260000000  0.5759510000000 1.0
C      1  0.5451040000000  0.5065280000000  0.4654240000000 1.0
C      1  0.4435270000000  0.4622860000000  0.4788780000000 1.0
C      1  0.4710090000000  0.5462290000000  0.5000870000000 1.0
C      1  0.4536330000000  0.4415690000000  0.5549250000000 1.0
C      1  0.4195780000000  0.5200860000000  0.4777830000000 1.0
C      1  0.4965680000000  0.5458810000000  0.3414600000000 1.0
C      1  0.5194170000000  0.5758860000000  0.5134130000000 1.0
C      1  0.4701410000000  0.4592390000000  0.4773650000000 1.0
C      1  0.5605720000000  0.4181610000000  0.5170780000000 1.0
C      1  0.5486870000000  0.5741540000000  0.4470380000000 1.0
C      1  0.5566300000000  0.5311300000000  0.5578630000000 1.0
C      1  0.4910810000000  0.4725570000000  0.4901650000000 1.0
C      1  0.4902670000000  0.5424640000000  0.5450650000000 1.0
C      1  0.5925610000000  0.5588520000000  0.4952790000000 1.0
C      1  0.4581550000000  0.4891630000000  0.5414810000000 1.0
C      1  0.4969880000000  0.5880550000000  0.5012700000000 1.0
C      1  0.4972760000000  0.4337350000000  0.4050380000000 1.0
C      1  0.5675560000000  0.5552740000000  0.5429640000000 1.0
C      1  0.4370660000000  0.5470520000000  0.4364340000000 1.0
C      1  0.4229370000000  0.4633010000000  0.5219880000000 1.0
C      1  0.4567880000000  0.4112250000000  0.4393590000000 1.0
C      1  0.5356390000000  0.4769590000000  0.5063240000000 1.0
C      1  0.4370810000000  0.4984430000000  0.4370500000000 1.0
C      1  0.4938010000000  0.4097500000000  0.4992870000000 1.0
C      1  0.5656270000000  0.4202530000000  0.4897350000000 1.0
C      1  0.4318940000000  0.5234070000000  0.4517440000000 1.0
C      1  0.5516180000000  0.5640480000000  0.4224350000000 1.0
C      1  0.6000090000000  0.5212330000000  0.5291150000000 1.0
C      1  0.5976750000000  0.4783900000000  0.5130520000000 1.0
C      1  0.5772540000000  0.5210040000000  0.5109800000000 1.0
C      1  0.5527370000000  0.4885220000000  0.4875490000000 1.0
C      1  0.4626690000000  0.5399580000000  0.5287780000000 1.0
C      1  0.5404920000000  0.4874330000000  0.5324340000000 1.0
C      1  0.6010760000000  0.5395430000000  0.4767710000000 1.0
C      1  0.4721820000000  0.5352410000000  0.5923460000000 1.0
C      1  0.5733930000000  0.4394450000000  0.5323960000000 1.0
C      1  0.4753500000000  0.5735800000000  0.4937930000000 1.0
C      1  0.4805450000000  0.3765370000000  0.5310800000000 1.0
C      1  0.5536850000000  0.4929840000000  0.5869520000000 1.0
C      1  0.4444070000000  0.6298750000000  0.6336480000000 1.0
C      1  0.4549580000000  0.5531900000000  0.4164930000000 1.0
C      1  0.5258310000000  0.4980680000000  0.4194080000000 1.0
C      1  0.4989330000000  0.4128110000000  0.4714950000000 1.0
C      1  0.4520030000000  0.4302130000000  0.4208810000000 1.0
C      1  0.5469390000000  0.5210910000000  0.5831690000000 1.0
C      1  0.5453690000000  0.5752980000000  0.4995740000000 1.0
C      1  0.3912050000000  0.5176260000000  0.4762090000000 1.0
C      1  0.4139010000000  0.5179320000000  0.5717650000000 1.0
C      1  0.5076270000000  0.4768360000000  0.4145090000000 1.0
C      1  0.6020190000000  0.5146510000000  0.4642650000000 1.0
C      1  0.4141160000000  0.4828660000000  0.4324940000000 1.0
C      1  0.5437590000000  0.4919790000000  0.4411590000000 1.0
C      1  0.5517290000000  0.5312950000000  0.5022200000000 1.0
C      1  0.5184940000000  0.4492900000000  0.4163890000000 1.0
C      1  0.5195110000000  0.5293140000000  0.5859990000000 1.0
C      1  0.4640630000000  0.4950130000000  0.4286510000000 1.0
C      1  0.5306740000000  0.5310980000000  0.5208840000000 1.0
C      1  0.4318240000000  0.5056350000000  0.4998230000000 1.0
C      1  0.5451530000000  0.5422980000000  0.4083310000000 1.0
C      1  0.4755150000000  0.4610940000000  0.5995540000000 1.0
C      1  0.5709310000000  0.5681480000000  0.5145420000000 1.0
C      1  0.5036150000000  0.4565650000000  0.5989660000000 1.0
C      1  0.4784660000000  0.5376560000000  0.4118720000000 1.0
C      1  0.4598530000000  0.4445790000000  0.5824590000000 1.0
C      1  0.5407650000000  0.5138690000000  0.5404520000000 1.0
C      1  0.4796000000000  0.5185960000000  0.4330400000000 1.0
C      1  0.4665730000000  0.4870130000000  0.6062360000000 1.0
C      1  0.5338120000000  0.4438550000000  0.4400390000000 1.0
C      1  0.5125020000000  0.4613730000000  0.5045870000000 1.0
C      1  0.4661520000000  0.5593840000000  0.6052740000000 1.0
C      1  0.3749270000000  0.5001940000000  0.4608510000000 1.0
C      1  0.4794530000000  0.4027520000000  0.5228720000000 1.0
C      1  0.4641470000000  0.4208310000000  0.5386060000000 1.0
C      1  0.5778320000000  0.4945360000000  0.4997150000000 1.0
C      1  0.5905600000000  0.4518040000000  0.5111790000000 1.0
C      1  0.4940990000000  0.5353030000000  0.5737380000000 1.0
C      1  0.4444940000000  0.5141360000000  0.5282710000000 1.0
C      1  0.4982270000000  0.5402150000000  0.3668420000000 1.0
C      1  0.5963740000000  0.4878540000000  0.4587790000000 1.0
C      1  0.3889320000000  0.4844880000000  0.4419120000000 1.0
C      1  0.4337880000000  0.5840370000000  0.5486390000000 1.0
C      1  0.4825330000000  0.5255140000000  0.4846170000000 1.0
C      1  0.5000620000000  0.5342330000000  0.3939440000000 1.0
C      1  0.5068650000000  0.4491720000000  0.5293780000000 1.0
C      1  0.3479250000000  0.4986790000000  0.4641240000000 1.0
C      1  0.4714070000000  0.4466920000000  0.4093120000000 1.0
C      1  0.5644920000000  0.4516410000000  0.5569770000000 1.0
C      1  0.4781650000000  0.4743610000000  0.4155970000000 1.0
C      1  0.5244420000000  0.5234360000000  0.4055340000000 1.0
C      1  0.5211360000000  0.4264140000000  0.4591800000000 1.0
C      1  0.4518120000000  0.6065150000000  0.6247520000000 1.0
C      1  0.5475980000000  0.4670770000000  0.5752410000000 1.0
C      1  0.6118890000000  0.4962670000000  0.5301840000000 1.0
END
