TITL C-627111-6168-2065 0.0221198704143242 125000 -290.414608182613 0 0 49 (C1) n - 1
REM
REM in /home/nfs/bkarasulu/CARBON/AIRSS/Generating-Clusters/LCBOP/Only-C1/SD-CG/FIRE-CG
REM
REM
REM
REM
REM
REM ./C.cell (11c1c37f851c82e70ff6c80c92926a4b)
REM AIRSS Version 0.9.1 bugfix July 2018 build 013d7b7c2542+ Fri, 06 Jul 2018 19:26:36 +0100
REM compiler GCC version 9.2.1 20190827 (Red Hat 9.2.1-1)
REM options -cpp -mtune=generic -march=x86-64 -g -O0 -fpre-include=/usr/include/finclude/math-vector-fortran.h
REM seed -590731108 949554831 -1517598729 -1349887731 -961758925 -425537755 1962372165 -887141080 282005136 -1716010968 -123378777 338678360 1379225735 23384315 -1223637513 -155667713 -1363870983 -1341024035 -551554096 -147807509 2103831045 2134599030 -1268980770 -1103477838 -655529994 -282927637 -38196214 -1919975936 -1108108503 -1127751262 -1575406806 1174845749 1067327603
REM
CELL 1.54180   50.00000   50.00000   50.00000   90.00000   90.00000   90.00000
LATT -1
SFAC C  
C      1  0.5094840000000  0.3405080000000  0.4501960000000 1.0
C      1  0.5467300000000  0.4185740000000  0.3973180000000 1.0
C      1  0.5561430000000  0.4935740000000  0.4063480000000 1.0
C      1  0.4829110000000  0.5221940000000  0.4794870000000 1.0
C      1  0.4495170000000  0.5269490000000  0.5332090000000 1.0
C      1  0.4979620000000  0.3270940000000  0.4708770000000 1.0
C      1  0.5265800000000  0.3808530000000  0.4277950000000 1.0
C      1  0.5477540000000  0.5199370000000  0.4973630000000 1.0
C      1  0.4982360000000  0.4720860000000  0.5108970000000 1.0
C      1  0.5129160000000  0.4364940000000  0.4814070000000 1.0
C      1  0.4281560000000  0.5253870000000  0.5137930000000 1.0
C      1  0.5106640000000  0.4106570000000  0.4760070000000 1.0
C      1  0.5381660000000  0.5946320000000  0.6277440000000 1.0
C      1  0.5330580000000  0.5682950000000  0.5825290000000 1.0
C      1  0.5150260000000  0.5673040000000  0.4605780000000 1.0
C      1  0.4369210000000  0.5129610000000  0.4892290000000 1.0
C      1  0.5569630000000  0.4697190000000  0.3947780000000 1.0
C      1  0.5512520000000  0.5117670000000  0.4250080000000 1.0
C      1  0.4613530000000  0.5618640000000  0.5656560000000 1.0
C      1  0.4947800000000  0.5772220000000  0.4750920000000 1.0
C      1  0.5142350000000  0.4632840000000  0.4893260000000 1.0
C      1  0.5068910000000  0.3832050000000  0.4734100000000 1.0
C      1  0.4906020000000  0.3408950000000  0.4931670000000 1.0
C      1  0.4132900000000  0.5490370000000  0.5072760000000 1.0
C      1  0.4655300000000  0.5768290000000  0.6162990000000 1.0
C      1  0.5373480000000  0.3972660000000  0.4100000000000 1.0
C      1  0.4559360000000  0.5289430000000  0.4749150000000 1.0
C      1  0.5306800000000  0.5553040000000  0.5595560000000 1.0
C      1  0.4499980000000  0.5576550000000  0.4770700000000 1.0
C      1  0.4651220000000  0.5036380000000  0.5370080000000 1.0
C      1  0.4629330000000  0.5694770000000  0.5909740000000 1.0
C      1  0.5013260000000  0.5264780000000  0.4984860000000 1.0
C      1  0.4714310000000  0.5720720000000  0.4899380000000 1.0
C      1  0.4606170000000  0.5529290000000  0.5392410000000 1.0
C      1  0.4732310000000  0.5913870000000  0.6662230000000 1.0
C      1  0.4949620000000  0.3677350000000  0.4941750000000 1.0
C      1  0.5314860000000  0.4808870000000  0.4755620000000 1.0
C      1  0.4690940000000  0.5841410000000  0.6415250000000 1.0
C      1  0.5147080000000  0.3685210000000  0.4497210000000 1.0
C      1  0.5355730000000  0.5815250000000  0.6053590000000 1.0
C      1  0.5283040000000  0.5427950000000  0.5363320000000 1.0
C      1  0.4705820000000  0.5694240000000  0.5182560000000 1.0
C      1  0.4234880000000  0.5637930000000  0.4863970000000 1.0
C      1  0.5307930000000  0.5478800000000  0.4510530000000 1.0
C      1  0.5437790000000  0.5061080000000  0.4729560000000 1.0
C      1  0.5258370000000  0.5302840000000  0.5117070000000 1.0
C      1  0.4815960000000  0.4846880000000  0.5276440000000 1.0
C      1  0.5424360000000  0.5221710000000  0.4493270000000 1.0
C      1  0.5536190000000  0.4435780000000  0.3917860000000 1.0
END
