TITL C-627107-135-609 0.050870900606274 125000 -239.081187459821 0 0 42 (C1) n - 1
REM
REM in /home/nfs/bkarasulu/CARBON/AIRSS/Generating-Clusters/LCBOP/Only-C1/SD-CG/FIRE-CG
REM
REM
REM
REM
REM
REM ./C.cell (11c1c37f851c82e70ff6c80c92926a4b)
REM AIRSS Version 0.9.1 bugfix July 2018 build 013d7b7c2542+ Fri, 06 Jul 2018 19:26:36 +0100
REM compiler GCC version 9.2.1 20190827 (Red Hat 9.2.1-1)
REM options -cpp -mtune=generic -march=x86-64 -g -O0 -fpre-include=/usr/include/finclude/math-vector-fortran.h
REM seed -1011819217 7852151 -246989887 1146294266 541470566 1873067581 -991431441 -779195754 2007996096 -1845269718 689486768 -890529121 480192495 -1568356864 1676399959 -856674106 -1693035521 -1120408116 1381260366 -1842928426 410354363 481658597 247409489 190476152 -1864607249 -1193768723 -1407476660 2049378964 -1347774431 1563746571 1815068798 953457589 2025178388
REM
CELL 1.54180   50.00000   50.00000   50.00000   90.00000   90.00000   90.00000
LATT -1
SFAC C  
C      1  0.4464690000000  0.5075830000000  0.5327500000000 1.0
C      1  0.4726860000000  0.4716330000000  0.5584640000000 1.0
C      1  0.4740840000000  0.3844630000000  0.5050700000000 1.0
C      1  0.5747300000000  0.4666090000000  0.4814620000000 1.0
C      1  0.4703630000000  0.5455250000000  0.4876200000000 1.0
C      1  0.4889500000000  0.6178290000000  0.4313200000000 1.0
C      1  0.4833160000000  0.4084810000000  0.5009440000000 1.0
C      1  0.5513310000000  0.4938060000000  0.4483450000000 1.0
C      1  0.4267730000000  0.5261830000000  0.5360420000000 1.0
C      1  0.4956680000000  0.6027640000000  0.4531410000000 1.0
C      1  0.4568460000000  0.5205420000000  0.4857960000000 1.0
C      1  0.5316620000000  0.4530780000000  0.4655600000000 1.0
C      1  0.4902160000000  0.5748720000000  0.4535670000000 1.0
C      1  0.5189360000000  0.6236320000000  0.4971510000000 1.0
C      1  0.4424970000000  0.5137490000000  0.4627930000000 1.0
C      1  0.5190380000000  0.5618470000000  0.5496380000000 1.0
C      1  0.5510400000000  0.4151700000000  0.5608110000000 1.0
C      1  0.5121840000000  0.4399640000000  0.4778650000000 1.0
C      1  0.4562330000000  0.4923180000000  0.5542950000000 1.0
C      1  0.4870590000000  0.5509980000000  0.5093670000000 1.0
C      1  0.4295020000000  0.5072300000000  0.4411650000000 1.0
C      1  0.5257470000000  0.5379470000000  0.4368140000000 1.0
C      1  0.4672790000000  0.5652370000000  0.4673310000000 1.0
C      1  0.5278260000000  0.4333900000000  0.5991140000000 1.0
C      1  0.5031860000000  0.5564070000000  0.5296730000000 1.0
C      1  0.5088450000000  0.4390230000000  0.5553670000000 1.0
C      1  0.4851210000000  0.4552300000000  0.5149940000000 1.0
C      1  0.4889940000000  0.4543900000000  0.5433200000000 1.0
C      1  0.5702600000000  0.4293440000000  0.5462380000000 1.0
C      1  0.5079370000000  0.6144600000000  0.4753770000000 1.0
C      1  0.5079290000000  0.5570120000000  0.4414340000000 1.0
C      1  0.4722430000000  0.4778420000000  0.5043090000000 1.0
C      1  0.5820520000000  0.4433710000000  0.5270660000000 1.0
C      1  0.5412460000000  0.5165620000000  0.4391970000000 1.0
C      1  0.5532210000000  0.4708800000000  0.4640980000000 1.0
C      1  0.5842480000000  0.4566180000000  0.5041640000000 1.0
C      1  0.5290380000000  0.4292520000000  0.5720800000000 1.0
C      1  0.4581640000000  0.5019930000000  0.5072340000000 1.0
C      1  0.4935670000000  0.4342480000000  0.4979060000000 1.0
C      1  0.4183570000000  0.5848820000000  0.4557130000000 1.0
C      1  0.5531450000000  0.3880720000000  0.5639750000000 1.0
C      1  0.4420120000000  0.5755640000000  0.4614310000000 1.0
END
