TITL C-627110-360-1312 -7585.76620086258 125000 -805.692971389347 0 0 134 (C1) n - 1
REM
REM in /home/nfs/bkarasulu/CARBON/AIRSS/Generating-Clusters/LCBOP/Only-C1/SD-CG/FIRE-CG
REM
REM
REM
REM
REM
REM ./C.cell (11c1c37f851c82e70ff6c80c92926a4b)
REM AIRSS Version 0.9.1 bugfix July 2018 build 013d7b7c2542+ Fri, 06 Jul 2018 19:26:36 +0100
REM compiler GCC version 9.2.1 20190827 (Red Hat 9.2.1-1)
REM options -cpp -mtune=generic -march=x86-64 -g -O0 -fpre-include=/usr/include/finclude/math-vector-fortran.h
REM seed 1373674981 -1179919147 -1991931335 -926121848 685685649 1353306904 205599888 1513190570 1828331230 1119116295 737782074 1850650003 -453257121 1646749601 -1889035782 -2116389799 377669279 -1177381542 -83433371 -978150606 -1047509081 -854018463 2048532404 1671815456 1360012559 1559731215 300888763 909866674 -1449431399 239008768 2083560023 -101129908 1746459663
REM
CELL 1.54180   50.00000   50.00000   50.00000   90.00000   90.00000   90.00000
LATT -1
SFAC C  
C      1  0.5253520000000  0.5163390000000  0.4612340000000 1.0
C      1  0.5763780000000  0.5073030000000  0.3956960000000 1.0
C      1  0.6044940000000  0.5194580000000  0.5158220000000 1.0
C      1  0.4293570000000  0.4131600000000  0.4908240000000 1.0
C      1  0.5768260000000  0.5654050000000  0.5228260000000 1.0
C      1  0.4050200000000  0.5154120000000  0.5547820000000 1.0
C      1  0.3738200000000  0.5855270000000  0.4894720000000 1.0
C      1  0.4214230000000  0.5100170000000  0.5073060000000 1.0
C      1  0.5578960000000  0.5636820000000  0.4476880000000 1.0
C      1  0.4960060000000  0.5220810000000  0.5097140000000 1.0
C      1  0.4692990000000  0.4982100000000  0.4131090000000 1.0
C      1  0.4141470000000  0.5175020000000  0.4620680000000 1.0
C      1  0.3013640000000  0.6163790000000  0.4824290000000 1.0
C      1  0.4540460000000  0.6015990000000  0.5193250000000 1.0
C      1  0.5592750000000  0.4824230000000  0.4702130000000 1.0
C      1  0.3984630000000  0.5758710000000  0.4903710000000 1.0
C      1  0.4219500000000  0.4927310000000  0.4465390000000 1.0
C      1  0.4844980000000  0.5209130000000  0.5884440000000 1.0
C      1  0.5546100000000  0.5103570000000  0.6091900000000 1.0
C      1  0.4708990000000  0.5429970000000  0.5754070000000 1.0
C      1  0.5302230000000  0.4665860000000  0.5304420000000 1.0
C      1  0.5199060000000  0.4116900000000  0.5439350000000 1.0
C      1  0.4876230000000  0.4648810000000  0.5552610000000 1.0
C      1  0.5265480000000  0.6039420000000  0.5016490000000 1.0
C      1  0.4854680000000  0.5152200000000  0.3997500000000 1.0
C      1  0.4940780000000  0.4047060000000  0.5277080000000 1.0
C      1  0.5356610000000  0.5301820000000  0.4106310000000 1.0
C      1  0.5869480000000  0.4768450000000  0.4640610000000 1.0
C      1  0.4500110000000  0.5452800000000  0.5551640000000 1.0
C      1  0.5507100000000  0.5087320000000  0.4692930000000 1.0
C      1  0.5179280000000  0.5558540000000  0.5789760000000 1.0
C      1  0.4891130000000  0.5670490000000  0.5761570000000 1.0
C      1  0.5424620000000  0.5982640000000  0.4791860000000 1.0
C      1  0.4696230000000  0.4113880000000  0.4367460000000 1.0
C      1  0.4450330000000  0.4010260000000  0.5100570000000 1.0
C      1  0.5949970000000  0.5021890000000  0.5856900000000 1.0
C      1  0.5789570000000  0.5735160000000  0.4949570000000 1.0
C      1  0.5193150000000  0.4056270000000  0.4361890000000 1.0
C      1  0.5478440000000  0.4083540000000  0.5329140000000 1.0
C      1  0.4781850000000  0.4818000000000  0.5356650000000 1.0
C      1  0.6010160000000  0.4766900000000  0.5802230000000 1.0
C      1  0.5963790000000  0.4510210000000  0.5745450000000 1.0
C      1  0.5871840000000  0.5378130000000  0.5290370000000 1.0
C      1  0.4582980000000  0.5581320000000  0.5303930000000 1.0
C      1  0.5159350000000  0.5712870000000  0.4263240000000 1.0
C      1  0.5282670000000  0.5057590000000  0.6017830000000 1.0
C      1  0.4959580000000  0.3854470000000  0.5056620000000 1.0
C      1  0.4552700000000  0.4970770000000  0.5397100000000 1.0
C      1  0.5186660000000  0.4530500000000  0.4833970000000 1.0
C      1  0.4665350000000  0.4160930000000  0.5231820000000 1.0
C      1  0.5051770000000  0.5821330000000  0.5366470000000 1.0
C      1  0.4681930000000  0.5622040000000  0.4427470000000 1.0
C      1  0.4430950000000  0.4917950000000  0.5648760000000 1.0
C      1  0.4469430000000  0.4808050000000  0.4550970000000 1.0
C      1  0.6020820000000  0.4726120000000  0.4878820000000 1.0
C      1  0.4234430000000  0.5351460000000  0.5580780000000 1.0
C      1  0.5420270000000  0.5230760000000  0.5284060000000 1.0
C      1  0.4919470000000  0.4553850000000  0.4688090000000 1.0
C      1  0.4578970000000  0.4429470000000  0.5172190000000 1.0
C      1  0.4948480000000  0.4114850000000  0.4223640000000 1.0
C      1  0.5680690000000  0.4124120000000  0.5528490000000 1.0
C      1  0.6231740000000  0.5120600000000  0.3722440000000 1.0
C      1  0.5989950000000  0.4463380000000  0.4986210000000 1.0
C      1  0.4755890000000  0.5916090000000  0.5682390000000 1.0
C      1  0.5391810000000  0.5547200000000  0.4272420000000 1.0
C      1  0.4690780000000  0.5223460000000  0.4712910000000 1.0
C      1  0.5306430000000  0.5897450000000  0.5268470000000 1.0
C      1  0.5736010000000  0.5198600000000  0.5908220000000 1.0
C      1  0.5607960000000  0.4590100000000  0.4267890000000 1.0
C      1  0.3754230000000  0.5055480000000  0.4904500000000 1.0
C      1  0.4325480000000  0.4523970000000  0.5280740000000 1.0
C      1  0.5201320000000  0.4520050000000  0.5949120000000 1.0
C      1  0.5142930000000  0.4581150000000  0.5518870000000 1.0
C      1  0.4263480000000  0.4463680000000  0.4248900000000 1.0
C      1  0.4705390000000  0.4587180000000  0.4927150000000 1.0
C      1  0.5149540000000  0.4803010000000  0.4309670000000 1.0
C      1  0.4843760000000  0.3842920000000  0.4810390000000 1.0
C      1  0.5415100000000  0.4795810000000  0.4180960000000 1.0
C      1  0.4737030000000  0.6137410000000  0.5024030000000 1.0
C      1  0.4851650000000  0.4932610000000  0.5980060000000 1.0
C      1  0.3251160000000  0.6059610000000  0.4850710000000 1.0
C      1  0.4605700000000  0.6034310000000  0.5482270000000 1.0
C      1  0.4019410000000  0.5104920000000  0.4872920000000 1.0
C      1  0.4917690000000  0.4661480000000  0.4420740000000 1.0
C      1  0.5156080000000  0.5140080000000  0.5285270000000 1.0
C      1  0.4878170000000  0.4766090000000  0.5098270000000 1.0
C      1  0.5515490000000  0.5058010000000  0.4085570000000 1.0
C      1  0.5133340000000  0.5287050000000  0.5911680000000 1.0
C      1  0.4243880000000  0.5643250000000  0.4900160000000 1.0
C      1  0.5570240000000  0.4704090000000  0.5323410000000 1.0
C      1  0.4691110000000  0.4546690000000  0.5742520000000 1.0
C      1  0.4426170000000  0.5746000000000  0.5117980000000 1.0
C      1  0.5122040000000  0.4809340000000  0.6010330000000 1.0
C      1  0.5186540000000  0.4244920000000  0.4904150000000 1.0
C      1  0.4481160000000  0.5091610000000  0.5151250000000 1.0
C      1  0.4004670000000  0.4897080000000  0.5469140000000 1.0
C      1  0.5447950000000  0.5597180000000  0.5661480000000 1.0
C      1  0.5105010000000  0.5062000000000  0.4421110000000 1.0
C      1  0.4463830000000  0.4275030000000  0.4286230000000 1.0
C      1  0.5003690000000  0.6150890000000  0.4978830000000 1.0
C      1  0.4285080000000  0.5441140000000  0.4675810000000 1.0
C      1  0.5619500000000  0.5788610000000  0.4722650000000 1.0
C      1  0.4975850000000  0.5496810000000  0.5049240000000 1.0
C      1  0.5998790000000  0.5098030000000  0.3837260000000 1.0
C      1  0.4709930000000  0.5142870000000  0.4980970000000 1.0
C      1  0.5627020000000  0.5282390000000  0.4842460000000 1.0
C      1  0.4953790000000  0.4170020000000  0.3955210000000 1.0
C      1  0.5412690000000  0.4091930000000  0.4818250000000 1.0
C      1  0.4113670000000  0.4669480000000  0.5367130000000 1.0
C      1  0.4289380000000  0.4374510000000  0.4782440000000 1.0
C      1  0.4469930000000  0.4694470000000  0.5798980000000 1.0
C      1  0.4710280000000  0.3951590000000  0.4601990000000 1.0
C      1  0.5588630000000  0.4100760000000  0.5050850000000 1.0
C      1  0.4555450000000  0.5431260000000  0.4584240000000 1.0
C      1  0.5628820000000  0.5364720000000  0.5703130000000 1.0
C      1  0.5425040000000  0.4598300000000  0.4682510000000 1.0
C      1  0.4864010000000  0.5646920000000  0.5254880000000 1.0
C      1  0.4126480000000  0.4706550000000  0.4291060000000 1.0
C      1  0.5526210000000  0.5749710000000  0.5398770000000 1.0
C      1  0.4676390000000  0.4804620000000  0.4353190000000 1.0
C      1  0.5209520000000  0.4369720000000  0.5688980000000 1.0
C      1  0.5493160000000  0.4413120000000  0.4466770000000 1.0
C      1  0.4900460000000  0.5731800000000  0.4323040000000 1.0
C      1  0.5152380000000  0.4700340000000  0.5069640000000 1.0
C      1  0.5656440000000  0.5254170000000  0.5442790000000 1.0
C      1  0.5869450000000  0.4678910000000  0.4365930000000 1.0
C      1  0.5411710000000  0.4144830000000  0.4524720000000 1.0
C      1  0.5479580000000  0.5370730000000  0.5046030000000 1.0
C      1  0.3493580000000  0.5955330000000  0.4875580000000 1.0
C      1  0.4456700000000  0.4607600000000  0.4755320000000 1.0
C      1  0.5846780000000  0.4285110000000  0.5662440000000 1.0
C      1  0.5095750000000  0.5273330000000  0.3983650000000 1.0
C      1  0.6088370000000  0.4957540000000  0.5033480000000 1.0
C      1  0.5835580000000  0.4244330000000  0.5020050000000 1.0
END
