TITL C-627109-622-1523 -839.844187063087 125000 -1208.73329523278 0 0 198 (C1) n - 1
REM
REM in /home/nfs/bkarasulu/CARBON/AIRSS/Generating-Clusters/LCBOP/Only-C1/SD-CG/FIRE-CG
REM
REM
REM
REM
REM
REM ./C.cell (11c1c37f851c82e70ff6c80c92926a4b)
REM AIRSS Version 0.9.1 bugfix July 2018 build 013d7b7c2542+ Fri, 06 Jul 2018 19:26:36 +0100
REM compiler GCC version 9.2.1 20190827 (Red Hat 9.2.1-1)
REM options -cpp -mtune=generic -march=x86-64 -g -O0 -fpre-include=/usr/include/finclude/math-vector-fortran.h
REM seed -791534750 -1759564856 -63970442 1137465497 2617963 -1466327410 -1957082490 -1068459996 1945497222 -1878309267 -867053495 -1645454251 -1008981068 2066219906 -1404739216 2105279764 1921569813 885446850 -277439457 1284624014 -839698075 -1944591154 501269799 -508994157 -1645935948 1522925769 1398803538 -1368811246 2133951417 1634987558 542275351 -1645675686 -335067173
REM
CELL 1.54180   50.00000   50.00000   50.00000   90.00000   90.00000   90.00000
LATT -1
SFAC C  
C      1  0.4927150000000  0.4013400000000  0.4684190000000 1.0
C      1  0.5203110000000  0.4745380000000  0.6057890000000 1.0
C      1  0.4764450000000  0.4449340000000  0.5231210000000 1.0
C      1  0.5871820000000  0.5498890000000  0.4391410000000 1.0
C      1  0.4355430000000  0.4997090000000  0.5936510000000 1.0
C      1  0.5368020000000  0.5512540000000  0.4873650000000 1.0
C      1  0.5238070000000  0.6174470000000  0.5625320000000 1.0
C      1  0.3946580000000  0.4199290000000  0.5209480000000 1.0
C      1  0.6081230000000  0.4287480000000  0.5056280000000 1.0
C      1  0.5958000000000  0.5954090000000  0.4558130000000 1.0
C      1  0.4334000000000  0.5453780000000  0.4292270000000 1.0
C      1  0.4979570000000  0.6176820000000  0.4122800000000 1.0
C      1  0.6026180000000  0.5533180000000  0.5831060000000 1.0
C      1  0.5792940000000  0.5423280000000  0.4653560000000 1.0
C      1  0.6055140000000  0.4047310000000  0.4937330000000 1.0
C      1  0.4106900000000  0.5246010000000  0.4776300000000 1.0
C      1  0.5533750000000  0.5033870000000  0.6188520000000 1.0
C      1  0.4163340000000  0.5679740000000  0.5295030000000 1.0
C      1  0.5323530000000  0.4586080000000  0.3907940000000 1.0
C      1  0.5021000000000  0.4773780000000  0.5844400000000 1.0
C      1  0.3949090000000  0.5225970000000  0.5697300000000 1.0
C      1  0.3931900000000  0.4417000000000  0.5014790000000 1.0
C      1  0.4417020000000  0.4164230000000  0.4375960000000 1.0
C      1  0.5529400000000  0.5699240000000  0.5801510000000 1.0
C      1  0.5954300000000  0.4787500000000  0.4108070000000 1.0
C      1  0.4969660000000  0.4328170000000  0.6218000000000 1.0
C      1  0.4434040000000  0.4464080000000  0.5565180000000 1.0
C      1  0.5556600000000  0.5326970000000  0.4778960000000 1.0
C      1  0.4726230000000  0.6308710000000  0.4911960000000 1.0
C      1  0.5891210000000  0.4522700000000  0.5973530000000 1.0
C      1  0.5763880000000  0.5324510000000  0.4185610000000 1.0
C      1  0.5285830000000  0.5555950000000  0.4272580000000 1.0
C      1  0.5395900000000  0.5216370000000  0.5414170000000 1.0
C      1  0.5473560000000  0.4808770000000  0.4030950000000 1.0
C      1  0.4406600000000  0.4826350000000  0.4738430000000 1.0
C      1  0.5099420000000  0.6165980000000  0.4615950000000 1.0
C      1  0.4405290000000  0.4717850000000  0.5956820000000 1.0
C      1  0.3960530000000  0.4240770000000  0.5491280000000 1.0
C      1  0.5280780000000  0.5149980000000  0.6279610000000 1.0
C      1  0.4850260000000  0.4529060000000  0.6364300000000 1.0
C      1  0.4752090000000  0.5058240000000  0.6486510000000 1.0
C      1  0.4328140000000  0.4554750000000  0.4707480000000 1.0
C      1  0.4449240000000  0.5611170000000  0.5701560000000 1.0
C      1  0.5888290000000  0.4487780000000  0.5098880000000 1.0
C      1  0.6142430000000  0.5379460000000  0.5364760000000 1.0
C      1  0.5118320000000  0.4901630000000  0.6285970000000 1.0
C      1  0.4344500000000  0.5530380000000  0.5452340000000 1.0
C      1  0.5161120000000  0.3888530000000  0.4781280000000 1.0
C      1  0.4730910000000  0.4200870000000  0.4757280000000 1.0
C      1  0.5106640000000  0.5380350000000  0.6281470000000 1.0
C      1  0.5652880000000  0.4926150000000  0.4540420000000 1.0
C      1  0.5291810000000  0.5776650000000  0.5945640000000 1.0
C      1  0.4949330000000  0.4840550000000  0.5045360000000 1.0
C      1  0.4299280000000  0.3847520000000  0.5247490000000 1.0
C      1  0.5065460000000  0.5256690000000  0.3498030000000 1.0
C      1  0.4556010000000  0.6283880000000  0.4686730000000 1.0
C      1  0.4149290000000  0.5156700000000  0.5865220000000 1.0
C      1  0.4146690000000  0.4067200000000  0.5630270000000 1.0
C      1  0.4944050000000  0.4459000000000  0.5452590000000 1.0
C      1  0.4860710000000  0.5306100000000  0.6426680000000 1.0
C      1  0.5489170000000  0.5396870000000  0.4137330000000 1.0
C      1  0.3943570000000  0.4544460000000  0.5867970000000 1.0
C      1  0.5881340000000  0.3886710000000  0.4812300000000 1.0
C      1  0.5133750000000  0.4801940000000  0.4615520000000 1.0
C      1  0.5018450000000  0.4153120000000  0.4103890000000 1.0
C      1  0.6141330000000  0.4974420000000  0.4742770000000 1.0
C      1  0.4280940000000  0.4669430000000  0.3965510000000 1.0
C      1  0.4700520000000  0.5720820000000  0.5045750000000 1.0
C      1  0.3798610000000  0.5393100000000  0.5241420000000 1.0
C      1  0.5644570000000  0.3825650000000  0.4705370000000 1.0
C      1  0.6192820000000  0.5458940000000  0.5631100000000 1.0
C      1  0.5443160000000  0.4316810000000  0.3993120000000 1.0
C      1  0.4662200000000  0.4818380000000  0.3376600000000 1.0
C      1  0.4527240000000  0.5901530000000  0.4339880000000 1.0
C      1  0.4636560000000  0.6138970000000  0.4460740000000 1.0
C      1  0.4719260000000  0.5076290000000  0.4233240000000 1.0
C      1  0.4534220000000  0.5593190000000  0.4856080000000 1.0
C      1  0.5172510000000  0.5370060000000  0.5493930000000 1.0
C      1  0.5023710000000  0.5121120000000  0.4222510000000 1.0
C      1  0.5092290000000  0.5613050000000  0.6102990000000 1.0
C      1  0.5665010000000  0.5200200000000  0.5313570000000 1.0
C      1  0.4910940000000  0.4862990000000  0.4765700000000 1.0
C      1  0.4349580000000  0.5097550000000  0.4867890000000 1.0
C      1  0.5378560000000  0.4109680000000  0.5621590000000 1.0
C      1  0.3483110000000  0.5197260000000  0.4442750000000 1.0
C      1  0.4916450000000  0.6195040000000  0.4397520000000 1.0
C      1  0.3975770000000  0.5574120000000  0.5108910000000 1.0
C      1  0.6191010000000  0.4722190000000  0.3981790000000 1.0
C      1  0.5800810000000  0.4564790000000  0.4221600000000 1.0
C      1  0.5292380000000  0.4068930000000  0.4081980000000 1.0
C      1  0.4639290000000  0.3922170000000  0.5598850000000 1.0
C      1  0.5784270000000  0.6044970000000  0.4746080000000 1.0
C      1  0.5530780000000  0.5760040000000  0.5523130000000 1.0
C      1  0.5169160000000  0.6288380000000  0.5108640000000 1.0
C      1  0.5522770000000  0.5043860000000  0.4772660000000 1.0
C      1  0.5139110000000  0.5453900000000  0.3344440000000 1.0
C      1  0.5109670000000  0.4072240000000  0.5752260000000 1.0
C      1  0.5517310000000  0.5961640000000  0.4792070000000 1.0
C      1  0.5219750000000  0.6256540000000  0.5370480000000 1.0
C      1  0.4526700000000  0.4788910000000  0.3155970000000 1.0
C      1  0.5322050000000  0.4939610000000  0.5444140000000 1.0
C      1  0.4730980000000  0.5274290000000  0.5356460000000 1.0
C      1  0.5202670000000  0.6052090000000  0.5878300000000 1.0
C      1  0.4292840000000  0.5672300000000  0.4726190000000 1.0
C      1  0.5488050000000  0.4891810000000  0.5012390000000 1.0
C      1  0.4725570000000  0.4725400000000  0.5168730000000 1.0
C      1  0.4658590000000  0.4791530000000  0.4315030000000 1.0
C      1  0.6270250000000  0.5103550000000  0.4940440000000 1.0
C      1  0.4452270000000  0.5291710000000  0.5334510000000 1.0
C      1  0.4183610000000  0.4099880000000  0.4824330000000 1.0
C      1  0.4710090000000  0.4267160000000  0.5029550000000 1.0
C      1  0.4085510000000  0.4817260000000  0.4100090000000 1.0
C      1  0.4863970000000  0.4581120000000  0.5709000000000 1.0
C      1  0.5575910000000  0.4538870000000  0.5580580000000 1.0
C      1  0.4862000000000  0.5973670000000  0.3985920000000 1.0
C      1  0.5386390000000  0.3862090000000  0.4596370000000 1.0
C      1  0.4472830000000  0.4811730000000  0.5233330000000 1.0
C      1  0.5559940000000  0.4408570000000  0.4249900000000 1.0
C      1  0.5626170000000  0.4507380000000  0.6078890000000 1.0
C      1  0.4314330000000  0.4627400000000  0.5375530000000 1.0
C      1  0.4616650000000  0.5627570000000  0.5909710000000 1.0
C      1  0.5008130000000  0.6160930000000  0.6054660000000 1.0
C      1  0.5882850000000  0.5071330000000  0.4113580000000 1.0
C      1  0.4630180000000  0.5335380000000  0.4765970000000 1.0
C      1  0.6295170000000  0.5249260000000  0.5166090000000 1.0
C      1  0.4323850000000  0.5067040000000  0.5178710000000 1.0
C      1  0.5471900000000  0.4911840000000  0.4305770000000 1.0
C      1  0.4572470000000  0.5325280000000  0.4204640000000 1.0
C      1  0.5148480000000  0.3836300000000  0.5065300000000 1.0
C      1  0.5468070000000  0.5758400000000  0.4984560000000 1.0
C      1  0.5492530000000  0.4755620000000  0.6093160000000 1.0
C      1  0.4334930000000  0.5705800000000  0.4442290000000 1.0
C      1  0.4121450000000  0.3992720000000  0.5083820000000 1.0
C      1  0.4820190000000  0.5725770000000  0.6077270000000 1.0
C      1  0.5720520000000  0.4939440000000  0.5192210000000 1.0
C      1  0.5464270000000  0.4264340000000  0.6053200000000 1.0
C      1  0.5638790000000  0.4424700000000  0.4986010000000 1.0
C      1  0.5320040000000  0.5986400000000  0.4581040000000 1.0
C      1  0.3882580000000  0.4940580000000  0.4217350000000 1.0
C      1  0.5203450000000  0.4959770000000  0.4394210000000 1.0
C      1  0.4552650000000  0.4710020000000  0.4026410000000 1.0
C      1  0.5371480000000  0.3907720000000  0.4309780000000 1.0
C      1  0.5077560000000  0.5034970000000  0.3938260000000 1.0
C      1  0.5087250000000  0.5488210000000  0.4856490000000 1.0
C      1  0.5867710000000  0.5386880000000  0.5305300000000 1.0
C      1  0.3677330000000  0.5067080000000  0.4327450000000 1.0
C      1  0.4207330000000  0.4486020000000  0.3776140000000 1.0
C      1  0.5775720000000  0.5603700000000  0.5901290000000 1.0
C      1  0.5411860000000  0.4445420000000  0.4851950000000 1.0
C      1  0.5408070000000  0.4346130000000  0.5465180000000 1.0
C      1  0.5564090000000  0.4086370000000  0.5841690000000 1.0
C      1  0.4911080000000  0.5379460000000  0.4657500000000 1.0
C      1  0.5631240000000  0.5881260000000  0.4224560000000 1.0
C      1  0.5037280000000  0.3854480000000  0.5313600000000 1.0
C      1  0.3888160000000  0.5192110000000  0.5421800000000 1.0
C      1  0.5158400000000  0.4214120000000  0.6030060000000 1.0
C      1  0.4880970000000  0.4811750000000  0.6410650000000 1.0
C      1  0.5311120000000  0.4440480000000  0.4397150000000 1.0
C      1  0.4625220000000  0.6205570000000  0.5153400000000 1.0
C      1  0.4041050000000  0.4984070000000  0.5303830000000 1.0
C      1  0.4811120000000  0.6000720000000  0.6149970000000 1.0
C      1  0.5931800000000  0.4895430000000  0.4592560000000 1.0
C      1  0.5904920000000  0.4727230000000  0.5257340000000 1.0
C      1  0.4578510000000  0.4346580000000  0.4545230000000 1.0
C      1  0.4704740000000  0.5791400000000  0.4134240000000 1.0
C      1  0.5489960000000  0.4791090000000  0.5614720000000 1.0
C      1  0.5025810000000  0.5417990000000  0.4327370000000 1.0
C      1  0.4765470000000  0.4505490000000  0.4368800000000 1.0
C      1  0.5871690000000  0.5784660000000  0.4347010000000 1.0
C      1  0.4922900000000  0.3940920000000  0.5569250000000 1.0
C      1  0.4783350000000  0.5526790000000  0.4181330000000 1.0
C      1  0.4367670000000  0.3924380000000  0.5513720000000 1.0
C      1  0.4583480000000  0.4573320000000  0.5777610000000 1.0
C      1  0.4799720000000  0.4851150000000  0.3614250000000 1.0
C      1  0.4964290000000  0.5425110000000  0.5313980000000 1.0
C      1  0.5271860000000  0.4555690000000  0.4640430000000 1.0
C      1  0.4662120000000  0.4859700000000  0.4619680000000 1.0
C      1  0.4071310000000  0.5524000000000  0.4840230000000 1.0
C      1  0.5514960000000  0.5789530000000  0.5258580000000 1.0
C      1  0.4043120000000  0.4712120000000  0.5416250000000 1.0
C      1  0.5240440000000  0.4795690000000  0.5187010000000 1.0
C      1  0.5001760000000  0.4431400000000  0.4210100000000 1.0
C      1  0.4625860000000  0.5941470000000  0.5199650000000 1.0
C      1  0.5200120000000  0.4481330000000  0.5334840000000 1.0
C      1  0.4986450000000  0.5057870000000  0.3673880000000 1.0
C      1  0.4779120000000  0.4681120000000  0.3842140000000 1.0
C      1  0.6035590000000  0.4708640000000  0.5509330000000 1.0
C      1  0.4956550000000  0.5045310000000  0.5800880000000 1.0
C      1  0.5035650000000  0.4618770000000  0.3963970000000 1.0
C      1  0.4129270000000  0.4388460000000  0.4805330000000 1.0
C      1  0.5066550000000  0.5281740000000  0.5741000000000 1.0
C      1  0.3918150000000  0.4512280000000  0.5586850000000 1.0
C      1  0.4309570000000  0.3993630000000  0.4210950000000 1.0
C      1  0.4948660000000  0.5585960000000  0.5086750000000 1.0
C      1  0.5375030000000  0.5823220000000  0.4344060000000 1.0
C      1  0.4164040000000  0.4577240000000  0.6023100000000 1.0
C      1  0.5012900000000  0.6273650000000  0.4872680000000 1.0
C      1  0.6031790000000  0.4617370000000  0.5763120000000 1.0
END
