TITL C-627107-135-157 0.00211431956600332 125000 -396.191750047724 0 0 65 (C1) n - 1
REM
REM in /home/nfs/bkarasulu/CARBON/AIRSS/Generating-Clusters/LCBOP/Only-C1/SD-CG/FIRE-CG
REM
REM
REM
REM
REM
REM ./C.cell (11c1c37f851c82e70ff6c80c92926a4b)
REM AIRSS Version 0.9.1 bugfix July 2018 build 013d7b7c2542+ Fri, 06 Jul 2018 19:26:36 +0100
REM compiler GCC version 9.2.1 20190827 (Red Hat 9.2.1-1)
REM options -cpp -mtune=generic -march=x86-64 -g -O0 -fpre-include=/usr/include/finclude/math-vector-fortran.h
REM seed -929147717 286116027 408489721 1186513421 -181258939 -1932527977 -262381742 301609101 1951312316 1378868297 -1950174858 -478522697 -831247644 -500525580 -540548554 -788937135 2019695548 -1880749600 -557102038 -1775578795 1145657055 1125748538 426748988 1807984126 -1077491286 -929183674 -2092073728 -480578355 -320052844 1005062533 549248482 -1534074786 621414886
REM
CELL 1.54180   50.00000   50.00000   50.00000   90.00000   90.00000   90.00000
LATT -1
SFAC C  
C      1  0.5579490000000  0.5459620000000  0.4348890000000 1.0
C      1  0.4618630000000  0.4061750000000  0.4571240000000 1.0
C      1  0.4751110000000  0.5554490000000  0.5080670000000 1.0
C      1  0.5176750000000  0.5846550000000  0.5079850000000 1.0
C      1  0.4794100000000  0.4513990000000  0.4550050000000 1.0
C      1  0.4312550000000  0.5362310000000  0.4934630000000 1.0
C      1  0.5354690000000  0.5295180000000  0.4845890000000 1.0
C      1  0.5740850000000  0.4856890000000  0.4792880000000 1.0
C      1  0.4607940000000  0.4504440000000  0.5172510000000 1.0
C      1  0.4683780000000  0.4695910000000  0.4740090000000 1.0
C      1  0.5723800000000  0.5505440000000  0.5288500000000 1.0
C      1  0.5609870000000  0.5422750000000  0.4828960000000 1.0
C      1  0.4761850000000  0.4834990000000  0.5533660000000 1.0
C      1  0.5641110000000  0.5608830000000  0.5039440000000 1.0
C      1  0.4974940000000  0.5015050000000  0.5465250000000 1.0
C      1  0.5072630000000  0.4534460000000  0.4469390000000 1.0
C      1  0.4916990000000  0.5945530000000  0.4552470000000 1.0
C      1  0.4195920000000  0.4827350000000  0.5291970000000 1.0
C      1  0.4596730000000  0.5716950000000  0.4294790000000 1.0
C      1  0.5561160000000  0.4719020000000  0.4972580000000 1.0
C      1  0.5376860000000  0.4954880000000  0.4505860000000 1.0
C      1  0.4540620000000  0.5030970000000  0.5930030000000 1.0
C      1  0.5161280000000  0.4381390000000  0.4258940000000 1.0
C      1  0.5325790000000  0.5536230000000  0.4280370000000 1.0
C      1  0.4992930000000  0.5303920000000  0.4543690000000 1.0
C      1  0.5237750000000  0.5180810000000  0.4614100000000 1.0
C      1  0.4497010000000  0.4647920000000  0.4952420000000 1.0
C      1  0.5060480000000  0.4869290000000  0.4999660000000 1.0
C      1  0.5441050000000  0.5810300000000  0.5053270000000 1.0
C      1  0.5181100000000  0.4948230000000  0.5902530000000 1.0
C      1  0.4610690000000  0.3619840000000  0.4863500000000 1.0
C      1  0.4483130000000  0.5583290000000  0.4959920000000 1.0
C      1  0.5696090000000  0.4420930000000  0.5403430000000 1.0
C      1  0.4295910000000  0.4843410000000  0.5026910000000 1.0
C      1  0.5259370000000  0.4706680000000  0.4598010000000 1.0
C      1  0.4503690000000  0.5797540000000  0.4766070000000 1.0
C      1  0.4555170000000  0.5136030000000  0.6168080000000 1.0
C      1  0.4996690000000  0.5084890000000  0.5191010000000 1.0
C      1  0.5176620000000  0.5080740000000  0.5655230000000 1.0
C      1  0.4862990000000  0.5298850000000  0.5037830000000 1.0
C      1  0.4270900000000  0.5098780000000  0.4910120000000 1.0
C      1  0.5604340000000  0.5369730000000  0.5485820000000 1.0
C      1  0.4773180000000  0.5919150000000  0.4796730000000 1.0
C      1  0.5571030000000  0.4371330000000  0.5899770000000 1.0
C      1  0.5660320000000  0.5019140000000  0.4569360000000 1.0
C      1  0.4418070000000  0.5761890000000  0.4496990000000 1.0
C      1  0.5672260000000  0.4340570000000  0.5655540000000 1.0
C      1  0.4909100000000  0.5793210000000  0.5021210000000 1.0
C      1  0.5700810000000  0.5316600000000  0.4569820000000 1.0
C      1  0.4847520000000  0.4915460000000  0.4795710000000 1.0
C      1  0.4629290000000  0.4309330000000  0.4441910000000 1.0
C      1  0.5392770000000  0.5247500000000  0.5591220000000 1.0
C      1  0.5653540000000  0.4567040000000  0.5186200000000 1.0
C      1  0.4736690000000  0.4589480000000  0.5393800000000 1.0
C      1  0.5283820000000  0.4724620000000  0.4892410000000 1.0
C      1  0.4284770000000  0.4882740000000  0.5538910000000 1.0
C      1  0.4482080000000  0.4355650000000  0.4216030000000 1.0
C      1  0.5048700000000  0.5521410000000  0.4362160000000 1.0
C      1  0.4607200000000  0.3404350000000  0.5010190000000 1.0
C      1  0.4614250000000  0.3839250000000  0.4714850000000 1.0
C      1  0.4875060000000  0.5744510000000  0.4351600000000 1.0
C      1  0.5415680000000  0.4523870000000  0.6053480000000 1.0
C      1  0.4822940000000  0.5201310000000  0.4755160000000 1.0
C      1  0.4528740000000  0.4920550000000  0.5675200000000 1.0
C      1  0.5266830000000  0.4744900000000  0.6051240000000 1.0
END
