TITL C-627111-6168-1564 -9.00845345135959e-08 125000 -271.295835655791 0 0 46 (C1) n - 1
REM
REM in /home/nfs/bkarasulu/CARBON/AIRSS/Generating-Clusters/LCBOP/Only-C1/SD-CG/FIRE-CG
REM
REM
REM
REM
REM
REM ./C.cell (11c1c37f851c82e70ff6c80c92926a4b)
REM AIRSS Version 0.9.1 bugfix July 2018 build 013d7b7c2542+ Fri, 06 Jul 2018 19:26:36 +0100
REM compiler GCC version 9.2.1 20190827 (Red Hat 9.2.1-1)
REM options -cpp -mtune=generic -march=x86-64 -g -O0 -fpre-include=/usr/include/finclude/math-vector-fortran.h
REM seed -1271197486 693472896 1808222685 139180722 -1789035001 438700367 927375981 850881763 761636611 15250708 -96259887 -1609817204 -696255836 -285263165 584767195 -607474720 -1834427296 -312195233 1345912417 -433873868 1981862823 868859678 967891728 645309150 -627024217 317783434 -1508054726 -1024353610 1557400452 114260464 1606604514 1135727727 2049577836
REM
CELL 1.54180   50.00000   50.00000   50.00000   90.00000   90.00000   90.00000
LATT -1
SFAC C  
C      1  0.5276470000000  0.4235290000000  0.4755730000000 1.0
C      1  0.4921080000000  0.5786780000000  0.5012790000000 1.0
C      1  0.4857210000000  0.6397640000000  0.4776590000000 1.0
C      1  0.4594050000000  0.4517610000000  0.5960500000000 1.0
C      1  0.4794910000000  0.4275460000000  0.5572600000000 1.0
C      1  0.4723650000000  0.5023320000000  0.4627840000000 1.0
C      1  0.5496970000000  0.4884530000000  0.4572340000000 1.0
C      1  0.5448380000000  0.5207440000000  0.4925410000000 1.0
C      1  0.4579340000000  0.5253940000000  0.4691370000000 1.0
C      1  0.4701480000000  0.4895730000000  0.5422370000000 1.0
C      1  0.5224850000000  0.5614050000000  0.4464740000000 1.0
C      1  0.5059640000000  0.6235000000000  0.4863660000000 1.0
C      1  0.5142740000000  0.5833580000000  0.4591110000000 1.0
C      1  0.5912700000000  0.4648860000000  0.4753530000000 1.0
C      1  0.6094580000000  0.4463080000000  0.4735760000000 1.0
C      1  0.4841900000000  0.4421740000000  0.5338940000000 1.0
C      1  0.4654530000000  0.4811240000000  0.4451240000000 1.0
C      1  0.4419620000000  0.4938320000000  0.6137750000000 1.0
C      1  0.5041370000000  0.5955190000000  0.4822900000000 1.0
C      1  0.5398090000000  0.5154460000000  0.4637470000000 1.0
C      1  0.5107430000000  0.4838370000000  0.4954910000000 1.0
C      1  0.4596470000000  0.4907100000000  0.5683390000000 1.0
C      1  0.4312330000000  0.5076920000000  0.6330630000000 1.0
C      1  0.5252910000000  0.5304070000000  0.5102770000000 1.0
C      1  0.4943230000000  0.4964290000000  0.4790620000000 1.0
C      1  0.4696990000000  0.4315930000000  0.5818170000000 1.0
C      1  0.4408720000000  0.4576310000000  0.4818110000000 1.0
C      1  0.5360110000000  0.4411780000000  0.4571940000000 1.0
C      1  0.4534300000000  0.4790810000000  0.5931530000000 1.0
C      1  0.4465790000000  0.4633490000000  0.4561560000000 1.0
C      1  0.5076850000000  0.4403910000000  0.5181420000000 1.0
C      1  0.5279480000000  0.6339010000000  0.4989590000000 1.0
C      1  0.5128150000000  0.4716070000000  0.4283190000000 1.0
C      1  0.4860300000000  0.4738490000000  0.4272760000000 1.0
C      1  0.4823030000000  0.5526930000000  0.5049190000000 1.0
C      1  0.4613940000000  0.5440640000000  0.4880760000000 1.0
C      1  0.5346540000000  0.4670780000000  0.4456780000000 1.0
C      1  0.4979620000000  0.5325110000000  0.5180700000000 1.0
C      1  0.5307120000000  0.5360860000000  0.4474420000000 1.0
C      1  0.5710350000000  0.4836350000000  0.4769990000000 1.0
C      1  0.4668040000000  0.4646350000000  0.5279870000000 1.0
C      1  0.5669480000000  0.5029080000000  0.4981280000000 1.0
C      1  0.5191720000000  0.4655400000000  0.5128280000000 1.0
C      1  0.4847110000000  0.5119060000000  0.5324930000000 1.0
C      1  0.4480520000000  0.4612010000000  0.5073100000000 1.0
C      1  0.5155920000000  0.4207640000000  0.4995460000000 1.0
END
