TITL C-627109-622-530 -4.28587255957387e-07 125000 -198.738709763898 0 0 34 (C1) n - 1
REM
REM in /home/nfs/bkarasulu/CARBON/AIRSS/Generating-Clusters/LCBOP/Only-C1/SD-CG/FIRE-CG
REM
REM
REM
REM
REM
REM ./C.cell (11c1c37f851c82e70ff6c80c92926a4b)
REM AIRSS Version 0.9.1 bugfix July 2018 build 013d7b7c2542+ Fri, 06 Jul 2018 19:26:36 +0100
REM compiler GCC version 9.2.1 20190827 (Red Hat 9.2.1-1)
REM options -cpp -mtune=generic -march=x86-64 -g -O0 -fpre-include=/usr/include/finclude/math-vector-fortran.h
REM seed -1053850545 -1107339775 138690583 445112180 -1169930218 -999938173 1334857492 -1228948358 591332199 1941097114 -1772568109 -1861287743 -846733632 1874031942 1912738694 2107921930 -531793100 -1352306948 1957677424 -985261120 735376022 -1572226212 -790572581 20121152 -468145122 152137094 -967072079 1610167115 -239311241 -404097013 -1430505049 863684245 331916005
REM
CELL 1.54180   50.00000   50.00000   50.00000   90.00000   90.00000   90.00000
LATT -1
SFAC C  
C      1  0.4818440000000  0.4903430000000  0.5549960000000 1.0
C      1  0.4974820000000  0.5312980000000  0.5140080000000 1.0
C      1  0.5740480000000  0.4947570000000  0.5308940000000 1.0
C      1  0.5279180000000  0.4447900000000  0.4774400000000 1.0
C      1  0.4533730000000  0.5061560000000  0.5174760000000 1.0
C      1  0.5174830000000  0.5064610000000  0.4377940000000 1.0
C      1  0.4510690000000  0.4628420000000  0.4985980000000 1.0
C      1  0.5138570000000  0.5672450000000  0.4834280000000 1.0
C      1  0.4836930000000  0.5386200000000  0.4572180000000 1.0
C      1  0.4544750000000  0.5565830000000  0.5203090000000 1.0
C      1  0.4448340000000  0.4908400000000  0.4936090000000 1.0
C      1  0.5155600000000  0.4721040000000  0.4735330000000 1.0
C      1  0.5596390000000  0.4910680000000  0.4595950000000 1.0
C      1  0.4507560000000  0.4371070000000  0.5416010000000 1.0
C      1  0.5002770000000  0.5608460000000  0.4610060000000 1.0
C      1  0.5159090000000  0.4878500000000  0.4995750000000 1.0
C      1  0.5128140000000  0.5539540000000  0.5068730000000 1.0
C      1  0.5312050000000  0.4954840000000  0.5632460000000 1.0
C      1  0.5563030000000  0.4947940000000  0.5506840000000 1.0
C      1  0.5094680000000  0.5060990000000  0.5199380000000 1.0
C      1  0.4865200000000  0.4691690000000  0.4643680000000 1.0
C      1  0.5774010000000  0.4932690000000  0.4793590000000 1.0
C      1  0.5322530000000  0.4886400000000  0.4540470000000 1.0
C      1  0.4598410000000  0.4864580000000  0.5379820000000 1.0
C      1  0.4910820000000  0.5141930000000  0.4433160000000 1.0
C      1  0.4637570000000  0.5311120000000  0.4771950000000 1.0
C      1  0.4675760000000  0.5323430000000  0.5084120000000 1.0
C      1  0.4740360000000  0.4927160000000  0.4533240000000 1.0
C      1  0.4537320000000  0.4599840000000  0.5273000000000 1.0
C      1  0.4690650000000  0.4522360000000  0.4794950000000 1.0
C      1  0.5293210000000  0.4946380000000  0.5905130000000 1.0
C      1  0.5080290000000  0.4973000000000  0.5470840000000 1.0
C      1  0.5820990000000  0.4944520000000  0.5055420000000 1.0
C      1  0.4532810000000  0.5042480000000  0.4702440000000 1.0
END
