TITL C-627112-676-569 -3.43600780466444e-06 125000 -970.380918018305 0 0 157 (C1) n - 1
REM
REM in /home/nfs/bkarasulu/CARBON/AIRSS/Generating-Clusters/LCBOP/Only-C1/SD-CG/FIRE-CG
REM
REM
REM
REM
REM
REM ./C.cell (11c1c37f851c82e70ff6c80c92926a4b)
REM AIRSS Version 0.9.1 bugfix July 2018 build 013d7b7c2542+ Fri, 06 Jul 2018 19:26:36 +0100
REM compiler GCC version 9.2.1 20190827 (Red Hat 9.2.1-1)
REM options -cpp -mtune=generic -march=x86-64 -g -O0 -fpre-include=/usr/include/finclude/math-vector-fortran.h
REM seed -2099371611 1777427090 -1637533017 497485023 1015528042 622035146 -976261696 1477084648 235792804 2109289559 -1289457600 269180223 -10641519 -144730305 -1877460697 1057724776 190057752 1536006662 1563705847 -1092256950 720383490 -1322319237 1708208725 -588600013 1423363971 1650513101 -1234856060 853349547 -987518085 1248791541 -274629656 1764857811 816209311
REM
CELL 1.54180   50.00000   50.00000   50.00000   90.00000   90.00000   90.00000
LATT -1
SFAC C  
C      1  0.4298960000000  0.6152870000000  0.4568700000000 1.0
C      1  0.6141190000000  0.4879530000000  0.4097570000000 1.0
C      1  0.4460160000000  0.5964850000000  0.4472420000000 1.0
C      1  0.4545570000000  0.5439970000000  0.5146890000000 1.0
C      1  0.5167140000000  0.4931560000000  0.5644290000000 1.0
C      1  0.4885740000000  0.3810870000000  0.5361880000000 1.0
C      1  0.5811490000000  0.4482530000000  0.4826280000000 1.0
C      1  0.5696400000000  0.5756980000000  0.5690130000000 1.0
C      1  0.4340230000000  0.5576740000000  0.5823450000000 1.0
C      1  0.5042470000000  0.5313520000000  0.5158150000000 1.0
C      1  0.5299410000000  0.4787730000000  0.5429730000000 1.0
C      1  0.4656040000000  0.3657520000000  0.4966010000000 1.0
C      1  0.5209160000000  0.5229550000000  0.4507060000000 1.0
C      1  0.5265860000000  0.5589690000000  0.3924960000000 1.0
C      1  0.6197640000000  0.5368480000000  0.4762440000000 1.0
C      1  0.5278390000000  0.4539320000000  0.5307580000000 1.0
C      1  0.5012410000000  0.4040030000000  0.5471650000000 1.0
C      1  0.5519820000000  0.5568820000000  0.4587360000000 1.0
C      1  0.3945880000000  0.5515170000000  0.5069200000000 1.0
C      1  0.4453450000000  0.6041100000000  0.5771130000000 1.0
C      1  0.5081560000000  0.5770790000000  0.4979960000000 1.0
C      1  0.4699190000000  0.6050380000000  0.5630410000000 1.0
C      1  0.5540000000000  0.3978190000000  0.5623880000000 1.0
C      1  0.4367290000000  0.5264150000000  0.6186560000000 1.0
C      1  0.5603580000000  0.5039550000000  0.4015390000000 1.0
C      1  0.4811750000000  0.5235200000000  0.5763610000000 1.0
C      1  0.5592680000000  0.5231160000000  0.6162280000000 1.0
C      1  0.5347590000000  0.3645480000000  0.5976990000000 1.0
C      1  0.5148590000000  0.4184090000000  0.4228280000000 1.0
C      1  0.4116480000000  0.5689190000000  0.5210580000000 1.0
C      1  0.5515570000000  0.3794190000000  0.5832810000000 1.0
C      1  0.6116590000000  0.5101220000000  0.4689690000000 1.0
C      1  0.5937680000000  0.5803480000000  0.4868670000000 1.0
C      1  0.4368630000000  0.5549860000000  0.4237700000000 1.0
C      1  0.4401010000000  0.3789100000000  0.5351850000000 1.0
C      1  0.4259040000000  0.5102570000000  0.5747250000000 1.0
C      1  0.3936870000000  0.4456040000000  0.5311150000000 1.0
C      1  0.5910660000000  0.4454540000000  0.5110640000000 1.0
C      1  0.5038270000000  0.5244970000000  0.4888910000000 1.0
C      1  0.4580690000000  0.4807280000000  0.5005370000000 1.0
C      1  0.5361990000000  0.5689680000000  0.5022050000000 1.0
C      1  0.4788350000000  0.5145080000000  0.4166390000000 1.0
C      1  0.5752320000000  0.5653140000000  0.4430700000000 1.0
C      1  0.4969060000000  0.5933010000000  0.5186940000000 1.0
C      1  0.4513190000000  0.5508470000000  0.3999220000000 1.0
C      1  0.5793360000000  0.4072160000000  0.5500200000000 1.0
C      1  0.5798150000000  0.5242140000000  0.4083410000000 1.0
C      1  0.4578910000000  0.5013680000000  0.4563830000000 1.0
C      1  0.4641290000000  0.3733470000000  0.5499600000000 1.0
C      1  0.4875720000000  0.4975570000000  0.5648840000000 1.0
C      1  0.5405860000000  0.5521530000000  0.4146000000000 1.0
C      1  0.5655100000000  0.4340900000000  0.4312000000000 1.0
C      1  0.5169240000000  0.4593910000000  0.4824550000000 1.0
C      1  0.4697560000000  0.4811410000000  0.4741650000000 1.0
C      1  0.5557820000000  0.5777560000000  0.5220140000000 1.0
C      1  0.4676500000000  0.4706500000000  0.5255510000000 1.0
C      1  0.5758700000000  0.5381990000000  0.4969280000000 1.0
C      1  0.5098920000000  0.3559070000000  0.6019070000000 1.0
C      1  0.4716010000000  0.5333200000000  0.3976270000000 1.0
C      1  0.5919290000000  0.4705520000000  0.5267960000000 1.0
C      1  0.5520520000000  0.5510450000000  0.4860440000000 1.0
C      1  0.5875640000000  0.4436080000000  0.4155750000000 1.0
C      1  0.5479120000000  0.5330780000000  0.5511960000000 1.0
C      1  0.5911160000000  0.5606280000000  0.6119030000000 1.0
C      1  0.4122860000000  0.4707380000000  0.4271570000000 1.0
C      1  0.4668250000000  0.5542520000000  0.4630580000000 1.0
C      1  0.4371850000000  0.4999490000000  0.5053450000000 1.0
C      1  0.5290830000000  0.5252720000000  0.5281570000000 1.0
C      1  0.3905880000000  0.5223810000000  0.4677930000000 1.0
C      1  0.4033250000000  0.4719080000000  0.5281840000000 1.0
C      1  0.4391990000000  0.4274690000000  0.4263500000000 1.0
C      1  0.5903300000000  0.4964750000000  0.4815280000000 1.0
C      1  0.4891640000000  0.5672580000000  0.4774470000000 1.0
C      1  0.4847100000000  0.5268640000000  0.6047040000000 1.0
C      1  0.4802020000000  0.5393870000000  0.5286020000000 1.0
C      1  0.5338150000000  0.4828560000000  0.4354710000000 1.0
C      1  0.4068690000000  0.6113830000000  0.5456690000000 1.0
C      1  0.5060910000000  0.4612880000000  0.3905710000000 1.0
C      1  0.4265210000000  0.5320940000000  0.5930130000000 1.0
C      1  0.4234600000000  0.6175050000000  0.5656270000000 1.0
C      1  0.4360270000000  0.5587570000000  0.5312520000000 1.0
C      1  0.3567260000000  0.5226160000000  0.5016910000000 1.0
C      1  0.4595600000000  0.4694690000000  0.4160620000000 1.0
C      1  0.4448840000000  0.5256640000000  0.4958270000000 1.0
C      1  0.4050780000000  0.5967400000000  0.5219340000000 1.0
C      1  0.6058900000000  0.4624790000000  0.4106630000000 1.0
C      1  0.4351540000000  0.4551380000000  0.4220230000000 1.0
C      1  0.4840760000000  0.4486300000000  0.5238280000000 1.0
C      1  0.5826340000000  0.4208590000000  0.5241210000000 1.0
C      1  0.4470140000000  0.5556080000000  0.5575900000000 1.0
C      1  0.5318090000000  0.5471340000000  0.4417410000000 1.0
C      1  0.6058830000000  0.5136140000000  0.4096370000000 1.0
C      1  0.5365540000000  0.4981950000000  0.5234020000000 1.0
C      1  0.5388640000000  0.4342430000000  0.4166790000000 1.0
C      1  0.3669540000000  0.4407330000000  0.5275230000000 1.0
C      1  0.4108090000000  0.4241360000000  0.5376240000000 1.0
C      1  0.5352880000000  0.5223060000000  0.6020520000000 1.0
C      1  0.5000810000000  0.5109760000000  0.4344630000000 1.0
C      1  0.5334600000000  0.4577540000000  0.3991540000000 1.0
C      1  0.5863380000000  0.6165940000000  0.5193420000000 1.0
C      1  0.4649190000000  0.4860430000000  0.5500390000000 1.0
C      1  0.5999880000000  0.5525450000000  0.4903140000000 1.0
C      1  0.5816680000000  0.5117300000000  0.5039100000000 1.0
C      1  0.4508040000000  0.5691680000000  0.4443930000000 1.0
C      1  0.4633150000000  0.4149330000000  0.4252680000000 1.0
C      1  0.5741960000000  0.5154300000000  0.5496340000000 1.0
C      1  0.5850460000000  0.5757740000000  0.5907190000000 1.0
C      1  0.4598370000000  0.4959620000000  0.4276370000000 1.0
C      1  0.4221390000000  0.4927510000000  0.5288010000000 1.0
C      1  0.5088900000000  0.3870080000000  0.4901750000000 1.0
C      1  0.5333190000000  0.5163780000000  0.5744420000000 1.0
C      1  0.5374460000000  0.4281800000000  0.5319220000000 1.0
C      1  0.4854810000000  0.4275080000000  0.5424070000000 1.0
C      1  0.5789110000000  0.5919650000000  0.5095720000000 1.0
C      1  0.4382250000000  0.5828200000000  0.5950980000000 1.0
C      1  0.4856470000000  0.6016380000000  0.5415560000000 1.0
C      1  0.4729990000000  0.5424610000000  0.5568040000000 1.0
C      1  0.4832120000000  0.4540120000000  0.4060490000000 1.0
C      1  0.4557150000000  0.5276470000000  0.4693770000000 1.0
C      1  0.4113370000000  0.6199310000000  0.4753400000000 1.0
C      1  0.5844730000000  0.4987370000000  0.5289930000000 1.0
C      1  0.4898680000000  0.3759390000000  0.5075910000000 1.0
C      1  0.4844600000000  0.3550270000000  0.5939350000000 1.0
C      1  0.5080930000000  0.4552310000000  0.5104230000000 1.0
C      1  0.4004800000000  0.5176290000000  0.4418950000000 1.0
C      1  0.5109320000000  0.5287040000000  0.6141930000000 1.0
C      1  0.3700130000000  0.4907390000000  0.4154310000000 1.0
C      1  0.3468620000000  0.4891080000000  0.4035770000000 1.0
C      1  0.4231450000000  0.4006160000000  0.5405510000000 1.0
C      1  0.3805430000000  0.5321890000000  0.4921320000000 1.0
C      1  0.4414830000000  0.3680710000000  0.5089000000000 1.0
C      1  0.4148170000000  0.5385010000000  0.4295010000000 1.0
C      1  0.5806800000000  0.5380500000000  0.6218260000000 1.0
C      1  0.4011400000000  0.6109250000000  0.4981560000000 1.0
C      1  0.3947840000000  0.4929150000000  0.4284000000000 1.0
C      1  0.5449870000000  0.4814070000000  0.4775640000000 1.0
C      1  0.5729750000000  0.4319510000000  0.4596950000000 1.0
C      1  0.4355990000000  0.5869220000000  0.6219280000000 1.0
C      1  0.4632750000000  0.5247810000000  0.6227110000000 1.0
C      1  0.4953460000000  0.4715590000000  0.4647320000000 1.0
C      1  0.4373750000000  0.4959750000000  0.5533120000000 1.0
C      1  0.5703850000000  0.5500160000000  0.4173260000000 1.0
C      1  0.5399700000000  0.5007420000000  0.4575780000000 1.0
C      1  0.6450450000000  0.5466900000000  0.4701640000000 1.0
C      1  0.4875510000000  0.4274980000000  0.4176110000000 1.0
C      1  0.5177610000000  0.4043300000000  0.4700320000000 1.0
C      1  0.5562670000000  0.5632310000000  0.5476540000000 1.0
C      1  0.5052190000000  0.4820520000000  0.4394430000000 1.0
C      1  0.5560000000000  0.4182930000000  0.5136190000000 1.0
C      1  0.5293920000000  0.4085490000000  0.5505950000000 1.0
C      1  0.6682570000000  0.5567570000000  0.4639230000000 1.0
C      1  0.5904240000000  0.5842840000000  0.4581960000000 1.0
C      1  0.5234390000000  0.4314760000000  0.4746830000000 1.0
C      1  0.5173940000000  0.3982230000000  0.4425590000000 1.0
C      1  0.4666810000000  0.3615450000000  0.5751240000000 1.0
C      1  0.5451470000000  0.4818150000000  0.4097410000000 1.0
C      1  0.5724230000000  0.4749340000000  0.4786030000000 1.0
END
