TITL C-627109-622-465 -452.09482899773 125000 -837.582808806108 0 0 137 (C1) n - 1
REM
REM in /home/nfs/bkarasulu/CARBON/AIRSS/Generating-Clusters/LCBOP/Only-C1/SD-CG/FIRE-CG
REM
REM
REM
REM
REM
REM ./C.cell (11c1c37f851c82e70ff6c80c92926a4b)
REM AIRSS Version 0.9.1 bugfix July 2018 build 013d7b7c2542+ Fri, 06 Jul 2018 19:26:36 +0100
REM compiler GCC version 9.2.1 20190827 (Red Hat 9.2.1-1)
REM options -cpp -mtune=generic -march=x86-64 -g -O0 -fpre-include=/usr/include/finclude/math-vector-fortran.h
REM seed 1682607678 -569644682 62237276 1900644751 -1462208863 935029646 -328458461 781434765 -1953641417 -952589081 -1293141892 -1295583685 1732367260 -940918344 1439994549 -1487190227 1951585951 -200348150 -1886553788 1787564708 816345558 1279074502 -1517041147 -989801950 -690431198 -236392964 -1566914771 527529519 -336885515 669559894 -438991483 -1019151454 -991757095
REM
CELL 1.54180   50.00000   50.00000   50.00000   90.00000   90.00000   90.00000
LATT -1
SFAC C  
C      1  0.5319380000000  0.6046590000000  0.5313010000000 1.0
C      1  0.4149260000000  0.4750570000000  0.5784540000000 1.0
C      1  0.4746340000000  0.4176100000000  0.4527210000000 1.0
C      1  0.5341890000000  0.6132440000000  0.5042010000000 1.0
C      1  0.4127680000000  0.3644020000000  0.5681720000000 1.0
C      1  0.4490330000000  0.5054060000000  0.5942920000000 1.0
C      1  0.4254450000000  0.5013830000000  0.5770360000000 1.0
C      1  0.4647010000000  0.5793440000000  0.4921270000000 1.0
C      1  0.5551650000000  0.5839230000000  0.5693210000000 1.0
C      1  0.5299910000000  0.4487090000000  0.6220570000000 1.0
C      1  0.5196570000000  0.4534190000000  0.4775110000000 1.0
C      1  0.4117620000000  0.4752470000000  0.4852480000000 1.0
C      1  0.5748250000000  0.5127750000000  0.5601990000000 1.0
C      1  0.4703040000000  0.5139970000000  0.5482620000000 1.0
C      1  0.4578780000000  0.5512050000000  0.6108590000000 1.0
C      1  0.4406910000000  0.4312380000000  0.5876600000000 1.0
C      1  0.4880510000000  0.5663950000000  0.4104060000000 1.0
C      1  0.5557150000000  0.4348910000000  0.5098690000000 1.0
C      1  0.4705240000000  0.4627370000000  0.4076820000000 1.0
C      1  0.5793360000000  0.5171200000000  0.4700030000000 1.0
C      1  0.5067370000000  0.6212520000000  0.4626120000000 1.0
C      1  0.4755630000000  0.4873760000000  0.5551020000000 1.0
C      1  0.5039410000000  0.4028050000000  0.3909340000000 1.0
C      1  0.4439820000000  0.5133400000000  0.4571770000000 1.0
C      1  0.5643000000000  0.5633130000000  0.4683960000000 1.0
C      1  0.5149940000000  0.4302160000000  0.5577700000000 1.0
C      1  0.5723310000000  0.4780970000000  0.5304670000000 1.0
C      1  0.5875260000000  0.4972910000000  0.4885840000000 1.0
C      1  0.4281980000000  0.5636580000000  0.5261510000000 1.0
C      1  0.4607820000000  0.5031440000000  0.4775210000000 1.0
C      1  0.4149090000000  0.4884450000000  0.5085230000000 1.0
C      1  0.5383940000000  0.4331200000000  0.4862650000000 1.0
C      1  0.5179220000000  0.3749860000000  0.5062120000000 1.0
C      1  0.4273590000000  0.5044410000000  0.5279680000000 1.0
C      1  0.4159270000000  0.4608030000000  0.4612010000000 1.0
C      1  0.5837850000000  0.4412820000000  0.4445080000000 1.0
C      1  0.4837780000000  0.3827060000000  0.5387630000000 1.0
C      1  0.5759250000000  0.5803770000000  0.5846730000000 1.0
C      1  0.4728350000000  0.4469670000000  0.5266340000000 1.0
C      1  0.5011920000000  0.5414500000000  0.4072670000000 1.0
C      1  0.4542610000000  0.5138280000000  0.5247560000000 1.0
C      1  0.4598730000000  0.5628210000000  0.4067160000000 1.0
C      1  0.5573110000000  0.4181460000000  0.5630660000000 1.0
C      1  0.4260800000000  0.4159850000000  0.4467490000000 1.0
C      1  0.4896730000000  0.4376410000000  0.6034630000000 1.0
C      1  0.5218950000000  0.4043740000000  0.4508990000000 1.0
C      1  0.5017230000000  0.6488950000000  0.5015050000000 1.0
C      1  0.4888740000000  0.4997080000000  0.3801980000000 1.0
C      1  0.5216080000000  0.5069550000000  0.5521030000000 1.0
C      1  0.5112000000000  0.4575270000000  0.5550190000000 1.0
C      1  0.4732080000000  0.4200400000000  0.4809320000000 1.0
C      1  0.4957420000000  0.4489480000000  0.4029410000000 1.0
C      1  0.4658250000000  0.4845520000000  0.6058250000000 1.0
C      1  0.5581080000000  0.4803300000000  0.4257260000000 1.0
C      1  0.4443540000000  0.5812520000000  0.3939110000000 1.0
C      1  0.5971150000000  0.4528160000000  0.4664020000000 1.0
C      1  0.4765790000000  0.5342370000000  0.5679580000000 1.0
C      1  0.5841310000000  0.5023980000000  0.5170390000000 1.0
C      1  0.4985770000000  0.4132780000000  0.4379200000000 1.0
C      1  0.5167370000000  0.4641210000000  0.3906840000000 1.0
C      1  0.4503350000000  0.5085740000000  0.4110100000000 1.0
C      1  0.5332480000000  0.4838050000000  0.5662850000000 1.0
C      1  0.5442560000000  0.4145860000000  0.4646890000000 1.0
C      1  0.5038300000000  0.5844930000000  0.4269880000000 1.0
C      1  0.4219730000000  0.4494390000000  0.5818610000000 1.0
C      1  0.4657120000000  0.4255320000000  0.5953280000000 1.0
C      1  0.4556950000000  0.5720250000000  0.6270940000000 1.0
C      1  0.5046100000000  0.5530650000000  0.4611620000000 1.0
C      1  0.5122710000000  0.4890320000000  0.5069510000000 1.0
C      1  0.4652960000000  0.5190410000000  0.5001530000000 1.0
C      1  0.4191900000000  0.5719020000000  0.4785860000000 1.0
C      1  0.5897290000000  0.5508790000000  0.5270380000000 1.0
C      1  0.5316270000000  0.5891830000000  0.5553650000000 1.0
C      1  0.5851590000000  0.5245450000000  0.5355090000000 1.0
C      1  0.5578530000000  0.6056410000000  0.4910290000000 1.0
C      1  0.5730270000000  0.5824740000000  0.4874470000000 1.0
C      1  0.5623270000000  0.5372720000000  0.4809850000000 1.0
C      1  0.4490650000000  0.5382620000000  0.4171880000000 1.0
C      1  0.4091660000000  0.4332300000000  0.4592740000000 1.0
C      1  0.5870810000000  0.4681750000000  0.4872640000000 1.0
C      1  0.5502200000000  0.4186500000000  0.5331050000000 1.0
C      1  0.4677640000000  0.4905350000000  0.3971420000000 1.0
C      1  0.4989780000000  0.5568140000000  0.5161490000000 1.0
C      1  0.5377270000000  0.5101720000000  0.3864710000000 1.0
C      1  0.5502490000000  0.5615820000000  0.4424330000000 1.0
C      1  0.5211280000000  0.4133100000000  0.5353260000000 1.0
C      1  0.5361680000000  0.5328660000000  0.4900980000000 1.0
C      1  0.4515240000000  0.4251970000000  0.4379660000000 1.0
C      1  0.4539290000000  0.5929630000000  0.6425230000000 1.0
C      1  0.5731750000000  0.4572500000000  0.5106960000000 1.0
C      1  0.4192380000000  0.5176830000000  0.5529920000000 1.0
C      1  0.4369310000000  0.5740570000000  0.5003300000000 1.0
C      1  0.5165130000000  0.4735760000000  0.6153670000000 1.0
C      1  0.4612390000000  0.5311360000000  0.5919790000000 1.0
C      1  0.5163210000000  0.5062750000000  0.5262250000000 1.0
C      1  0.5617990000000  0.5390630000000  0.4260060000000 1.0
C      1  0.4224340000000  0.5583890000000  0.4557720000000 1.0
C      1  0.4799360000000  0.5587320000000  0.4761230000000 1.0
C      1  0.4394910000000  0.5392870000000  0.4450450000000 1.0
C      1  0.4389130000000  0.4961760000000  0.4349670000000 1.0
C      1  0.4363590000000  0.3693690000000  0.5582510000000 1.0
C      1  0.5240430000000  0.4623670000000  0.4513480000000 1.0
C      1  0.5068980000000  0.5204400000000  0.4228260000000 1.0
C      1  0.4855080000000  0.5989690000000  0.5609340000000 1.0
C      1  0.5347630000000  0.4857310000000  0.4406610000000 1.0
C      1  0.5754220000000  0.4596940000000  0.4248080000000 1.0
C      1  0.5162720000000  0.4915350000000  0.3826440000000 1.0
C      1  0.5188180000000  0.4284220000000  0.6044080000000 1.0
C      1  0.5203560000000  0.5100220000000  0.4453200000000 1.0
C      1  0.4331370000000  0.4695050000000  0.4394810000000 1.0
C      1  0.5260060000000  0.5489900000000  0.5119140000000 1.0
C      1  0.4973230000000  0.5535510000000  0.5683290000000 1.0
C      1  0.4768380000000  0.4796660000000  0.4769790000000 1.0
C      1  0.5140690000000  0.6275300000000  0.4894040000000 1.0
C      1  0.4198020000000  0.5462740000000  0.5458770000000 1.0
C      1  0.5075790000000  0.3904900000000  0.5262450000000 1.0
C      1  0.4858190000000  0.4637860000000  0.5453500000000 1.0
C      1  0.5182750000000  0.5278590000000  0.4679830000000 1.0
C      1  0.4696850000000  0.4311950000000  0.5051100000000 1.0
C      1  0.5063110000000  0.5803270000000  0.5657490000000 1.0
C      1  0.5215010000000  0.5684590000000  0.4432820000000 1.0
C      1  0.5300380000000  0.4876640000000  0.5952570000000 1.0
C      1  0.4881360000000  0.4670310000000  0.6099640000000 1.0
C      1  0.5872290000000  0.5714210000000  0.5097370000000 1.0
C      1  0.5519920000000  0.5280990000000  0.4013220000000 1.0
C      1  0.5001800000000  0.6098170000000  0.4389760000000 1.0
C      1  0.5010560000000  0.4710590000000  0.4893310000000 1.0
C      1  0.4827660000000  0.5821930000000  0.5152800000000 1.0
C      1  0.4996110000000  0.4216070000000  0.4104400000000 1.0
C      1  0.5621690000000  0.4859100000000  0.5564820000000 1.0
C      1  0.4830130000000  0.5397950000000  0.4982810000000 1.0
C      1  0.5684000000000  0.4183990000000  0.4505150000000 1.0
C      1  0.4763570000000  0.6003450000000  0.5356400000000 1.0
C      1  0.4512340000000  0.4514210000000  0.4261630000000 1.0
C      1  0.4602900000000  0.3754470000000  0.5486160000000 1.0
C      1  0.5802540000000  0.5221630000000  0.4416000000000 1.0
C      1  0.5325740000000  0.4229000000000  0.5796430000000 1.0
END
