TITL C-627107-135-845 480.63814098236 125000 -732.099114170898 0 0 119 (C1) n - 1
REM
REM in /home/nfs/bkarasulu/CARBON/AIRSS/Generating-Clusters/LCBOP/Only-C1/SD-CG/FIRE-CG
REM
REM
REM
REM
REM
REM ./C.cell (11c1c37f851c82e70ff6c80c92926a4b)
REM AIRSS Version 0.9.1 bugfix July 2018 build 013d7b7c2542+ Fri, 06 Jul 2018 19:26:36 +0100
REM compiler GCC version 9.2.1 20190827 (Red Hat 9.2.1-1)
REM options -cpp -mtune=generic -march=x86-64 -g -O0 -fpre-include=/usr/include/finclude/math-vector-fortran.h
REM seed 1994237850 749801062 -1509724745 -1571293523 1147663735 1771803745 -388632557 1553304761 -100162834 -2046905697 -1439380488 128675231 52062939 -1258820100 750874163 -955116035 1592859923 1887251328 1900720684 898410051 910321579 1021914730 -2076102296 -1540879772 -1397680793 1836184905 -2100205590 -779297487 -28468075 -381297975 1631471528 29107030 -563173948
REM
CELL 1.54180   50.00000   50.00000   50.00000   90.00000   90.00000   90.00000
LATT -1
SFAC C  
C      1  0.5274160000000  0.5420500000000  0.4199870000000 1.0
C      1  0.5355970000000  0.5490510000000  0.5647250000000 1.0
C      1  0.5331640000000  0.4853430000000  0.5284280000000 1.0
C      1  0.4039890000000  0.4759990000000  0.4472460000000 1.0
C      1  0.4564680000000  0.4390130000000  0.4522850000000 1.0
C      1  0.4430230000000  0.4222480000000  0.5382690000000 1.0
C      1  0.4947370000000  0.4718000000000  0.5974470000000 1.0
C      1  0.5950820000000  0.4791040000000  0.5406870000000 1.0
C      1  0.4107060000000  0.4936220000000  0.5329210000000 1.0
C      1  0.4099500000000  0.4520130000000  0.4940680000000 1.0
C      1  0.5286400000000  0.5906590000000  0.5401630000000 1.0
C      1  0.5384400000000  0.4857100000000  0.6084100000000 1.0
C      1  0.4411680000000  0.4363460000000  0.5607440000000 1.0
C      1  0.5276480000000  0.4637600000000  0.4139010000000 1.0
C      1  0.4790670000000  0.4002810000000  0.4716660000000 1.0
C      1  0.5802300000000  0.5043640000000  0.4917100000000 1.0
C      1  0.5442160000000  0.4873300000000  0.4224840000000 1.0
C      1  0.4656160000000  0.4375570000000  0.4083660000000 1.0
C      1  0.5684140000000  0.4830100000000  0.4399140000000 1.0
C      1  0.5851350000000  0.5783690000000  0.5214360000000 1.0
C      1  0.4886400000000  0.4234930000000  0.4190910000000 1.0
C      1  0.4835900000000  0.4041530000000  0.4435770000000 1.0
C      1  0.4143390000000  0.5276430000000  0.4975180000000 1.0
C      1  0.4087880000000  0.5316820000000  0.4482510000000 1.0
C      1  0.5197960000000  0.5851050000000  0.5135400000000 1.0
C      1  0.4361280000000  0.5333750000000  0.4360960000000 1.0
C      1  0.5350370000000  0.5142460000000  0.4163070000000 1.0
C      1  0.4324770000000  0.5711960000000  0.5426750000000 1.0
C      1  0.4828500000000  0.4464280000000  0.4625680000000 1.0
C      1  0.4407770000000  0.5067920000000  0.5846000000000 1.0
C      1  0.5674720000000  0.5693910000000  0.4452180000000 1.0
C      1  0.5376410000000  0.5324700000000  0.5412420000000 1.0
C      1  0.5266960000000  0.4540410000000  0.4820330000000 1.0
C      1  0.5750040000000  0.4773800000000  0.5620180000000 1.0
C      1  0.4494900000000  0.5584690000000  0.4427810000000 1.0
C      1  0.4468250000000  0.5925000000000  0.5312730000000 1.0
C      1  0.4186940000000  0.5037910000000  0.4813030000000 1.0
C      1  0.4028930000000  0.5038700000000  0.4559160000000 1.0
C      1  0.5926030000000  0.4902240000000  0.5138760000000 1.0
C      1  0.4317120000000  0.5414020000000  0.5482490000000 1.0
C      1  0.4732380000000  0.4077360000000  0.5006610000000 1.0
C      1  0.5801760000000  0.5753560000000  0.4683160000000 1.0
C      1  0.4471100000000  0.4493390000000  0.4267740000000 1.0
C      1  0.4816820000000  0.4736370000000  0.4680130000000 1.0
C      1  0.5216920000000  0.4410190000000  0.5521630000000 1.0
C      1  0.5463860000000  0.5749840000000  0.5561660000000 1.0
C      1  0.5731720000000  0.5764870000000  0.5457530000000 1.0
C      1  0.5636190000000  0.4530960000000  0.5725920000000 1.0
C      1  0.4827600000000  0.5552700000000  0.4794060000000 1.0
C      1  0.5055060000000  0.4193560000000  0.5430480000000 1.0
C      1  0.5261610000000  0.5317010000000  0.5872000000000 1.0
C      1  0.5786670000000  0.4972600000000  0.4633640000000 1.0
C      1  0.4291140000000  0.4304590000000  0.4925440000000 1.0
C      1  0.4450430000000  0.4999760000000  0.4714300000000 1.0
C      1  0.5303260000000  0.4573360000000  0.5305440000000 1.0
C      1  0.4821310000000  0.4968580000000  0.3519370000000 1.0
C      1  0.5450380000000  0.5084070000000  0.5923660000000 1.0
C      1  0.4178580000000  0.5222610000000  0.5267730000000 1.0
C      1  0.5755630000000  0.4318090000000  0.4398750000000 1.0
C      1  0.4638310000000  0.4852330000000  0.4856730000000 1.0
C      1  0.4575690000000  0.5584800000000  0.4912640000000 1.0
C      1  0.6906240000000  0.4378920000000  0.5665240000000 1.0
C      1  0.5561500000000  0.5172690000000  0.5008480000000 1.0
C      1  0.4859030000000  0.5765170000000  0.5577800000000 1.0
C      1  0.6204150000000  0.4686280000000  0.5471120000000 1.0
C      1  0.5108910000000  0.4380080000000  0.4652190000000 1.0
C      1  0.4756020000000  0.5026060000000  0.4317010000000 1.0
C      1  0.5183190000000  0.5007920000000  0.4606450000000 1.0
C      1  0.4954930000000  0.5989790000000  0.5036190000000 1.0
C      1  0.4941600000000  0.4914200000000  0.4496890000000 1.0
C      1  0.4470240000000  0.4577960000000  0.5778810000000 1.0
C      1  0.5350870000000  0.4481680000000  0.5766360000000 1.0
C      1  0.4781860000000  0.5021870000000  0.4040590000000 1.0
C      1  0.4312450000000  0.4816490000000  0.5771270000000 1.0
C      1  0.4912330000000  0.4996440000000  0.6009940000000 1.0
C      1  0.4971820000000  0.5256680000000  0.5917870000000 1.0
C      1  0.5262380000000  0.4268460000000  0.4440340000000 1.0
C      1  0.5380000000000  0.4948640000000  0.5024430000000 1.0
C      1  0.5296810000000  0.4821760000000  0.4791090000000 1.0
C      1  0.4475540000000  0.4187630000000  0.5107910000000 1.0
C      1  0.5528070000000  0.4183640000000  0.4446230000000 1.0
C      1  0.5488400000000  0.5593630000000  0.4283700000000 1.0
C      1  0.5863790000000  0.5782070000000  0.4944440000000 1.0
C      1  0.4096820000000  0.4841590000000  0.5594210000000 1.0
C      1  0.4087660000000  0.4721900000000  0.5139740000000 1.0
C      1  0.4369380000000  0.4249700000000  0.4662660000000 1.0
C      1  0.4935770000000  0.4083960000000  0.5211620000000 1.0
C      1  0.5810180000000  0.4577670000000  0.4360050000000 1.0
C      1  0.4516470000000  0.5106710000000  0.4446310000000 1.0
C      1  0.4380760000000  0.5627510000000  0.4710250000000 1.0
C      1  0.4132110000000  0.5477370000000  0.4749760000000 1.0
C      1  0.4717540000000  0.4573430000000  0.5912900000000 1.0
C      1  0.3972340000000  0.4582400000000  0.4689320000000 1.0
C      1  0.5332990000000  0.5518890000000  0.4736890000000 1.0
C      1  0.4788020000000  0.5689770000000  0.5824820000000 1.0
C      1  0.4941300000000  0.5999870000000  0.4747950000000 1.0
C      1  0.6439600000000  0.4583690000000  0.5535860000000 1.0
C      1  0.4998340000000  0.5524020000000  0.4207900000000 1.0
C      1  0.4812410000000  0.5607340000000  0.5364130000000 1.0
C      1  0.5150780000000  0.4377360000000  0.4196480000000 1.0
C      1  0.4233190000000  0.4652690000000  0.4283650000000 1.0
C      1  0.4962230000000  0.5323860000000  0.4867330000000 1.0
C      1  0.5184580000000  0.5276370000000  0.4697300000000 1.0
C      1  0.4797120000000  0.4998780000000  0.3777140000000 1.0
C      1  0.4738750000000  0.4948600000000  0.5099180000000 1.0
C      1  0.6674870000000  0.4480480000000  0.5601080000000 1.0
C      1  0.4631720000000  0.5530850000000  0.5181480000000 1.0
C      1  0.4887510000000  0.5761540000000  0.4609120000000 1.0
C      1  0.4488330000000  0.5311430000000  0.5724550000000 1.0
C      1  0.5223170000000  0.4643440000000  0.5971070000000 1.0
C      1  0.4784040000000  0.5650690000000  0.4361270000000 1.0
C      1  0.4901320000000  0.5162430000000  0.5089000000000 1.0
C      1  0.4697950000000  0.6021940000000  0.5184160000000 1.0
C      1  0.5354600000000  0.4437330000000  0.5064210000000 1.0
C      1  0.5578740000000  0.4995170000000  0.5679060000000 1.0
C      1  0.5459960000000  0.5400590000000  0.5154130000000 1.0
C      1  0.4737620000000  0.5414520000000  0.5847900000000 1.0
C      1  0.5342870000000  0.5624950000000  0.5006090000000 1.0
C      1  0.5400800000000  0.5049700000000  0.5468660000000 1.0
END
