TITL C-627113-6568-55 2.53773672739963e-11 125000 -354.029297145374 0 0 59 (C1) n - 1
REM
REM in /home/nfs/bkarasulu/CARBON/AIRSS/Generating-Clusters/LCBOP/Only-C1/SD-CG/FIRE-CG
REM
REM
REM
REM
REM
REM ./C.cell (11c1c37f851c82e70ff6c80c92926a4b)
REM AIRSS Version 0.9.1 bugfix July 2018 build 013d7b7c2542+ Fri, 06 Jul 2018 19:26:36 +0100
REM compiler GCC version 9.2.1 20190827 (Red Hat 9.2.1-1)
REM options -cpp -mtune=generic -march=x86-64 -g -O0 -fpre-include=/usr/include/finclude/math-vector-fortran.h
REM seed -2007342995 1941139763 -1753735508 -677583187 1874669846 -1087234702 785053621 -1809311844 -619788727 128056 273541189 841252715 853987200 -1992206320 -31739548 -1904225383 1459341789 -1278212487 -616469479 2044092092 -643906490 1813542349 -690567284 1906009127 958591761 1470423881 375527704 -1543245470 -1384466656 661948534 1363563065 948037154 1813931956
REM
CELL 1.54180   50.00000   50.00000   50.00000   90.00000   90.00000   90.00000
LATT -1
SFAC C  
C      1  0.5766960000000  0.5191670000000  0.5179150000000 1.0
C      1  0.4379190000000  0.4460580000000  0.5041050000000 1.0
C      1  0.4487810000000  0.5236700000000  0.4241410000000 1.0
C      1  0.5272680000000  0.4408340000000  0.5277710000000 1.0
C      1  0.4502320000000  0.4995560000000  0.5354200000000 1.0
C      1  0.5439410000000  0.5389690000000  0.4696960000000 1.0
C      1  0.5533630000000  0.4676540000000  0.5600210000000 1.0
C      1  0.4715080000000  0.5899800000000  0.4453570000000 1.0
C      1  0.4864770000000  0.5066020000000  0.5082670000000 1.0
C      1  0.5355860000000  0.4285020000000  0.5039660000000 1.0
C      1  0.5164230000000  0.5496540000000  0.4656320000000 1.0
C      1  0.5647680000000  0.4945930000000  0.4783920000000 1.0
C      1  0.5446650000000  0.4783990000000  0.4255050000000 1.0
C      1  0.4770540000000  0.5330100000000  0.5166500000000 1.0
C      1  0.4643950000000  0.4878320000000  0.5123390000000 1.0
C      1  0.4577020000000  0.4258640000000  0.5439100000000 1.0
C      1  0.5531970000000  0.5135330000000  0.4599400000000 1.0
C      1  0.4601710000000  0.5476350000000  0.4248680000000 1.0
C      1  0.5576960000000  0.4475120000000  0.4608810000000 1.0
C      1  0.5468790000000  0.5054960000000  0.4328540000000 1.0
C      1  0.4835970000000  0.5578100000000  0.5049200000000 1.0
C      1  0.4928820000000  0.4479200000000  0.6025000000000 1.0
C      1  0.5754330000000  0.5446240000000  0.5090970000000 1.0
C      1  0.4792920000000  0.5649300000000  0.4357610000000 1.0
C      1  0.5435910000000  0.4840200000000  0.5796860000000 1.0
C      1  0.4616870000000  0.4745260000000  0.5756200000000 1.0
C      1  0.4661000000000  0.5796900000000  0.5061770000000 1.0
C      1  0.4615860000000  0.6039630000000  0.4657330000000 1.0
C      1  0.4558210000000  0.6023290000000  0.4931540000000 1.0
C      1  0.4425370000000  0.4819960000000  0.5561660000000 1.0
C      1  0.5548210000000  0.5541430000000  0.4927750000000 1.0
C      1  0.5204830000000  0.5456300000000  0.4180280000000 1.0
C      1  0.5325860000000  0.5688290000000  0.5036410000000 1.0
C      1  0.5077750000000  0.5613910000000  0.4909720000000 1.0
C      1  0.4253930000000  0.4608070000000  0.5481030000000 1.0
C      1  0.5394220000000  0.4655310000000  0.5353480000000 1.0
C      1  0.4537080000000  0.4785240000000  0.4487380000000 1.0
C      1  0.5765260000000  0.4535100000000  0.5636930000000 1.0
C      1  0.4791300000000  0.4524310000000  0.5787210000000 1.0
C      1  0.5054060000000  0.5546840000000  0.4399910000000 1.0
C      1  0.5378210000000  0.5254220000000  0.4152590000000 1.0
C      1  0.4366910000000  0.4404020000000  0.5318890000000 1.0
C      1  0.5471640000000  0.4534850000000  0.4354440000000 1.0
C      1  0.4436240000000  0.5461070000000  0.5519620000000 1.0
C      1  0.5464240000000  0.4300180000000  0.4795880000000 1.0
C      1  0.5732780000000  0.4688800000000  0.4709380000000 1.0
C      1  0.5059980000000  0.4313130000000  0.5432450000000 1.0
C      1  0.4881580000000  0.4486120000000  0.4637840000000 1.0
C      1  0.5613080000000  0.4986680000000  0.5064010000000 1.0
C      1  0.5129810000000  0.4982170000000  0.5097670000000 1.0
C      1  0.4468960000000  0.4987310000000  0.4330030000000 1.0
C      1  0.4815440000000  0.4344340000000  0.5564690000000 1.0
C      1  0.4217640000000  0.4329510000000  0.4863730000000 1.0
C      1  0.4563630000000  0.4663860000000  0.4957110000000 1.0
C      1  0.5377690000000  0.4879150000000  0.5179890000000 1.0
C      1  0.5061390000000  0.4430550000000  0.6244040000000 1.0
C      1  0.4557640000000  0.5278430000000  0.5359460000000 1.0
C      1  0.4412890000000  0.6213320000000  0.5061980000000 1.0
C      1  0.4665270000000  0.4644220000000  0.4691720000000 1.0
END
