TITL C-627110-360-1342 4.58761990125494e-08 125000 -566.704198974205 0 0 94 (C1) n - 1
REM
REM in /home/nfs/bkarasulu/CARBON/AIRSS/Generating-Clusters/LCBOP/Only-C1/SD-CG/FIRE-CG
REM
REM
REM
REM
REM
REM ./C.cell (11c1c37f851c82e70ff6c80c92926a4b)
REM AIRSS Version 0.9.1 bugfix July 2018 build 013d7b7c2542+ Fri, 06 Jul 2018 19:26:36 +0100
REM compiler GCC version 9.2.1 20190827 (Red Hat 9.2.1-1)
REM options -cpp -mtune=generic -march=x86-64 -g -O0 -fpre-include=/usr/include/finclude/math-vector-fortran.h
REM seed -1500104423 -528046533 1239126579 -1608796433 -1233317834 -279280528 -1675889821 -1942361012 -1709839371 -1670169237 1700769181 1905783032 -997924854 -2136901166 57617455 -606150463 1380174862 -2132403385 -385944069 1619070447 1790296443 1850991101 -327066718 -1982306779 -1154081654 -341336333 161938677 1505240833 -70007670 -945874367 263323765 1390546451 -1102117132
REM
CELL 1.54180   50.00000   50.00000   50.00000   90.00000   90.00000   90.00000
LATT -1
SFAC C  
C      1  0.6014050000000  0.4928250000000  0.4326160000000 1.0
C      1  0.5382750000000  0.5818930000000  0.5239120000000 1.0
C      1  0.5629130000000  0.5439340000000  0.5128470000000 1.0
C      1  0.4437270000000  0.4665070000000  0.5693230000000 1.0
C      1  0.5054080000000  0.4925180000000  0.4492400000000 1.0
C      1  0.4938620000000  0.5540650000000  0.4935330000000 1.0
C      1  0.5570540000000  0.4807310000000  0.4283780000000 1.0
C      1  0.4754790000000  0.5889060000000  0.5254890000000 1.0
C      1  0.4587730000000  0.4887700000000  0.5784330000000 1.0
C      1  0.5666290000000  0.4966840000000  0.5682380000000 1.0
C      1  0.5523070000000  0.4034000000000  0.5065680000000 1.0
C      1  0.4505440000000  0.4496640000000  0.4468650000000 1.0
C      1  0.5557490000000  0.5277160000000  0.3892080000000 1.0
C      1  0.4385600000000  0.5473030000000  0.4711090000000 1.0
C      1  0.4632240000000  0.5431730000000  0.4259390000000 1.0
C      1  0.5647970000000  0.4775210000000  0.4572910000000 1.0
C      1  0.5437930000000  0.5023140000000  0.4951590000000 1.0
C      1  0.5653680000000  0.5206560000000  0.4969920000000 1.0
C      1  0.4854570000000  0.5593690000000  0.5612900000000 1.0
C      1  0.5475350000000  0.4756240000000  0.5666430000000 1.0
C      1  0.4177900000000  0.5222990000000  0.5216210000000 1.0
C      1  0.5935320000000  0.5053210000000  0.3695370000000 1.0
C      1  0.4807160000000  0.4723420000000  0.4142690000000 1.0
C      1  0.4282850000000  0.4709690000000  0.5444520000000 1.0
C      1  0.4981850000000  0.5247610000000  0.4860100000000 1.0
C      1  0.4802590000000  0.5279460000000  0.5966780000000 1.0
C      1  0.5210550000000  0.4847050000000  0.5655300000000 1.0
C      1  0.4794180000000  0.5857900000000  0.5522540000000 1.0
C      1  0.5059790000000  0.5190490000000  0.4580730000000 1.0
C      1  0.5478840000000  0.4772470000000  0.4802580000000 1.0
C      1  0.4582980000000  0.4400570000000  0.5173490000000 1.0
C      1  0.4402700000000  0.5435180000000  0.5658800000000 1.0
C      1  0.5166300000000  0.4180300000000  0.5357390000000 1.0
C      1  0.4595020000000  0.5566060000000  0.4514840000000 1.0
C      1  0.4803070000000  0.4252940000000  0.5672640000000 1.0
C      1  0.4286640000000  0.4566000000000  0.4642960000000 1.0
C      1  0.5323860000000  0.4755510000000  0.4156930000000 1.0
C      1  0.4381520000000  0.4952390000000  0.4260620000000 1.0
C      1  0.4777840000000  0.4033510000000  0.4942330000000 1.0
C      1  0.4695990000000  0.4139900000000  0.5194320000000 1.0
C      1  0.4878090000000  0.4132900000000  0.5411190000000 1.0
C      1  0.5016310000000  0.4944120000000  0.5460420000000 1.0
C      1  0.4786030000000  0.4653430000000  0.4807220000000 1.0
C      1  0.4652630000000  0.5038470000000  0.6016490000000 1.0
C      1  0.5480980000000  0.5671390000000  0.5017840000000 1.0
C      1  0.5193030000000  0.5147360000000  0.5055790000000 1.0
C      1  0.4508310000000  0.5192470000000  0.4184680000000 1.0
C      1  0.4602010000000  0.4880830000000  0.4809660000000 1.0
C      1  0.5059790000000  0.4814600000000  0.4232640000000 1.0
C      1  0.5494480000000  0.4476630000000  0.5631110000000 1.0
C      1  0.5289650000000  0.4175480000000  0.5098060000000 1.0
C      1  0.4326700000000  0.4813650000000  0.4780910000000 1.0
C      1  0.4147850000000  0.5008200000000  0.4420880000000 1.0
C      1  0.5793180000000  0.4936380000000  0.4140840000000 1.0
C      1  0.5263350000000  0.5681190000000  0.5435620000000 1.0
C      1  0.4785020000000  0.4586950000000  0.5097280000000 1.0
C      1  0.4214930000000  0.5274010000000  0.4863780000000 1.0
C      1  0.4164490000000  0.5036290000000  0.4707510000000 1.0
C      1  0.4913230000000  0.4209480000000  0.4758620000000 1.0
C      1  0.5493350000000  0.5794340000000  0.4542120000000 1.0
C      1  0.5938040000000  0.4921480000000  0.5720790000000 1.0
C      1  0.4171750000000  0.4957020000000  0.5336950000000 1.0
C      1  0.4962520000000  0.4724960000000  0.5261960000000 1.0
C      1  0.5765210000000  0.5088730000000  0.3906430000000 1.0
C      1  0.4726030000000  0.5106540000000  0.4916770000000 1.0
C      1  0.5344200000000  0.5300950000000  0.5847580000000 1.0
C      1  0.6193210000000  0.4879100000000  0.5752410000000 1.0
C      1  0.5558630000000  0.5236520000000  0.5657820000000 1.0
C      1  0.4846330000000  0.5515130000000  0.4095580000000 1.0
C      1  0.5932270000000  0.4833480000000  0.4572540000000 1.0
C      1  0.5330620000000  0.5412540000000  0.3919800000000 1.0
C      1  0.5095440000000  0.5290210000000  0.5965390000000 1.0
C      1  0.4734190000000  0.5649350000000  0.5106220000000 1.0
C      1  0.5343740000000  0.5729030000000  0.4763150000000 1.0
C      1  0.5044430000000  0.4733200000000  0.4697520000000 1.0
C      1  0.5077170000000  0.5466690000000  0.5468700000000 1.0
C      1  0.5052550000000  0.5714960000000  0.4741090000000 1.0
C      1  0.4670350000000  0.5453070000000  0.5774280000000 1.0
C      1  0.5262040000000  0.4581630000000  0.4796480000000 1.0
C      1  0.4628060000000  0.5194980000000  0.5156830000000 1.0
C      1  0.4572030000000  0.4410200000000  0.5726280000000 1.0
C      1  0.5087600000000  0.5497900000000  0.3985180000000 1.0
C      1  0.5635040000000  0.5383940000000  0.5418000000000 1.0
C      1  0.4820170000000  0.5752210000000  0.4568210000000 1.0
C      1  0.5062880000000  0.4295330000000  0.5795020000000 1.0
C      1  0.5178870000000  0.4310650000000  0.4866260000000 1.0
C      1  0.4326190000000  0.5423640000000  0.5380390000000 1.0
C      1  0.4546070000000  0.4704640000000  0.4260840000000 1.0
C      1  0.4557890000000  0.5460010000000  0.5214690000000 1.0
C      1  0.5113840000000  0.5201090000000  0.5332450000000 1.0
C      1  0.5283440000000  0.4291600000000  0.5603280000000 1.0
C      1  0.4752660000000  0.4981400000000  0.5577640000000 1.0
C      1  0.4732240000000  0.4406160000000  0.4631650000000 1.0
C      1  0.4335310000000  0.4501110000000  0.5257320000000 1.0
END
