TITL C-627113-6568-1728 4.68601464629936e-05 125000 -864.248762936537 0 0 141 (C1) n - 1
REM
REM in /home/nfs/bkarasulu/CARBON/AIRSS/Generating-Clusters/LCBOP/Only-C1/SD-CG/FIRE-CG
REM
REM
REM
REM
REM
REM ./C.cell (11c1c37f851c82e70ff6c80c92926a4b)
REM AIRSS Version 0.9.1 bugfix July 2018 build 013d7b7c2542+ Fri, 06 Jul 2018 19:26:36 +0100
REM compiler GCC version 9.2.1 20190827 (Red Hat 9.2.1-1)
REM options -cpp -mtune=generic -march=x86-64 -g -O0 -fpre-include=/usr/include/finclude/math-vector-fortran.h
REM seed 296936574 1598259318 1260082778 1379404876 1252132331 1461584312 86483183 -1541080401 147042228 719597143 -2071938352 2006836920 -789909394 658171866 705988219 -2014805502 329873688 980518138 -2000548030 359197808 -1161484938 1140708226 179494933 1294329427 -789428227 -100769741 368947441 78414322 -1857773443 -614233125 -1804095515 -1036443773 -955454189
REM
CELL 1.54180   50.00000   50.00000   50.00000   90.00000   90.00000   90.00000
LATT -1
SFAC C  
C      1  0.5883220000000  0.4754670000000  0.4360430000000 1.0
C      1  0.4484630000000  0.4910020000000  0.3995750000000 1.0
C      1  0.4839870000000  0.4248120000000  0.4825170000000 1.0
C      1  0.4769780000000  0.5147160000000  0.5167520000000 1.0
C      1  0.5784710000000  0.6063050000000  0.5605080000000 1.0
C      1  0.5930060000000  0.5410920000000  0.4082560000000 1.0
C      1  0.5309680000000  0.5744470000000  0.4335290000000 1.0
C      1  0.4469900000000  0.4395390000000  0.4434770000000 1.0
C      1  0.5505870000000  0.4829270000000  0.4021940000000 1.0
C      1  0.5253880000000  0.4744870000000  0.3970450000000 1.0
C      1  0.3984200000000  0.4639810000000  0.5003830000000 1.0
C      1  0.5130740000000  0.4517460000000  0.4089670000000 1.0
C      1  0.5895500000000  0.5924340000000  0.5398260000000 1.0
C      1  0.4443990000000  0.5304000000000  0.5794170000000 1.0
C      1  0.4643080000000  0.5174070000000  0.5949640000000 1.0
C      1  0.4959930000000  0.4689430000000  0.5222690000000 1.0
C      1  0.4734030000000  0.4987670000000  0.4553800000000 1.0
C      1  0.4272220000000  0.4839800000000  0.5676780000000 1.0
C      1  0.3820140000000  0.5205250000000  0.3871860000000 1.0
C      1  0.5427000000000  0.5055800000000  0.5287350000000 1.0
C      1  0.4667470000000  0.4896660000000  0.5987140000000 1.0
C      1  0.5185660000000  0.5009720000000  0.4595010000000 1.0
C      1  0.5017060000000  0.5780120000000  0.3972540000000 1.0
C      1  0.4670090000000  0.4716960000000  0.4019430000000 1.0
C      1  0.5025430000000  0.5631440000000  0.4856870000000 1.0
C      1  0.5333670000000  0.5084030000000  0.4819870000000 1.0
C      1  0.3753280000000  0.4792030000000  0.5026100000000 1.0
C      1  0.5806850000000  0.4256580000000  0.4339400000000 1.0
C      1  0.5937340000000  0.4469290000000  0.4773210000000 1.0
C      1  0.5587180000000  0.6092150000000  0.5787730000000 1.0
C      1  0.4117460000000  0.4522570000000  0.5227780000000 1.0
C      1  0.3617220000000  0.5802770000000  0.4335400000000 1.0
C      1  0.5213380000000  0.4559770000000  0.5326960000000 1.0
C      1  0.4844010000000  0.4522400000000  0.4130480000000 1.0
C      1  0.5837710000000  0.5664600000000  0.5295860000000 1.0
C      1  0.5549030000000  0.5507750000000  0.4894070000000 1.0
C      1  0.4541270000000  0.4218560000000  0.5690230000000 1.0
C      1  0.5350130000000  0.6046980000000  0.5909160000000 1.0
C      1  0.4930740000000  0.4000430000000  0.5251200000000 1.0
C      1  0.5190740000000  0.5474410000000  0.4283430000000 1.0
C      1  0.5877050000000  0.5020740000000  0.5420250000000 1.0
C      1  0.5386560000000  0.4209460000000  0.5635450000000 1.0
C      1  0.5238060000000  0.3987580000000  0.5611800000000 1.0
C      1  0.5014500000000  0.5781350000000  0.5354760000000 1.0
C      1  0.5311690000000  0.5654030000000  0.4804510000000 1.0
C      1  0.4583790000000  0.4132330000000  0.4800660000000 1.0
C      1  0.4338150000000  0.5153040000000  0.4025860000000 1.0
C      1  0.4258890000000  0.4294190000000  0.4284560000000 1.0
C      1  0.5370280000000  0.5840810000000  0.4594020000000 1.0
C      1  0.5277100000000  0.4508810000000  0.4697410000000 1.0
C      1  0.3546270000000  0.4947770000000  0.5054450000000 1.0
C      1  0.5290760000000  0.5837710000000  0.5378850000000 1.0
C      1  0.4563900000000  0.4686580000000  0.4863510000000 1.0
C      1  0.4940820000000  0.5653240000000  0.5121820000000 1.0
C      1  0.5276300000000  0.4099850000000  0.4898400000000 1.0
C      1  0.5692850000000  0.5513660000000  0.5491740000000 1.0
C      1  0.4966590000000  0.5518400000000  0.4078610000000 1.0
C      1  0.4206740000000  0.5217830000000  0.5365620000000 1.0
C      1  0.3836160000000  0.5995290000000  0.5469780000000 1.0
C      1  0.4472670000000  0.5375620000000  0.4145470000000 1.0
C      1  0.5442910000000  0.6149720000000  0.4969980000000 1.0
C      1  0.4389350000000  0.4545330000000  0.4676780000000 1.0
C      1  0.4814790000000  0.5648300000000  0.4665870000000 1.0
C      1  0.4946120000000  0.4499250000000  0.6057050000000 1.0
C      1  0.4303770000000  0.4308920000000  0.5132360000000 1.0
C      1  0.5374400000000  0.4366860000000  0.4915510000000 1.0
C      1  0.5723490000000  0.5240030000000  0.5563940000000 1.0
C      1  0.5442840000000  0.5648100000000  0.5525440000000 1.0
C      1  0.5603950000000  0.4402710000000  0.4211530000000 1.0
C      1  0.4113550000000  0.4587660000000  0.4751750000000 1.0
C      1  0.5664150000000  0.4673410000000  0.5117170000000 1.0
C      1  0.5678330000000  0.4938360000000  0.5212950000000 1.0
C      1  0.4123280000000  0.5661870000000  0.4349000000000 1.0
C      1  0.4751360000000  0.5345870000000  0.4153060000000 1.0
C      1  0.5341970000000  0.4481530000000  0.5580040000000 1.0
C      1  0.4966330000000  0.4813510000000  0.4603670000000 1.0
C      1  0.4552530000000  0.4399690000000  0.5255370000000 1.0
C      1  0.5816860000000  0.5318370000000  0.4298340000000 1.0
C      1  0.4578590000000  0.5643540000000  0.4536560000000 1.0
C      1  0.5781820000000  0.3761110000000  0.4766390000000 1.0
C      1  0.4283010000000  0.5127700000000  0.5621210000000 1.0
C      1  0.4152130000000  0.3917570000000  0.4882550000000 1.0
C      1  0.4927070000000  0.4122370000000  0.4385300000000 1.0
C      1  0.5122770000000  0.5224070000000  0.4411980000000 1.0
C      1  0.5215490000000  0.5908360000000  0.4115780000000 1.0
C      1  0.4997570000000  0.4540760000000  0.4683960000000 1.0
C      1  0.4922950000000  0.4775750000000  0.6009070000000 1.0
C      1  0.4610180000000  0.5746620000000  0.6255610000000 1.0
C      1  0.4220360000000  0.5733730000000  0.5715110000000 1.0
C      1  0.5551380000000  0.5254090000000  0.4760010000000 1.0
C      1  0.5324540000000  0.4328150000000  0.4215370000000 1.0
C      1  0.5451980000000  0.5117450000000  0.5569930000000 1.0
C      1  0.5806430000000  0.5562650000000  0.5028730000000 1.0
C      1  0.4335720000000  0.4111090000000  0.4935410000000 1.0
C      1  0.4634810000000  0.5728750000000  0.5978020000000 1.0
C      1  0.6027170000000  0.5411110000000  0.4928560000000 1.0
C      1  0.5973970000000  0.4759800000000  0.5512450000000 1.0
C      1  0.4588970000000  0.5752750000000  0.6519600000000 1.0
C      1  0.4543600000000  0.5146330000000  0.4999160000000 1.0
C      1  0.5441990000000  0.6090590000000  0.4705060000000 1.0
C      1  0.5237950000000  0.5059990000000  0.5087050000000 1.0
C      1  0.4845650000000  0.5841940000000  0.5564390000000 1.0
C      1  0.5011950000000  0.4087340000000  0.4992500000000 1.0
C      1  0.3869410000000  0.5737560000000  0.4345690000000 1.0
C      1  0.5791880000000  0.4650180000000  0.5705940000000 1.0
C      1  0.5219350000000  0.4121920000000  0.4397630000000 1.0
C      1  0.6132560000000  0.5179760000000  0.4842460000000 1.0
C      1  0.4383070000000  0.5563090000000  0.4343630000000 1.0
C      1  0.5425700000000  0.4526500000000  0.5132220000000 1.0
C      1  0.4464570000000  0.4427950000000  0.5526060000000 1.0
C      1  0.5910460000000  0.4535070000000  0.5056540000000 1.0
C      1  0.6070240000000  0.4584530000000  0.5296370000000 1.0
C      1  0.4431560000000  0.5588090000000  0.5825710000000 1.0
C      1  0.5097930000000  0.5958180000000  0.5948560000000 1.0
C      1  0.4568340000000  0.5757720000000  0.6779430000000 1.0
C      1  0.4737030000000  0.4335510000000  0.4323950000000 1.0
C      1  0.4427840000000  0.4766650000000  0.5909260000000 1.0
C      1  0.4302920000000  0.5228950000000  0.5115530000000 1.0
C      1  0.4026610000000  0.5867860000000  0.5594080000000 1.0
C      1  0.5832550000000  0.4231430000000  0.4624220000000 1.0
C      1  0.5669320000000  0.3995100000000  0.4678870000000 1.0
C      1  0.4235240000000  0.4617340000000  0.5495840000000 1.0
C      1  0.5695580000000  0.5239120000000  0.4520750000000 1.0
C      1  0.6000740000000  0.4710470000000  0.4614610000000 1.0
C      1  0.4921300000000  0.4250120000000  0.5961230000000 1.0
C      1  0.4705870000000  0.4587570000000  0.5109840000000 1.0
C      1  0.4834360000000  0.5175440000000  0.4364630000000 1.0
C      1  0.3569660000000  0.5247130000000  0.3812960000000 1.0
C      1  0.4986880000000  0.4972540000000  0.5171640000000 1.0
C      1  0.4966070000000  0.4001610000000  0.5534370000000 1.0
C      1  0.4855780000000  0.5850830000000  0.5844300000000 1.0
C      1  0.4074150000000  0.5172090000000  0.3939470000000 1.0
C      1  0.5506380000000  0.4670240000000  0.5717360000000 1.0
C      1  0.5378460000000  0.4923440000000  0.5762090000000 1.0
C      1  0.5680560000000  0.4678420000000  0.4181530000000 1.0
C      1  0.5391800000000  0.6044290000000  0.5212460000000 1.0
C      1  0.4573770000000  0.4964830000000  0.4785390000000 1.0
C      1  0.4800070000000  0.4122280000000  0.5738670000000 1.0
C      1  0.5152210000000  0.4919990000000  0.5927520000000 1.0
C      1  0.6126400000000  0.4932530000000  0.4738890000000 1.0
C      1  0.5378110000000  0.4017520000000  0.4634310000000 1.0
END
