TITL C-627108-131-2010 0.00155086706668543 125000 -781.685469351359 0 0 127 (C1) n - 1
REM
REM in /home/nfs/bkarasulu/CARBON/AIRSS/Generating-Clusters/LCBOP/Only-C1/SD-CG/FIRE-CG
REM
REM
REM
REM
REM
REM ./C.cell (11c1c37f851c82e70ff6c80c92926a4b)
REM AIRSS Version 0.9.1 bugfix July 2018 build 013d7b7c2542+ Fri, 06 Jul 2018 19:26:36 +0100
REM compiler GCC version 9.2.1 20190827 (Red Hat 9.2.1-1)
REM options -cpp -mtune=generic -march=x86-64 -g -O0 -fpre-include=/usr/include/finclude/math-vector-fortran.h
REM seed -1554885464 -1274395614 1700017528 -408131709 -686064393 -1489058621 1077617681 1823302634 1371838504 -1352733376 239023927 -2064846749 -1522497426 1701151260 -43034319 -1501096360 -7972767 -1740393099 575490510 598249005 64141622 23237746 171266138 1802583055 507815331 -681409994 1888971208 1359678263 -478859922 -768089296 614448489 1218879630 223561994
REM
CELL 1.54180   50.00000   50.00000   50.00000   90.00000   90.00000   90.00000
LATT -1
SFAC C  
C      1  0.4657520000000  0.4749270000000  0.3691190000000 1.0
C      1  0.5308260000000  0.4817080000000  0.4224770000000 1.0
C      1  0.5428520000000  0.5675980000000  0.4040940000000 1.0
C      1  0.5202990000000  0.3508530000000  0.4794500000000 1.0
C      1  0.4623570000000  0.4572700000000  0.5727800000000 1.0
C      1  0.4812900000000  0.5547510000000  0.4559180000000 1.0
C      1  0.5691850000000  0.4154210000000  0.5208310000000 1.0
C      1  0.5147000000000  0.5144750000000  0.4624290000000 1.0
C      1  0.4125960000000  0.5716160000000  0.4750960000000 1.0
C      1  0.4946890000000  0.4204850000000  0.5311130000000 1.0
C      1  0.4848520000000  0.5603910000000  0.5693820000000 1.0
C      1  0.4965690000000  0.5311540000000  0.4443990000000 1.0
C      1  0.5716180000000  0.4831950000000  0.5145400000000 1.0
C      1  0.5366590000000  0.5477530000000  0.5509840000000 1.0
C      1  0.5350020000000  0.5026450000000  0.4033740000000 1.0
C      1  0.4856770000000  0.5093910000000  0.5431790000000 1.0
C      1  0.4596560000000  0.5538870000000  0.4757720000000 1.0
C      1  0.6106470000000  0.4976800000000  0.5643520000000 1.0
C      1  0.4953430000000  0.5001320000000  0.4812010000000 1.0
C      1  0.5152340000000  0.5657200000000  0.4107120000000 1.0
C      1  0.4621100000000  0.4876320000000  0.6217350000000 1.0
C      1  0.5113610000000  0.5178230000000  0.4007950000000 1.0
C      1  0.4992950000000  0.3066170000000  0.4997050000000 1.0
C      1  0.4857910000000  0.4830680000000  0.6076050000000 1.0
C      1  0.5082030000000  0.4724860000000  0.5664830000000 1.0
C      1  0.5211150000000  0.3875330000000  0.4469850000000 1.0
C      1  0.3995210000000  0.4521570000000  0.4566740000000 1.0
C      1  0.5745110000000  0.4301700000000  0.4735670000000 1.0
C      1  0.4441390000000  0.4631240000000  0.5543680000000 1.0
C      1  0.4752620000000  0.5135520000000  0.4305660000000 1.0
C      1  0.5958180000000  0.5861650000000  0.5408580000000 1.0
C      1  0.4832070000000  0.4325240000000  0.5103990000000 1.0
C      1  0.4628820000000  0.5499930000000  0.5544460000000 1.0
C      1  0.4296310000000  0.5063410000000  0.5274780000000 1.0
C      1  0.5009080000000  0.5810370000000  0.5578900000000 1.0
C      1  0.5455630000000  0.5933670000000  0.5388920000000 1.0
C      1  0.5729280000000  0.5487570000000  0.5881700000000 1.0
C      1  0.5313440000000  0.4895110000000  0.4501000000000 1.0
C      1  0.5081360000000  0.4938260000000  0.5480360000000 1.0
C      1  0.5358200000000  0.5323700000000  0.4751550000000 1.0
C      1  0.5268920000000  0.5745580000000  0.5483420000000 1.0
C      1  0.5571520000000  0.5418650000000  0.4593760000000 1.0
C      1  0.4780610000000  0.4542710000000  0.4931870000000 1.0
C      1  0.4374000000000  0.4975890000000  0.6221040000000 1.0
C      1  0.4688640000000  0.4527280000000  0.4316590000000 1.0
C      1  0.5145510000000  0.4588980000000  0.4161320000000 1.0
C      1  0.4689390000000  0.5300900000000  0.5347500000000 1.0
C      1  0.4691130000000  0.5351890000000  0.3874260000000 1.0
C      1  0.4494210000000  0.5229870000000  0.5151580000000 1.0
C      1  0.3827830000000  0.5120560000000  0.5281800000000 1.0
C      1  0.5307070000000  0.5017530000000  0.5333370000000 1.0
C      1  0.5653230000000  0.4556330000000  0.4676020000000 1.0
C      1  0.5431610000000  0.4836540000000  0.5158370000000 1.0
C      1  0.5718820000000  0.5970210000000  0.5356190000000 1.0
C      1  0.5733340000000  0.5489110000000  0.4374500000000 1.0
C      1  0.4864080000000  0.4633340000000  0.4123660000000 1.0
C      1  0.4718190000000  0.6558160000000  0.5520400000000 1.0
C      1  0.6062010000000  0.5641290000000  0.5549070000000 1.0
C      1  0.4027320000000  0.4642330000000  0.4824940000000 1.0
C      1  0.4772960000000  0.4821960000000  0.3927660000000 1.0
C      1  0.4712610000000  0.5638040000000  0.3893300000000 1.0
C      1  0.5826940000000  0.4604210000000  0.5040490000000 1.0
C      1  0.5097900000000  0.3287310000000  0.4895360000000 1.0
C      1  0.4233360000000  0.4340400000000  0.5146630000000 1.0
C      1  0.5366500000000  0.4340870000000  0.5587600000000 1.0
C      1  0.5422500000000  0.4711390000000  0.4693920000000 1.0
C      1  0.4515340000000  0.5890150000000  0.4465150000000 1.0
C      1  0.5322410000000  0.4584910000000  0.5731730000000 1.0
C      1  0.4910270000000  0.6070650000000  0.5561820000000 1.0
C      1  0.5348190000000  0.5296900000000  0.5293130000000 1.0
C      1  0.4889740000000  0.2848670000000  0.5097080000000 1.0
C      1  0.3951230000000  0.4919590000000  0.4844050000000 1.0
C      1  0.5132210000000  0.4206760000000  0.5502450000000 1.0
C      1  0.4356580000000  0.5516380000000  0.5618170000000 1.0
C      1  0.5228560000000  0.4323470000000  0.4195360000000 1.0
C      1  0.5349290000000  0.5381230000000  0.5025750000000 1.0
C      1  0.4172660000000  0.5104790000000  0.6103450000000 1.0
C      1  0.5117880000000  0.5391460000000  0.4201770000000 1.0
C      1  0.5688660000000  0.4043010000000  0.4651230000000 1.0
C      1  0.5462560000000  0.4871690000000  0.6397320000000 1.0
C      1  0.5753290000000  0.4723420000000  0.5917180000000 1.0
C      1  0.4758260000000  0.5770040000000  0.4365070000000 1.0
C      1  0.4387160000000  0.5127290000000  0.4674140000000 1.0
C      1  0.4813350000000  0.6316340000000  0.5541190000000 1.0
C      1  0.6146690000000  0.5407250000000  0.5417870000000 1.0
C      1  0.5990360000000  0.5575270000000  0.4406230000000 1.0
C      1  0.4118710000000  0.5066860000000  0.4671720000000 1.0
C      1  0.4219350000000  0.4456350000000  0.4426310000000 1.0
C      1  0.5601280000000  0.4254240000000  0.5456900000000 1.0
C      1  0.4877880000000  0.5751960000000  0.4104560000000 1.0
C      1  0.4450050000000  0.5966760000000  0.3549200000000 1.0
C      1  0.4532560000000  0.5058190000000  0.4448690000000 1.0
C      1  0.3760710000000  0.5362370000000  0.4878170000000 1.0
C      1  0.4267360000000  0.4528190000000  0.4948120000000 1.0
C      1  0.4072040000000  0.5183340000000  0.5405860000000 1.0
C      1  0.5091510000000  0.4991730000000  0.6113200000000 1.0
C      1  0.5314700000000  0.3743470000000  0.4696360000000 1.0
C      1  0.4357960000000  0.4805490000000  0.5361850000000 1.0
C      1  0.4075350000000  0.5237200000000  0.5893330000000 1.0
C      1  0.4942010000000  0.5465650000000  0.5921770000000 1.0
C      1  0.3794290000000  0.5105540000000  0.5001050000000 1.0
C      1  0.4521750000000  0.4539070000000  0.4797530000000 1.0
C      1  0.4396820000000  0.5743840000000  0.4685010000000 1.0
C      1  0.5884440000000  0.5038820000000  0.5228280000000 1.0
C      1  0.4990660000000  0.4739550000000  0.4915910000000 1.0
C      1  0.5056640000000  0.5266140000000  0.6058530000000 1.0
C      1  0.5474240000000  0.4710130000000  0.5939140000000 1.0
C      1  0.6065750000000  0.5138360000000  0.5417170000000 1.0
C      1  0.3901550000000  0.5579810000000  0.4805170000000 1.0
C      1  0.4137380000000  0.5335720000000  0.5638080000000 1.0
C      1  0.5510450000000  0.5418650000000  0.5743880000000 1.0
C      1  0.4489380000000  0.4498120000000  0.4510600000000 1.0
C      1  0.5614660000000  0.5465480000000  0.4115290000000 1.0
C      1  0.5586530000000  0.3913960000000  0.5093350000000 1.0
C      1  0.5209930000000  0.4077550000000  0.4296150000000 1.0
C      1  0.5539880000000  0.3865650000000  0.4816810000000 1.0
C      1  0.4815960000000  0.5105520000000  0.4002940000000 1.0
C      1  0.5814010000000  0.4330500000000  0.5020140000000 1.0
C      1  0.4500930000000  0.5297290000000  0.4873940000000 1.0
C      1  0.5280630000000  0.4712130000000  0.4946340000000 1.0
C      1  0.5343530000000  0.4859580000000  0.6149910000000 1.0
C      1  0.5980150000000  0.4822370000000  0.5820110000000 1.0
C      1  0.5579970000000  0.5196330000000  0.4016520000000 1.0
C      1  0.4578660000000  0.5804020000000  0.3714010000000 1.0
C      1  0.5963070000000  0.5600730000000  0.5811560000000 1.0
C      1  0.4855640000000  0.4684260000000  0.5832960000000 1.0
C      1  0.4323270000000  0.6127450000000  0.3387740000000 1.0
END
