TITL C-627109-622-74 -1.28470115005908e-07 125000 -1143.7890095733 0 0 186 (C1) n - 1
REM
REM in /home/nfs/bkarasulu/CARBON/AIRSS/Generating-Clusters/LCBOP/Only-C1/SD-CG/FIRE-CG
REM
REM
REM
REM
REM
REM ./C.cell (11c1c37f851c82e70ff6c80c92926a4b)
REM AIRSS Version 0.9.1 bugfix July 2018 build 013d7b7c2542+ Fri, 06 Jul 2018 19:26:36 +0100
REM compiler GCC version 9.2.1 20190827 (Red Hat 9.2.1-1)
REM options -cpp -mtune=generic -march=x86-64 -g -O0 -fpre-include=/usr/include/finclude/math-vector-fortran.h
REM seed 772717805 1847972764 -173443540 668690023 -921073774 -724059090 -380073909 -654933594 1836530636 708996567 1799173244 -1470754710 -1155571189 -1426686341 869003963 750627499 -1411133007 -328402652 1293179783 -516743751 945954260 -1988382323 -1400247110 863093246 -1256535783 -1877954745 2081231332 -1838852316 -1951015742 593664083 -1097216774 666003035 -2007224900
REM
CELL 1.54180   50.00000   50.00000   50.00000   90.00000   90.00000   90.00000
LATT -1
SFAC C  
C      1  0.5652080000000  0.3996050000000  0.4928890000000 1.0
C      1  0.4001480000000  0.5014040000000  0.5906070000000 1.0
C      1  0.4224440000000  0.4926530000000  0.6101160000000 1.0
C      1  0.4935860000000  0.4202270000000  0.4062860000000 1.0
C      1  0.5329040000000  0.4877090000000  0.3870530000000 1.0
C      1  0.5098890000000  0.4410720000000  0.4736000000000 1.0
C      1  0.4431090000000  0.5234260000000  0.5259270000000 1.0
C      1  0.5251570000000  0.5286020000000  0.4488000000000 1.0
C      1  0.3988510000000  0.4484940000000  0.4335690000000 1.0
C      1  0.4487340000000  0.5898950000000  0.4878500000000 1.0
C      1  0.5465990000000  0.4688610000000  0.4040420000000 1.0
C      1  0.4924980000000  0.6156470000000  0.5350300000000 1.0
C      1  0.4107420000000  0.4467290000000  0.5212620000000 1.0
C      1  0.4219220000000  0.4607270000000  0.3942240000000 1.0
C      1  0.4631480000000  0.5099970000000  0.4257310000000 1.0
C      1  0.5558880000000  0.4146470000000  0.4450030000000 1.0
C      1  0.5169400000000  0.6179140000000  0.4670770000000 1.0
C      1  0.5221550000000  0.5124660000000  0.3769780000000 1.0
C      1  0.4682600000000  0.5442910000000  0.6115230000000 1.0
C      1  0.4716590000000  0.4615210000000  0.3985170000000 1.0
C      1  0.4577380000000  0.4648470000000  0.5094680000000 1.0
C      1  0.4207560000000  0.4716880000000  0.5649680000000 1.0
C      1  0.4696150000000  0.5642180000000  0.4451390000000 1.0
C      1  0.5660720000000  0.4758110000000  0.4251060000000 1.0
C      1  0.5429680000000  0.5722160000000  0.5137580000000 1.0
C      1  0.4779030000000  0.4729990000000  0.4545270000000 1.0
C      1  0.4218350000000  0.4263770000000  0.5391550000000 1.0
C      1  0.5021030000000  0.5688150000000  0.5680970000000 1.0
C      1  0.5469310000000  0.5423480000000  0.6135840000000 1.0
C      1  0.6168460000000  0.5710250000000  0.5434900000000 1.0
C      1  0.5144710000000  0.5298100000000  0.5334200000000 1.0
C      1  0.4939620000000  0.4587020000000  0.3806330000000 1.0
C      1  0.4176770000000  0.4881610000000  0.4885760000000 1.0
C      1  0.5109500000000  0.4072120000000  0.4250880000000 1.0
C      1  0.5069390000000  0.4948060000000  0.5641000000000 1.0
C      1  0.4427370000000  0.5392850000000  0.6242220000000 1.0
C      1  0.4648320000000  0.4097120000000  0.5488420000000 1.0
C      1  0.4439410000000  0.4110650000000  0.5290690000000 1.0
C      1  0.5347390000000  0.3874630000000  0.5346550000000 1.0
C      1  0.4016970000000  0.5056820000000  0.5048180000000 1.0
C      1  0.4330580000000  0.4907800000000  0.4624090000000 1.0
C      1  0.5840870000000  0.4548300000000  0.4323420000000 1.0
C      1  0.5519790000000  0.4665530000000  0.4903110000000 1.0
C      1  0.5468300000000  0.5711900000000  0.4183600000000 1.0
C      1  0.4667390000000  0.4675620000000  0.5583890000000 1.0
C      1  0.4651760000000  0.5426950000000  0.5834010000000 1.0
C      1  0.4346690000000  0.5120840000000  0.6272450000000 1.0
C      1  0.3853730000000  0.4577260000000  0.5286550000000 1.0
C      1  0.3790880000000  0.4961660000000  0.4399170000000 1.0
C      1  0.5057770000000  0.4047450000000  0.5749330000000 1.0
C      1  0.5989000000000  0.4963570000000  0.4717300000000 1.0
C      1  0.5921510000000  0.5807250000000  0.5355000000000 1.0
C      1  0.4991340000000  0.4502100000000  0.5264740000000 1.0
C      1  0.5884010000000  0.4164630000000  0.4930050000000 1.0
C      1  0.5538120000000  0.5185210000000  0.5683510000000 1.0
C      1  0.4681320000000  0.4663410000000  0.6050520000000 1.0
C      1  0.3893970000000  0.5210360000000  0.4411790000000 1.0
C      1  0.5369230000000  0.4198790000000  0.4242680000000 1.0
C      1  0.4520050000000  0.5490220000000  0.4617110000000 1.0
C      1  0.4797160000000  0.5485380000000  0.4011400000000 1.0
C      1  0.6051390000000  0.4376930000000  0.4940700000000 1.0
C      1  0.5415020000000  0.4684230000000  0.5167880000000 1.0
C      1  0.5433860000000  0.4566960000000  0.5658650000000 1.0
C      1  0.6050640000000  0.4668720000000  0.5328420000000 1.0
C      1  0.4434030000000  0.4060630000000  0.5004160000000 1.0
C      1  0.4449770000000  0.4269910000000  0.4246860000000 1.0
C      1  0.5266620000000  0.5733580000000  0.5819540000000 1.0
C      1  0.3950950000000  0.4824160000000  0.5691660000000 1.0
C      1  0.4814230000000  0.4206780000000  0.5705990000000 1.0
C      1  0.4232140000000  0.5804780000000  0.4755930000000 1.0
C      1  0.5744690000000  0.5909030000000  0.5571830000000 1.0
C      1  0.4500610000000  0.4093360000000  0.4482360000000 1.0
C      1  0.5866620000000  0.5796690000000  0.5064690000000 1.0
C      1  0.4926500000000  0.5670660000000  0.4638140000000 1.0
C      1  0.5325830000000  0.4565760000000  0.4712520000000 1.0
C      1  0.4360460000000  0.4461280000000  0.4742690000000 1.0
C      1  0.5362760000000  0.4416890000000  0.4039580000000 1.0
C      1  0.5113210000000  0.4377940000000  0.3894600000000 1.0
C      1  0.3997710000000  0.5941770000000  0.4791920000000 1.0
C      1  0.5626440000000  0.4437850000000  0.5831490000000 1.0
C      1  0.5474030000000  0.4002360000000  0.4692930000000 1.0
C      1  0.4212470000000  0.4429810000000  0.4170740000000 1.0
C      1  0.5459580000000  0.5607290000000  0.5398130000000 1.0
C      1  0.4802740000000  0.6258510000000  0.5556650000000 1.0
C      1  0.4243660000000  0.5557550000000  0.4596960000000 1.0
C      1  0.5995400000000  0.5027990000000  0.5688050000000 1.0
C      1  0.4993490000000  0.5211910000000  0.5555050000000 1.0
C      1  0.4218350000000  0.4850990000000  0.3824190000000 1.0
C      1  0.4649560000000  0.6125270000000  0.4798750000000 1.0
C      1  0.3830880000000  0.4696200000000  0.4391430000000 1.0
C      1  0.5023090000000  0.4876950000000  0.4534650000000 1.0
C      1  0.5142900000000  0.4681480000000  0.6028290000000 1.0
C      1  0.4906590000000  0.5607680000000  0.4933510000000 1.0
C      1  0.4380800000000  0.4671340000000  0.6058510000000 1.0
C      1  0.4773920000000  0.4442430000000  0.5088270000000 1.0
C      1  0.5046680000000  0.5122940000000  0.6185400000000 1.0
C      1  0.5795520000000  0.4300150000000  0.4421840000000 1.0
C      1  0.4366910000000  0.5571280000000  0.4001350000000 1.0
C      1  0.5344620000000  0.5957890000000  0.4239080000000 1.0
C      1  0.5541550000000  0.5237020000000  0.4490850000000 1.0
C      1  0.5039080000000  0.6084850000000  0.5107730000000 1.0
C      1  0.4727650000000  0.3918690000000  0.4486640000000 1.0
C      1  0.6184350000000  0.5072990000000  0.5176780000000 1.0
C      1  0.4686020000000  0.4345220000000  0.4102850000000 1.0
C      1  0.4696500000000  0.4903490000000  0.5068650000000 1.0
C      1  0.4014370000000  0.5499850000000  0.5977850000000 1.0
C      1  0.5013140000000  0.3932190000000  0.4476410000000 1.0
C      1  0.4581310000000  0.5294360000000  0.4802920000000 1.0
C      1  0.5077780000000  0.5134400000000  0.4647100000000 1.0
C      1  0.5543680000000  0.4593990000000  0.5398640000000 1.0
C      1  0.3948680000000  0.5283860000000  0.5807180000000 1.0
C      1  0.4288790000000  0.4605450000000  0.5006520000000 1.0
C      1  0.5815360000000  0.4536080000000  0.5388920000000 1.0
C      1  0.5309970000000  0.5499320000000  0.4067510000000 1.0
C      1  0.4370010000000  0.5117710000000  0.4423900000000 1.0
C      1  0.4725830000000  0.5351760000000  0.3765280000000 1.0
C      1  0.4929290000000  0.6168130000000  0.4843240000000 1.0
C      1  0.4560290000000  0.5145320000000  0.5033640000000 1.0
C      1  0.6010540000000  0.5179320000000  0.4518280000000 1.0
C      1  0.5302840000000  0.5968510000000  0.5069260000000 1.0
C      1  0.4646720000000  0.4859080000000  0.4099760000000 1.0
C      1  0.5121250000000  0.4275060000000  0.5345160000000 1.0
C      1  0.5817420000000  0.5269880000000  0.5757910000000 1.0
C      1  0.5395980000000  0.5344080000000  0.3843030000000 1.0
C      1  0.5927840000000  0.4810980000000  0.5878490000000 1.0
C      1  0.5478250000000  0.5026510000000  0.5927410000000 1.0
C      1  0.4408780000000  0.4182830000000  0.4740890000000 1.0
C      1  0.5575630000000  0.3861220000000  0.5174980000000 1.0
C      1  0.4957570000000  0.5406080000000  0.6183510000000 1.0
C      1  0.4979180000000  0.4924350000000  0.5061460000000 1.0
C      1  0.5812180000000  0.6136170000000  0.5710390000000 1.0
C      1  0.4426180000000  0.5117740000000  0.5510310000000 1.0
C      1  0.5062530000000  0.5151320000000  0.4920260000000 1.0
C      1  0.5797650000000  0.5330170000000  0.4342540000000 1.0
C      1  0.4438750000000  0.4840010000000  0.5551980000000 1.0
C      1  0.5140610000000  0.5356110000000  0.4247740000000 1.0
C      1  0.4150260000000  0.5322590000000  0.4449450000000 1.0
C      1  0.5703450000000  0.4892270000000  0.6035920000000 1.0
C      1  0.6131160000000  0.4625820000000  0.5050780000000 1.0
C      1  0.3770360000000  0.4727130000000  0.5498850000000 1.0
C      1  0.5286790000000  0.4770390000000  0.4522570000000 1.0
C      1  0.5692410000000  0.4892100000000  0.4780420000000 1.0
C      1  0.3929860000000  0.5200530000000  0.5264210000000 1.0
C      1  0.5594360000000  0.5156080000000  0.5225260000000 1.0
C      1  0.5618770000000  0.5379980000000  0.4815430000000 1.0
C      1  0.5149610000000  0.4029080000000  0.5211880000000 1.0
C      1  0.5048740000000  0.5390630000000  0.5071840000000 1.0
C      1  0.5674850000000  0.5292120000000  0.3838720000000 1.0
C      1  0.4426640000000  0.5351570000000  0.3795980000000 1.0
C      1  0.5885970000000  0.4527360000000  0.5862110000000 1.0
C      1  0.5889230000000  0.6035020000000  0.4911420000000 1.0
C      1  0.5433600000000  0.5309860000000  0.5417910000000 1.0
C      1  0.4905580000000  0.4275370000000  0.4890940000000 1.0
C      1  0.4439300000000  0.5295070000000  0.5721040000000 1.0
C      1  0.4748700000000  0.4489350000000  0.5797180000000 1.0
C      1  0.4868920000000  0.5282240000000  0.4202210000000 1.0
C      1  0.5248450000000  0.5598850000000  0.6078470000000 1.0
C      1  0.4202730000000  0.4274660000000  0.5683490000000 1.0
C      1  0.5204390000000  0.6121560000000  0.4398660000000 1.0
C      1  0.3905100000000  0.5297050000000  0.5519480000000 1.0
C      1  0.4920240000000  0.4841240000000  0.6136570000000 1.0
C      1  0.4502950000000  0.4674700000000  0.4593560000000 1.0
C      1  0.5334080000000  0.5157730000000  0.6130700000000 1.0
C      1  0.5136300000000  0.4729830000000  0.5186590000000 1.0
C      1  0.5646450000000  0.5624620000000  0.4964820000000 1.0
C      1  0.4279650000000  0.5109140000000  0.3772360000000 1.0
C      1  0.5495500000000  0.5767090000000  0.5632070000000 1.0
C      1  0.5402200000000  0.6120620000000  0.4836450000000 1.0
C      1  0.5260320000000  0.3899290000000  0.5626860000000 1.0
C      1  0.4656200000000  0.5718730000000  0.5033640000000 1.0
C      1  0.4207030000000  0.5556980000000  0.6160680000000 1.0
C      1  0.5745840000000  0.5426150000000  0.6009260000000 1.0
C      1  0.6096510000000  0.4945760000000  0.5425900000000 1.0
C      1  0.4259520000000  0.4506350000000  0.5841830000000 1.0
C      1  0.4608310000000  0.5643700000000  0.4161290000000 1.0
C      1  0.4951220000000  0.5190810000000  0.3677400000000 1.0
C      1  0.5044410000000  0.4024500000000  0.4951100000000 1.0
C      1  0.5719940000000  0.5627800000000  0.4300860000000 1.0
C      1  0.5551520000000  0.4923620000000  0.4487930000000 1.0
C      1  0.5831270000000  0.5245520000000  0.4054690000000 1.0
C      1  0.4880470000000  0.5443060000000  0.5679140000000 1.0
C      1  0.5631070000000  0.5141560000000  0.4955320000000 1.0
C      1  0.6159190000000  0.4897270000000  0.4938480000000 1.0
C      1  0.5676920000000  0.6167710000000  0.4808290000000 1.0
C      1  0.5184370000000  0.3931850000000  0.4714130000000 1.0
C      1  0.5212050000000  0.4720110000000  0.5754740000000 1.0
END
