TITL C-627107-135-2044 0.381770511299328 125000 -249.542929369965 0 0 43 (C1) n - 1
REM
REM in /home/nfs/bkarasulu/CARBON/AIRSS/Generating-Clusters/LCBOP/Only-C1/SD-CG/FIRE-CG
REM
REM
REM
REM
REM
REM ./C.cell (11c1c37f851c82e70ff6c80c92926a4b)
REM AIRSS Version 0.9.1 bugfix July 2018 build 013d7b7c2542+ Fri, 06 Jul 2018 19:26:36 +0100
REM compiler GCC version 9.2.1 20190827 (Red Hat 9.2.1-1)
REM options -cpp -mtune=generic -march=x86-64 -g -O0 -fpre-include=/usr/include/finclude/math-vector-fortran.h
REM seed -2075063590 -1476964492 -1322368920 -1562956719 952170319 214232918 -1815986702 1468957445 325708404 -2017073648 -448946650 956481266 1693309679 84763528 -361387667 -212347367 -2031029996 -1505610949 2120074524 -738520481 1233482228 -1728316016 117663466 -2114899631 204497819 -2047560039 1877965214 -994115102 1999324642 -1761427373 -702830092 319927686 1404453085
REM
CELL 1.54180   50.00000   50.00000   50.00000   90.00000   90.00000   90.00000
LATT -1
SFAC C  
C      1  0.4426010000000  0.5670820000000  0.4915500000000 1.0
C      1  0.4981090000000  0.4712390000000  0.4381920000000 1.0
C      1  0.5381730000000  0.5202890000000  0.4684910000000 1.0
C      1  0.4535040000000  0.4853610000000  0.4557110000000 1.0
C      1  0.4442010000000  0.4726090000000  0.5065010000000 1.0
C      1  0.5134400000000  0.5809080000000  0.5073620000000 1.0
C      1  0.4991630000000  0.5308950000000  0.4946810000000 1.0
C      1  0.5241480000000  0.4839030000000  0.4355720000000 1.0
C      1  0.4550520000000  0.4696400000000  0.4801610000000 1.0
C      1  0.5085660000000  0.3993350000000  0.4513710000000 1.0
C      1  0.5310260000000  0.5700040000000  0.4895000000000 1.0
C      1  0.5516340000000  0.4999810000000  0.4846630000000 1.0
C      1  0.4859040000000  0.5487690000000  0.4773140000000 1.0
C      1  0.4619480000000  0.5605580000000  0.4738630000000 1.0
C      1  0.4478420000000  0.4238940000000  0.6070940000000 1.0
C      1  0.4947020000000  0.4508400000000  0.4577880000000 1.0
C      1  0.5172930000000  0.5343500000000  0.5173600000000 1.0
C      1  0.4680660000000  0.5101070000000  0.5244750000000 1.0
C      1  0.4450660000000  0.5662760000000  0.5185150000000 1.0
C      1  0.5216310000000  0.5109930000000  0.4468040000000 1.0
C      1  0.4766200000000  0.5336280000000  0.5398720000000 1.0
C      1  0.5761980000000  0.4915050000000  0.4750860000000 1.0
C      1  0.5938630000000  0.4907900000000  0.5721930000000 1.0
C      1  0.4694300000000  0.5609410000000  0.5318660000000 1.0
C      1  0.4918370000000  0.5779380000000  0.5238450000000 1.0
C      1  0.5042410000000  0.4672080000000  0.5385990000000 1.0
C      1  0.5460610000000  0.4732610000000  0.4235720000000 1.0
C      1  0.5777680000000  0.4893600000000  0.5517350000000 1.0
C      1  0.4571760000000  0.4379540000000  0.5872240000000 1.0
C      1  0.4832570000000  0.4620090000000  0.4812580000000 1.0
C      1  0.5613190000000  0.4880040000000  0.5310140000000 1.0
C      1  0.4847020000000  0.5072280000000  0.5001910000000 1.0
C      1  0.5429680000000  0.4878040000000  0.5097580000000 1.0
C      1  0.4768500000000  0.4923900000000  0.4402710000000 1.0
C      1  0.5015400000000  0.4242360000000  0.4544800000000 1.0
C      1  0.4581310000000  0.4835740000000  0.5295340000000 1.0
C      1  0.5398420000000  0.5482190000000  0.4755770000000 1.0
C      1  0.4931500000000  0.5165290000000  0.4419280000000 1.0
C      1  0.5055170000000  0.5327830000000  0.5422290000000 1.0
C      1  0.4666250000000  0.4522390000000  0.5670110000000 1.0
C      1  0.5172340000000  0.4761500000000  0.5146880000000 1.0
C      1  0.4761570000000  0.4672520000000  0.5455790000000 1.0
C      1  0.4974440000000  0.4819610000000  0.4955200000000 1.0
END
