TITL C-627107-135-222 7648.53122922905 125000 -793.146865861039 0 0 129 (C1) n - 1
REM
REM in /home/nfs/bkarasulu/CARBON/AIRSS/Generating-Clusters/LCBOP/Only-C1/SD-CG/FIRE-CG
REM
REM
REM
REM
REM
REM ./C.cell (11c1c37f851c82e70ff6c80c92926a4b)
REM AIRSS Version 0.9.1 bugfix July 2018 build 013d7b7c2542+ Fri, 06 Jul 2018 19:26:36 +0100
REM compiler GCC version 9.2.1 20190827 (Red Hat 9.2.1-1)
REM options -cpp -mtune=generic -march=x86-64 -g -O0 -fpre-include=/usr/include/finclude/math-vector-fortran.h
REM seed 1788635766 1586265910 -264159774 1508940231 -1463115764 -1386920936 1905252072 1712347654 1649819206 959672492 1426492067 1615901958 -505872138 799380715 -1059312745 1337433992 -925080643 -1625572584 2024126895 -1826032719 2121605707 431671678 -189024994 -789768227 882761814 918252717 1794361957 575299041 -332222980 -685945933 -2017736542 1143703360 584085964
REM
CELL 1.54180   50.00000   50.00000   50.00000   90.00000   90.00000   90.00000
LATT -1
SFAC C  
C      1  0.4617280000000  0.5897900000000  0.4783840000000 1.0
C      1  0.4825240000000  0.4185600000000  0.4921300000000 1.0
C      1  0.4533610000000  0.4630170000000  0.5017500000000 1.0
C      1  0.5543540000000  0.5308650000000  0.4511900000000 1.0
C      1  0.6250870000000  0.5466220000000  0.4700760000000 1.0
C      1  0.4572300000000  0.5455720000000  0.4799330000000 1.0
C      1  0.4552670000000  0.5394080000000  0.4516270000000 1.0
C      1  0.5405180000000  0.5116440000000  0.5593010000000 1.0
C      1  0.5940790000000  0.5180960000000  0.5212530000000 1.0
C      1  0.4242310000000  0.5699300000000  0.5071080000000 1.0
C      1  0.4699880000000  0.6031700000000  0.5016610000000 1.0
C      1  0.5062710000000  0.3649560000000  0.3915230000000 1.0
C      1  0.5189250000000  0.5551140000000  0.5771480000000 1.0
C      1  0.4717270000000  0.5629970000000  0.3881000000000 1.0
C      1  0.5699330000000  0.4895070000000  0.4825680000000 1.0
C      1  0.5534780000000  0.5357410000000  0.5491900000000 1.0
C      1  0.5733530000000  0.4947830000000  0.4312700000000 1.0
C      1  0.5057350000000  0.5392030000000  0.4143660000000 1.0
C      1  0.5266830000000  0.5257640000000  0.4516020000000 1.0
C      1  0.5300650000000  0.5799540000000  0.5311090000000 1.0
C      1  0.6278010000000  0.4555370000000  0.4576700000000 1.0
C      1  0.4537300000000  0.3685790000000  0.5187850000000 1.0
C      1  0.4527050000000  0.4952270000000  0.4656120000000 1.0
C      1  0.4477290000000  0.5130760000000  0.4440900000000 1.0
C      1  0.4903830000000  0.4730470000000  0.5726590000000 1.0
C      1  0.4672000000000  0.4544480000000  0.5745240000000 1.0
C      1  0.4255960000000  0.5493930000000  0.5535910000000 1.0
C      1  0.5816980000000  0.5246410000000  0.5465230000000 1.0
C      1  0.5327970000000  0.5513650000000  0.4099540000000 1.0
C      1  0.4436050000000  0.5447490000000  0.5755970000000 1.0
C      1  0.4535470000000  0.3940100000000  0.5284280000000 1.0
C      1  0.6204030000000  0.5247240000000  0.5144930000000 1.0
C      1  0.4638430000000  0.4091540000000  0.4724430000000 1.0
C      1  0.5476710000000  0.5290430000000  0.3967750000000 1.0
C      1  0.5286520000000  0.5245620000000  0.6149800000000 1.0
C      1  0.4509020000000  0.5034890000000  0.4174130000000 1.0
C      1  0.4313370000000  0.4127930000000  0.5269320000000 1.0
C      1  0.4575700000000  0.5162810000000  0.5280080000000 1.0
C      1  0.4815960000000  0.5543000000000  0.4126420000000 1.0
C      1  0.5090960000000  0.5061670000000  0.3695800000000 1.0
C      1  0.5756920000000  0.5119390000000  0.5000460000000 1.0
C      1  0.5006920000000  0.4040500000000  0.5330220000000 1.0
C      1  0.5394320000000  0.5746720000000  0.4269190000000 1.0
C      1  0.4050040000000  0.4740770000000  0.5372270000000 1.0
C      1  0.4961720000000  0.6097530000000  0.5092580000000 1.0
C      1  0.6324710000000  0.5366670000000  0.4937800000000 1.0
C      1  0.4431580000000  0.4480470000000  0.4588270000000 1.0
C      1  0.4057410000000  0.5277270000000  0.5494490000000 1.0
C      1  0.6055830000000  0.4691240000000  0.4567440000000 1.0
C      1  0.5580390000000  0.4951410000000  0.5753580000000 1.0
C      1  0.4076860000000  0.5089120000000  0.5067700000000 1.0
C      1  0.5448440000000  0.5806630000000  0.5052820000000 1.0
C      1  0.4800540000000  0.5425230000000  0.4986430000000 1.0
C      1  0.4917010000000  0.5463640000000  0.5793320000000 1.0
C      1  0.4822030000000  0.5190470000000  0.5869970000000 1.0
C      1  0.5287030000000  0.4919090000000  0.5094620000000 1.0
C      1  0.5325520000000  0.5478860000000  0.6014260000000 1.0
C      1  0.5515790000000  0.4270100000000  0.5735360000000 1.0
C      1  0.5569190000000  0.4321920000000  0.6005360000000 1.0
C      1  0.4340840000000  0.5709500000000  0.5340320000000 1.0
C      1  0.4625250000000  0.4280650000000  0.5620120000000 1.0
C      1  0.5310140000000  0.5853670000000  0.4532550000000 1.0
C      1  0.4216400000000  0.4274080000000  0.5033450000000 1.0
C      1  0.5289250000000  0.4487050000000  0.5296360000000 1.0
C      1  0.4688140000000  0.4442450000000  0.4422540000000 1.0
C      1  0.4528070000000  0.5187460000000  0.5858290000000 1.0
C      1  0.5452860000000  0.4833520000000  0.5975700000000 1.0
C      1  0.4943200000000  0.4815330000000  0.5450660000000 1.0
C      1  0.4733230000000  0.4151290000000  0.4452950000000 1.0
C      1  0.4419860000000  0.4700860000000  0.5738110000000 1.0
C      1  0.5065610000000  0.5358980000000  0.4926740000000 1.0
C      1  0.6079560000000  0.4958410000000  0.5786320000000 1.0
C      1  0.5527420000000  0.4588200000000  0.6082320000000 1.0
C      1  0.5354380000000  0.5589400000000  0.5522460000000 1.0
C      1  0.4035020000000  0.4509530000000  0.5092190000000 1.0
C      1  0.4373130000000  0.4237330000000  0.4763160000000 1.0
C      1  0.4951110000000  0.3813120000000  0.4091440000000 1.0
C      1  0.4348220000000  0.5160640000000  0.5104350000000 1.0
C      1  0.5456930000000  0.4764000000000  0.4903760000000 1.0
C      1  0.4630130000000  0.5696380000000  0.3644580000000 1.0
C      1  0.3949280000000  0.4935400000000  0.4869640000000 1.0
C      1  0.5654460000000  0.4129940000000  0.6178620000000 1.0
C      1  0.5065070000000  0.4132660000000  0.5063540000000 1.0
C      1  0.5066600000000  0.5718380000000  0.4601320000000 1.0
C      1  0.4420650000000  0.5694180000000  0.4853730000000 1.0
C      1  0.4951980000000  0.4888740000000  0.4258550000000 1.0
C      1  0.5330200000000  0.5174290000000  0.3750040000000 1.0
C      1  0.6035420000000  0.5491610000000  0.4545520000000 1.0
C      1  0.4670830000000  0.5613710000000  0.5789110000000 1.0
C      1  0.3990890000000  0.5031500000000  0.5343490000000 1.0
C      1  0.4793460000000  0.5801840000000  0.4560160000000 1.0
C      1  0.5418890000000  0.5939050000000  0.4792640000000 1.0
C      1  0.4840670000000  0.3976930000000  0.4267840000000 1.0
C      1  0.4927050000000  0.4627530000000  0.4409250000000 1.0
C      1  0.3916520000000  0.4666140000000  0.4888830000000 1.0
C      1  0.4338120000000  0.4250570000000  0.5532670000000 1.0
C      1  0.4701800000000  0.4918620000000  0.5339880000000 1.0
C      1  0.5256290000000  0.4347660000000  0.5042390000000 1.0
C      1  0.5844570000000  0.5042430000000  0.5678510000000 1.0
C      1  0.5222250000000  0.4982170000000  0.6056910000000 1.0
C      1  0.4775930000000  0.5004240000000  0.4774790000000 1.0
C      1  0.5091810000000  0.4626470000000  0.4651570000000 1.0
C      1  0.5779260000000  0.5434800000000  0.4501140000000 1.0
C      1  0.5605770000000  0.5575980000000  0.5023880000000 1.0
C      1  0.5098580000000  0.5144230000000  0.4309380000000 1.0
C      1  0.4396560000000  0.4941450000000  0.5882860000000 1.0
C      1  0.5541520000000  0.5307050000000  0.5009950000000 1.0
C      1  0.4306180000000  0.4696840000000  0.5475170000000 1.0
C      1  0.5309370000000  0.4524860000000  0.4815230000000 1.0
C      1  0.4680110000000  0.5603870000000  0.4369700000000 1.0
C      1  0.4735410000000  0.4439580000000  0.5004460000000 1.0
C      1  0.5176140000000  0.4753160000000  0.5300480000000 1.0
C      1  0.5428800000000  0.4364680000000  0.5503280000000 1.0
C      1  0.4733830000000  0.5385180000000  0.5252130000000 1.0
C      1  0.5276630000000  0.5201050000000  0.5044560000000 1.0
C      1  0.4750410000000  0.4065780000000  0.5450230000000 1.0
C      1  0.5172720000000  0.3488750000000  0.3742020000000 1.0
C      1  0.4578450000000  0.5883020000000  0.5338320000000 1.0
C      1  0.4431890000000  0.4710110000000  0.4756950000000 1.0
C      1  0.5126620000000  0.5447790000000  0.4672030000000 1.0
C      1  0.4504750000000  0.4725920000000  0.5274610000000 1.0
C      1  0.4822890000000  0.5899920000000  0.5476900000000 1.0
C      1  0.4856030000000  0.4976710000000  0.3798710000000 1.0
C      1  0.4991950000000  0.4854170000000  0.4792670000000 1.0
C      1  0.5651760000000  0.5110740000000  0.4110320000000 1.0
C      1  0.4748500000000  0.4936170000000  0.4056850000000 1.0
C      1  0.5062200000000  0.5956750000000  0.5324490000000 1.0
C      1  0.5822820000000  0.4847820000000  0.4567850000000 1.0
C      1  0.4973150000000  0.4947920000000  0.5912470000000 1.0
END
