TITL C-627107-135-386 -1.75524225540874e-06 125000 -1045.77711723493 0 0 172 (C1) n - 1
REM
REM in /home/nfs/bkarasulu/CARBON/AIRSS/Generating-Clusters/LCBOP/Only-C1/SD-CG/FIRE-CG
REM
REM
REM
REM
REM
REM ./C.cell (11c1c37f851c82e70ff6c80c92926a4b)
REM AIRSS Version 0.9.1 bugfix July 2018 build 013d7b7c2542+ Fri, 06 Jul 2018 19:26:36 +0100
REM compiler GCC version 9.2.1 20190827 (Red Hat 9.2.1-1)
REM options -cpp -mtune=generic -march=x86-64 -g -O0 -fpre-include=/usr/include/finclude/math-vector-fortran.h
REM seed 926240255 467966132 -1836036231 -590767933 52632240 -222837440 -1815550495 -308580381 659198003 1975271020 364182301 711229748 -537032761 -390465222 407476602 -638337419 708007502 1587794290 -1203042386 -1611993492 -798487883 356779920 -1668130066 1892601298 -1581495873 1176802260 690583734 1101376995 1538075178 1796338803 -1864904010 -1023466285 2108675973
REM
CELL 1.54180   50.00000   50.00000   50.00000   90.00000   90.00000   90.00000
LATT -1
SFAC C  
C      1  0.4372920000000  0.4464060000000  0.5691480000000 1.0
C      1  0.4789710000000  0.4770390000000  0.4717620000000 1.0
C      1  0.4183660000000  0.5614370000000  0.4453000000000 1.0
C      1  0.4298780000000  0.5146910000000  0.4519850000000 1.0
C      1  0.5600170000000  0.4916430000000  0.4903790000000 1.0
C      1  0.3941540000000  0.5431090000000  0.5481300000000 1.0
C      1  0.4302450000000  0.4126030000000  0.5349760000000 1.0
C      1  0.5036830000000  0.5752250000000  0.4601870000000 1.0
C      1  0.5998890000000  0.5329660000000  0.5499480000000 1.0
C      1  0.4870170000000  0.5487520000000  0.3552050000000 1.0
C      1  0.5270420000000  0.5843330000000  0.4118460000000 1.0
C      1  0.3522840000000  0.4698070000000  0.4987490000000 1.0
C      1  0.5560050000000  0.4462860000000  0.5897270000000 1.0
C      1  0.4116960000000  0.5049050000000  0.4965090000000 1.0
C      1  0.5466300000000  0.6273440000000  0.4965730000000 1.0
C      1  0.4587350000000  0.5122280000000  0.6107200000000 1.0
C      1  0.4948330000000  0.5154220000000  0.4055760000000 1.0
C      1  0.4250570000000  0.5867970000000  0.4577040000000 1.0
C      1  0.4727380000000  0.3841510000000  0.5118510000000 1.0
C      1  0.5097360000000  0.5576780000000  0.5474520000000 1.0
C      1  0.4728830000000  0.4383630000000  0.5248090000000 1.0
C      1  0.4314260000000  0.5076850000000  0.5174770000000 1.0
C      1  0.5335950000000  0.4829290000000  0.4536900000000 1.0
C      1  0.5780650000000  0.5500490000000  0.5424500000000 1.0
C      1  0.4339890000000  0.5317650000000  0.5319620000000 1.0
C      1  0.5028980000000  0.5639760000000  0.5191220000000 1.0
C      1  0.4742400000000  0.4986960000000  0.3521930000000 1.0
C      1  0.5071600000000  0.3757270000000  0.4799960000000 1.0
C      1  0.3956700000000  0.4751570000000  0.5489330000000 1.0
C      1  0.6097700000000  0.5175090000000  0.4445350000000 1.0
C      1  0.4034930000000  0.4163010000000  0.4965050000000 1.0
C      1  0.3994530000000  0.4508910000000  0.5351820000000 1.0
C      1  0.5346020000000  0.5476020000000  0.5529340000000 1.0
C      1  0.5495600000000  0.5791060000000  0.5839170000000 1.0
C      1  0.4763870000000  0.5250640000000  0.3473740000000 1.0
C      1  0.4991980000000  0.4150840000000  0.5608220000000 1.0
C      1  0.5039000000000  0.5532390000000  0.3775700000000 1.0
C      1  0.4125780000000  0.4917950000000  0.5661820000000 1.0
C      1  0.5673010000000  0.5370650000000  0.5177650000000 1.0
C      1  0.4261000000000  0.4672740000000  0.4687710000000 1.0
C      1  0.5555290000000  0.5183520000000  0.4249290000000 1.0
C      1  0.5950000000000  0.4412950000000  0.5295790000000 1.0
C      1  0.4371150000000  0.4756240000000  0.5783280000000 1.0
C      1  0.4548710000000  0.4228470000000  0.5734420000000 1.0
C      1  0.4678130000000  0.3988950000000  0.4636720000000 1.0
C      1  0.5355530000000  0.4820010000000  0.6146280000000 1.0
C      1  0.3642300000000  0.4447940000000  0.4970790000000 1.0
C      1  0.6296890000000  0.5172660000000  0.4662710000000 1.0
C      1  0.4209050000000  0.4954200000000  0.4707970000000 1.0
C      1  0.4961900000000  0.4293260000000  0.4279140000000 1.0
C      1  0.4606460000000  0.4858100000000  0.5968500000000 1.0
C      1  0.4285790000000  0.4067080000000  0.5061710000000 1.0
C      1  0.4207700000000  0.4369310000000  0.5465670000000 1.0
C      1  0.4149260000000  0.5872290000000  0.4847140000000 1.0
C      1  0.5243480000000  0.4374050000000  0.4351780000000 1.0
C      1  0.6102770000000  0.5031210000000  0.5112580000000 1.0
C      1  0.4868130000000  0.5534110000000  0.4588760000000 1.0
C      1  0.4835530000000  0.4994100000000  0.4232940000000 1.0
C      1  0.3891210000000  0.4387600000000  0.5114250000000 1.0
C      1  0.5203210000000  0.5878240000000  0.5139190000000 1.0
C      1  0.5211560000000  0.6074880000000  0.4304370000000 1.0
C      1  0.4775080000000  0.4750590000000  0.3644560000000 1.0
C      1  0.5687600000000  0.5445300000000  0.4282270000000 1.0
C      1  0.4883690000000  0.3786870000000  0.4605470000000 1.0
C      1  0.5901600000000  0.4846840000000  0.5576310000000 1.0
C      1  0.5525020000000  0.5152110000000  0.5058370000000 1.0
C      1  0.3623970000000  0.4249570000000  0.4762510000000 1.0
C      1  0.4784860000000  0.5829240000000  0.4052210000000 1.0
C      1  0.5217750000000  0.5325390000000  0.6025560000000 1.0
C      1  0.5308190000000  0.5806720000000  0.4649290000000 1.0
C      1  0.5708000000000  0.4908590000000  0.5790920000000 1.0
C      1  0.4642630000000  0.6251910000000  0.5086890000000 1.0
C      1  0.4900820000000  0.5366600000000  0.4806940000000 1.0
C      1  0.4653480000000  0.5862900000000  0.5410810000000 1.0
C      1  0.4366800000000  0.4534880000000  0.4915100000000 1.0
C      1  0.4818650000000  0.4263080000000  0.5802540000000 1.0
C      1  0.3841560000000  0.5080630000000  0.5002020000000 1.0
C      1  0.4713820000000  0.4202930000000  0.4433380000000 1.0
C      1  0.5432180000000  0.4755110000000  0.4074140000000 1.0
C      1  0.4911240000000  0.5564780000000  0.5681380000000 1.0
C      1  0.5944160000000  0.4938240000000  0.4479120000000 1.0
C      1  0.5656600000000  0.3901570000000  0.5016470000000 1.0
C      1  0.5403610000000  0.4723660000000  0.4805960000000 1.0
C      1  0.5305020000000  0.4336790000000  0.5884470000000 1.0
C      1  0.5382460000000  0.4505280000000  0.5346030000000 1.0
C      1  0.4987930000000  0.5447670000000  0.5922350000000 1.0
C      1  0.6015670000000  0.5966700000000  0.4991540000000 1.0
C      1  0.4494490000000  0.4011560000000  0.5530880000000 1.0
C      1  0.4536960000000  0.4905880000000  0.5150850000000 1.0
C      1  0.5566940000000  0.4733030000000  0.5978200000000 1.0
C      1  0.4660740000000  0.5369480000000  0.6213920000000 1.0
C      1  0.5517130000000  0.5672520000000  0.4176740000000 1.0
C      1  0.5076620000000  0.5388660000000  0.5029040000000 1.0
C      1  0.3849990000000  0.4090390000000  0.4755710000000 1.0
C      1  0.5490100000000  0.4259620000000  0.4460460000000 1.0
C      1  0.4619720000000  0.5783310000000  0.4273650000000 1.0
C      1  0.6142750000000  0.5251080000000  0.4904290000000 1.0
C      1  0.4296970000000  0.4531510000000  0.4446740000000 1.0
C      1  0.3705200000000  0.5559300000000  0.5529820000000 1.0
C      1  0.5068580000000  0.4389530000000  0.4785000000000 1.0
C      1  0.5299770000000  0.5838500000000  0.6035640000000 1.0
C      1  0.5477740000000  0.5267370000000  0.6010230000000 1.0
C      1  0.5377650000000  0.4281600000000  0.5143580000000 1.0
C      1  0.5928430000000  0.4421030000000  0.4329850000000 1.0
C      1  0.4035080000000  0.5198610000000  0.5645240000000 1.0
C      1  0.5394950000000  0.5320710000000  0.4662020000000 1.0
C      1  0.4685900000000  0.6257260000000  0.4819560000000 1.0
C      1  0.5086370000000  0.4847460000000  0.6154080000000 1.0
C      1  0.5847290000000  0.4156660000000  0.5335010000000 1.0
C      1  0.4691420000000  0.5200590000000  0.4843740000000 1.0
C      1  0.4228410000000  0.5687400000000  0.5052880000000 1.0
C      1  0.6104570000000  0.4757080000000  0.5009860000000 1.0
C      1  0.4871340000000  0.4712580000000  0.6021200000000 1.0
C      1  0.5923700000000  0.5418890000000  0.4475730000000 1.0
C      1  0.4739640000000  0.5721020000000  0.5169940000000 1.0
C      1  0.5117960000000  0.4114630000000  0.5156860000000 1.0
C      1  0.4865250000000  0.5571760000000  0.6153350000000 1.0
C      1  0.5309910000000  0.4655440000000  0.4309960000000 1.0
C      1  0.4939610000000  0.4229090000000  0.5345770000000 1.0
C      1  0.4651370000000  0.5642360000000  0.5602730000000 1.0
C      1  0.5495910000000  0.6254510000000  0.4698600000000 1.0
C      1  0.4649150000000  0.3816970000000  0.5393780000000 1.0
C      1  0.4475040000000  0.4346290000000  0.4368930000000 1.0
C      1  0.4690460000000  0.4939560000000  0.4918490000000 1.0
C      1  0.5760280000000  0.4344320000000  0.4534660000000 1.0
C      1  0.5379760000000  0.5198400000000  0.5565140000000 1.0
C      1  0.3608350000000  0.4950950000000  0.5002760000000 1.0
C      1  0.4831160000000  0.4547010000000  0.3809770000000 1.0
C      1  0.4516170000000  0.5653500000000  0.5016590000000 1.0
C      1  0.4125130000000  0.5508200000000  0.5264230000000 1.0
C      1  0.5201240000000  0.5027790000000  0.5394940000000 1.0
C      1  0.4702600000000  0.6167460000000  0.4548790000000 1.0
C      1  0.5406660000000  0.5106560000000  0.4483320000000 1.0
C      1  0.5321570000000  0.4458090000000  0.4890050000000 1.0
C      1  0.5262620000000  0.4122530000000  0.5694480000000 1.0
C      1  0.4496020000000  0.5415130000000  0.5531690000000 1.0
C      1  0.4966210000000  0.4452330000000  0.5945300000000 1.0
C      1  0.5443010000000  0.3986730000000  0.5521600000000 1.0
C      1  0.4535930000000  0.3964210000000  0.4918310000000 1.0
C      1  0.5976280000000  0.5478030000000  0.4775560000000 1.0
C      1  0.5124920000000  0.5285700000000  0.3882900000000 1.0
C      1  0.5966940000000  0.5734800000000  0.4883060000000 1.0
C      1  0.4802830000000  0.4850810000000  0.4452520000000 1.0
C      1  0.4643020000000  0.5528490000000  0.4411490000000 1.0
C      1  0.5558810000000  0.5142020000000  0.5773330000000 1.0
C      1  0.5847640000000  0.4023620000000  0.4862280000000 1.0
C      1  0.5386310000000  0.6057210000000  0.4535460000000 1.0
C      1  0.4381230000000  0.5405830000000  0.4445500000000 1.0
C      1  0.5340240000000  0.6106710000000  0.5133830000000 1.0
C      1  0.4500170000000  0.5979200000000  0.4455420000000 1.0
C      1  0.4616210000000  0.6133090000000  0.5331480000000 1.0
C      1  0.5576930000000  0.4060060000000  0.5256750000000 1.0
C      1  0.4916330000000  0.5034450000000  0.5485750000000 1.0
C      1  0.5506700000000  0.5023940000000  0.4019490000000 1.0
C      1  0.4822980000000  0.4510750000000  0.4807230000000 1.0
C      1  0.5921880000000  0.4563660000000  0.5535420000000 1.0
C      1  0.5298350000000  0.4750730000000  0.5396160000000 1.0
C      1  0.5794850000000  0.4406180000000  0.5746690000000 1.0
C      1  0.5042590000000  0.5753430000000  0.3957210000000 1.0
C      1  0.5576400000000  0.5632360000000  0.5600400000000 1.0
C      1  0.4894480000000  0.4381950000000  0.4011380000000 1.0
C      1  0.4623940000000  0.4448480000000  0.4998070000000 1.0
C      1  0.4947230000000  0.6185300000000  0.4381690000000 1.0
C      1  0.5367120000000  0.5160850000000  0.3818840000000 1.0
C      1  0.5879760000000  0.4305320000000  0.4800430000000 1.0
C      1  0.5808070000000  0.4899930000000  0.4709150000000 1.0
C      1  0.5241460000000  0.5170310000000  0.5125600000000 1.0
C      1  0.6024320000000  0.5057770000000  0.5402230000000 1.0
C      1  0.5009590000000  0.3875240000000  0.5048090000000 1.0
C      1  0.5063920000000  0.5791370000000  0.6188320000000 1.0
C      1  0.5449360000000  0.5577840000000  0.4716530000000 1.0
C      1  0.5987500000000  0.4494050000000  0.5018760000000 1.0
END
