TITL C-627108-131-1590 1.70047700030028e-05 125000 -1038.71210383798 0 0 169 (C1) n - 1
REM
REM in /home/nfs/bkarasulu/CARBON/AIRSS/Generating-Clusters/LCBOP/Only-C1/SD-CG/FIRE-CG
REM
REM
REM
REM
REM
REM ./C.cell (11c1c37f851c82e70ff6c80c92926a4b)
REM AIRSS Version 0.9.1 bugfix July 2018 build 013d7b7c2542+ Fri, 06 Jul 2018 19:26:36 +0100
REM compiler GCC version 9.2.1 20190827 (Red Hat 9.2.1-1)
REM options -cpp -mtune=generic -march=x86-64 -g -O0 -fpre-include=/usr/include/finclude/math-vector-fortran.h
REM seed -597826776 201665834 -1561228492 1682330013 -2127882261 -1086148081 -1469032503 263186020 1167786797 3295544 -1830353532 -1303369400 1540871178 -2138772065 1231918269 1183068263 691640278 -987306265 2000954606 732206628 -1572158317 -1845431734 -726680621 672757766 -1753048654 -938832095 -43665723 936293142 1469133161 -1270684771 -87545050 1879214999 416781429
REM
CELL 1.54180   50.00000   50.00000   50.00000   90.00000   90.00000   90.00000
LATT -1
SFAC C  
C      1  0.5821140000000  0.5863820000000  0.4833660000000 1.0
C      1  0.4728000000000  0.5854930000000  0.4727310000000 1.0
C      1  0.5669080000000  0.3953580000000  0.5151090000000 1.0
C      1  0.5024110000000  0.5192240000000  0.5576380000000 1.0
C      1  0.5169610000000  0.6073380000000  0.4810810000000 1.0
C      1  0.6191450000000  0.5294900000000  0.4442130000000 1.0
C      1  0.5965490000000  0.5279520000000  0.3788780000000 1.0
C      1  0.5633180000000  0.4479830000000  0.4021040000000 1.0
C      1  0.4444960000000  0.4569420000000  0.4024500000000 1.0
C      1  0.5570470000000  0.5637900000000  0.5464820000000 1.0
C      1  0.5116980000000  0.5460790000000  0.4096140000000 1.0
C      1  0.4311840000000  0.5275570000000  0.4722200000000 1.0
C      1  0.3923240000000  0.5310860000000  0.6152070000000 1.0
C      1  0.5928980000000  0.5051230000000  0.3657360000000 1.0
C      1  0.4579190000000  0.5195430000000  0.4768960000000 1.0
C      1  0.4691350000000  0.5256920000000  0.4281980000000 1.0
C      1  0.5165440000000  0.3971400000000  0.5128440000000 1.0
C      1  0.3774330000000  0.5482440000000  0.5563410000000 1.0
C      1  0.6052930000000  0.4052510000000  0.4266910000000 1.0
C      1  0.5696550000000  0.5078490000000  0.5092390000000 1.0
C      1  0.4570230000000  0.5522010000000  0.5133710000000 1.0
C      1  0.4054820000000  0.5237320000000  0.4038210000000 1.0
C      1  0.4113090000000  0.5665210000000  0.5203290000000 1.0
C      1  0.4684240000000  0.5593390000000  0.5665390000000 1.0
C      1  0.4772700000000  0.5272320000000  0.4570980000000 1.0
C      1  0.6377260000000  0.5485340000000  0.4542440000000 1.0
C      1  0.4676440000000  0.6057730000000  0.4926520000000 1.0
C      1  0.4444510000000  0.4480620000000  0.5557740000000 1.0
C      1  0.6627220000000  0.5669690000000  0.5195850000000 1.0
C      1  0.5071240000000  0.4111660000000  0.5357410000000 1.0
C      1  0.4201810000000  0.5149340000000  0.3833370000000 1.0
C      1  0.5248220000000  0.5293130000000  0.4609160000000 1.0
C      1  0.4916450000000  0.4570610000000  0.4056020000000 1.0
C      1  0.4545920000000  0.6025410000000  0.5397550000000 1.0
C      1  0.4212440000000  0.4333370000000  0.5499010000000 1.0
C      1  0.4821440000000  0.5934360000000  0.4469430000000 1.0
C      1  0.5550980000000  0.5320800000000  0.5114640000000 1.0
C      1  0.5612640000000  0.5222280000000  0.5799490000000 1.0
C      1  0.5363840000000  0.5978250000000  0.5017990000000 1.0
C      1  0.6218630000000  0.4118980000000  0.4714720000000 1.0
C      1  0.4898240000000  0.5309200000000  0.6893370000000 1.0
C      1  0.5969340000000  0.5401960000000  0.4024570000000 1.0
C      1  0.5002080000000  0.5102280000000  0.6468150000000 1.0
C      1  0.5055750000000  0.5335830000000  0.5820660000000 1.0
C      1  0.5110520000000  0.5990120000000  0.4521820000000 1.0
C      1  0.3816650000000  0.5156440000000  0.5943110000000 1.0
C      1  0.4997090000000  0.5421380000000  0.4650150000000 1.0
C      1  0.5041510000000  0.6093630000000  0.5684570000000 1.0
C      1  0.4136920000000  0.5367120000000  0.6301760000000 1.0
C      1  0.4270760000000  0.4589330000000  0.6171820000000 1.0
C      1  0.5835910000000  0.3911070000000  0.4198440000000 1.0
C      1  0.6179480000000  0.4219120000000  0.4455220000000 1.0
C      1  0.6622590000000  0.5512010000000  0.4423330000000 1.0
C      1  0.4470030000000  0.6031730000000  0.5124160000000 1.0
C      1  0.4635760000000  0.4962680000000  0.4931900000000 1.0
C      1  0.5090740000000  0.5122010000000  0.3638490000000 1.0
C      1  0.4112150000000  0.5308160000000  0.4547560000000 1.0
C      1  0.5381870000000  0.4382630000000  0.4695910000000 1.0
C      1  0.5726880000000  0.5446080000000  0.4443350000000 1.0
C      1  0.4878130000000  0.4395130000000  0.5845110000000 1.0
C      1  0.5128330000000  0.5815780000000  0.5708040000000 1.0
C      1  0.4574940000000  0.5842710000000  0.5591930000000 1.0
C      1  0.5256910000000  0.5011120000000  0.4573590000000 1.0
C      1  0.4954790000000  0.5598440000000  0.5779650000000 1.0
C      1  0.4065830000000  0.4748260000000  0.6102080000000 1.0
C      1  0.3750570000000  0.4492320000000  0.5612750000000 1.0
C      1  0.5041780000000  0.5008500000000  0.6207100000000 1.0
C      1  0.4782410000000  0.4949230000000  0.5205590000000 1.0
C      1  0.4839820000000  0.5555460000000  0.5072530000000 1.0
C      1  0.4780300000000  0.4395860000000  0.4996780000000 1.0
C      1  0.6244840000000  0.4755160000000  0.4424030000000 1.0
C      1  0.4962360000000  0.4294850000000  0.4135570000000 1.0
C      1  0.4651580000000  0.4969500000000  0.5950150000000 1.0
C      1  0.4776860000000  0.4161910000000  0.4313710000000 1.0
C      1  0.5627390000000  0.5587990000000  0.5183240000000 1.0
C      1  0.3395490000000  0.5220970000000  0.5707990000000 1.0
C      1  0.5060690000000  0.4760210000000  0.4208230000000 1.0
C      1  0.3720090000000  0.4702930000000  0.5774050000000 1.0
C      1  0.5244700000000  0.4269320000000  0.5516130000000 1.0
C      1  0.4513550000000  0.4260410000000  0.4376780000000 1.0
C      1  0.5567880000000  0.3882450000000  0.4278960000000 1.0
C      1  0.4505210000000  0.5163640000000  0.6083500000000 1.0
C      1  0.5275940000000  0.5695710000000  0.4103040000000 1.0
C      1  0.4527550000000  0.5001070000000  0.4304540000000 1.0
C      1  0.4250420000000  0.4984540000000  0.5451350000000 1.0
C      1  0.5275720000000  0.5874660000000  0.4323830000000 1.0
C      1  0.3666600000000  0.5286270000000  0.5735750000000 1.0
C      1  0.5015560000000  0.4533780000000  0.5061160000000 1.0
C      1  0.4677020000000  0.4927420000000  0.3797590000000 1.0
C      1  0.4917940000000  0.5256710000000  0.4074230000000 1.0
C      1  0.4308310000000  0.5459030000000  0.5221230000000 1.0
C      1  0.4579070000000  0.5319690000000  0.6529430000000 1.0
C      1  0.5488370000000  0.5425960000000  0.4557890000000 1.0
C      1  0.6132060000000  0.4028500000000  0.4949500000000 1.0
C      1  0.4319870000000  0.5266520000000  0.5431510000000 1.0
C      1  0.3887430000000  0.5625630000000  0.5366820000000 1.0
C      1  0.4425470000000  0.5039560000000  0.3736570000000 1.0
C      1  0.5857440000000  0.4795820000000  0.3675200000000 1.0
C      1  0.5280870000000  0.5288640000000  0.5198300000000 1.0
C      1  0.5451450000000  0.4110400000000  0.4750670000000 1.0
C      1  0.5409590000000  0.4354660000000  0.5932970000000 1.0
C      1  0.5428130000000  0.4012820000000  0.5021350000000 1.0
C      1  0.5327260000000  0.4816580000000  0.5727360000000 1.0
C      1  0.5230160000000  0.5112480000000  0.5402320000000 1.0
C      1  0.4988280000000  0.3835250000000  0.4957370000000 1.0
C      1  0.5759290000000  0.4594960000000  0.3818360000000 1.0
C      1  0.5653300000000  0.5450100000000  0.5660560000000 1.0
C      1  0.4784480000000  0.4545600000000  0.6072900000000 1.0
C      1  0.5411380000000  0.5041570000000  0.5887520000000 1.0
C      1  0.4851380000000  0.4825680000000  0.6094670000000 1.0
C      1  0.6306270000000  0.5652640000000  0.4761590000000 1.0
C      1  0.4543750000000  0.4739920000000  0.4754570000000 1.0
C      1  0.5239020000000  0.4505360000000  0.4901240000000 1.0
C      1  0.4634870000000  0.4905550000000  0.5678460000000 1.0
C      1  0.6473270000000  0.5663020000000  0.4985680000000 1.0
C      1  0.5599110000000  0.5808610000000  0.4994500000000 1.0
C      1  0.5614280000000  0.4398010000000  0.5746980000000 1.0
C      1  0.5152870000000  0.4319370000000  0.5799760000000 1.0
C      1  0.5242380000000  0.4775610000000  0.4423220000000 1.0
C      1  0.4899990000000  0.3826670000000  0.4705830000000 1.0
C      1  0.5434410000000  0.4403320000000  0.4200200000000 1.0
C      1  0.5558460000000  0.5829410000000  0.3663000000000 1.0
C      1  0.5347720000000  0.3948280000000  0.4111340000000 1.0
C      1  0.5498460000000  0.4660330000000  0.5326910000000 1.0
C      1  0.4878670000000  0.5629290000000  0.4808190000000 1.0
C      1  0.5258150000000  0.4818710000000  0.5422290000000 1.0
C      1  0.3144910000000  0.5153820000000  0.5683130000000 1.0
C      1  0.5005320000000  0.4746210000000  0.5246810000000 1.0
C      1  0.5961700000000  0.5389680000000  0.4303720000000 1.0
C      1  0.4576780000000  0.5343750000000  0.5557840000000 1.0
C      1  0.4828410000000  0.5245500000000  0.6637450000000 1.0
C      1  0.4561890000000  0.4484950000000  0.4871290000000 1.0
C      1  0.4798710000000  0.4146460000000  0.5436730000000 1.0
C      1  0.3863150000000  0.4872880000000  0.5946590000000 1.0
C      1  0.3866050000000  0.3747200000000  0.5036770000000 1.0
C      1  0.5933280000000  0.3964870000000  0.5115080000000 1.0
C      1  0.6236460000000  0.5018660000000  0.4459990000000 1.0
C      1  0.5236700000000  0.4208080000000  0.4121300000000 1.0
C      1  0.5185780000000  0.5167780000000  0.6015680000000 1.0
C      1  0.5676100000000  0.4819510000000  0.5172430000000 1.0
C      1  0.4160190000000  0.3960760000000  0.4657160000000 1.0
C      1  0.4490170000000  0.4761580000000  0.4465590000000 1.0
C      1  0.4416870000000  0.4767360000000  0.5559730000000 1.0
C      1  0.5345870000000  0.5807420000000  0.5503240000000 1.0
C      1  0.4442620000000  0.4524860000000  0.4305410000000 1.0
C      1  0.4407070000000  0.5295990000000  0.6310200000000 1.0
C      1  0.4692720000000  0.4340100000000  0.5621170000000 1.0
C      1  0.5519940000000  0.3925480000000  0.4552680000000 1.0
C      1  0.6229400000000  0.4490240000000  0.4404190000000 1.0
C      1  0.4521730000000  0.4490820000000  0.6172170000000 1.0
C      1  0.4860650000000  0.3942880000000  0.4469470000000 1.0
C      1  0.4213480000000  0.5906510000000  0.5084850000000 1.0
C      1  0.4324350000000  0.4094030000000  0.4497580000000 1.0
C      1  0.5295440000000  0.6022680000000  0.5297210000000 1.0
C      1  0.4930200000000  0.6198340000000  0.4932730000000 1.0
C      1  0.5079560000000  0.5480000000000  0.5182590000000 1.0
C      1  0.5431680000000  0.5758940000000  0.3879520000000 1.0
C      1  0.4898930000000  0.5102700000000  0.3833020000000 1.0
C      1  0.4686970000000  0.4665950000000  0.3912680000000 1.0
C      1  0.5505530000000  0.4411240000000  0.5474250000000 1.0
C      1  0.5390510000000  0.4530170000000  0.4451870000000 1.0
C      1  0.4683440000000  0.5797010000000  0.4262990000000 1.0
C      1  0.4020450000000  0.5293220000000  0.4297080000000 1.0
C      1  0.4009450000000  0.3848390000000  0.4844000000000 1.0
C      1  0.5129580000000  0.6207130000000  0.5446850000000 1.0
C      1  0.3945900000000  0.4341190000000  0.5510860000000 1.0
C      1  0.4756810000000  0.5102330000000  0.5488320000000 1.0
C      1  0.4582740000000  0.5545470000000  0.4231160000000 1.0
C      1  0.6069300000000  0.5802190000000  0.4759770000000 1.0
END
