TITL C-627106-156-18 9.68746556220635e-07 125000 -480.286828595384 0 0 78 (C1) n - 1
REM
REM in /home/nfs/bkarasulu/CARBON/AIRSS/Generating-Clusters/LCBOP/Only-C1/SD-CG/FIRE-CG
REM
REM
REM
REM
REM
REM ./C.cell (11c1c37f851c82e70ff6c80c92926a4b)
REM AIRSS Version 0.9.1 bugfix July 2018 build 013d7b7c2542+ Fri, 06 Jul 2018 19:26:36 +0100
REM compiler GCC version 9.2.1 20190827 (Red Hat 9.2.1-1)
REM options -cpp -mtune=generic -march=x86-64 -g -O0 -fpre-include=/usr/include/finclude/math-vector-fortran.h
REM seed -215009060 354341424 1989939627 2022367640 41656001 48884908 -1205470113 1039667311 178736893 909761467 -906140566 1353108399 -135881980 -1814985313 -1123887350 -699828706 1808106365 901491800 -1859146660 -2043793338 1894865135 696492554 -411976043 -993861576 2061414212 -397067449 753117166 1220565058 717279567 -207828028 1631508741 1823844257 1079462092
REM
CELL 1.54180   50.00000   50.00000   50.00000   90.00000   90.00000   90.00000
LATT -1
SFAC C  
C      1  0.4646440000000  0.4331600000000  0.4509940000000 1.0
C      1  0.5365730000000  0.5657970000000  0.4918840000000 1.0
C      1  0.4337550000000  0.5181500000000  0.4805340000000 1.0
C      1  0.4948250000000  0.6213360000000  0.5097730000000 1.0
C      1  0.5009950000000  0.6196500000000  0.4835100000000 1.0
C      1  0.4604540000000  0.5295570000000  0.5741610000000 1.0
C      1  0.5418130000000  0.4890230000000  0.4496890000000 1.0
C      1  0.4480270000000  0.5842280000000  0.4906850000000 1.0
C      1  0.4643230000000  0.4314170000000  0.5294320000000 1.0
C      1  0.5086190000000  0.5133760000000  0.4244990000000 1.0
C      1  0.5123620000000  0.4263080000000  0.5227080000000 1.0
C      1  0.5344530000000  0.5871340000000  0.4730430000000 1.0
C      1  0.4499180000000  0.4776920000000  0.5556810000000 1.0
C      1  0.5712180000000  0.4903180000000  0.5619910000000 1.0
C      1  0.5157560000000  0.4458300000000  0.4307710000000 1.0
C      1  0.5130840000000  0.5489310000000  0.4885820000000 1.0
C      1  0.4186400000000  0.4689230000000  0.4827820000000 1.0
C      1  0.4981730000000  0.4090800000000  0.5887390000000 1.0
C      1  0.5697790000000  0.4624030000000  0.5064540000000 1.0
C      1  0.4906440000000  0.4924110000000  0.4174680000000 1.0
C      1  0.4544020000000  0.4780350000000  0.5276630000000 1.0
C      1  0.5625270000000  0.4337770000000  0.4679100000000 1.0
C      1  0.4681270000000  0.4332430000000  0.5580640000000 1.0
C      1  0.5145840000000  0.4294760000000  0.4545670000000 1.0
C      1  0.5509510000000  0.4743810000000  0.5234200000000 1.0
C      1  0.4474430000000  0.4316290000000  0.4727310000000 1.0
C      1  0.5009820000000  0.5344220000000  0.4429190000000 1.0
C      1  0.4726450000000  0.5741530000000  0.4849300000000 1.0
C      1  0.4391480000000  0.5357360000000  0.5277180000000 1.0
C      1  0.4623650000000  0.4943680000000  0.4114320000000 1.0
C      1  0.4392270000000  0.5346340000000  0.4584130000000 1.0
C      1  0.5526100000000  0.4707390000000  0.5514920000000 1.0
C      1  0.4668640000000  0.4524800000000  0.4310490000000 1.0
C      1  0.5406950000000  0.5002550000000  0.5173350000000 1.0
C      1  0.5828960000000  0.5126920000000  0.5507880000000 1.0
C      1  0.5512760000000  0.5637570000000  0.5171240000000 1.0
C      1  0.5086850000000  0.5982180000000  0.4661420000000 1.0
C      1  0.4488240000000  0.4716340000000  0.4194640000000 1.0
C      1  0.4546500000000  0.4551090000000  0.5701160000000 1.0
C      1  0.4909640000000  0.5570060000000  0.5298230000000 1.0
C      1  0.4472360000000  0.5200060000000  0.5057310000000 1.0
C      1  0.5358450000000  0.4266900000000  0.4735310000000 1.0
C      1  0.4802950000000  0.4135930000000  0.4876590000000 1.0
C      1  0.4448550000000  0.5375060000000  0.5539090000000 1.0
C      1  0.5304940000000  0.4238060000000  0.5014270000000 1.0
C      1  0.5789060000000  0.5566660000000  0.5214030000000 1.0
C      1  0.5146460000000  0.5113930000000  0.5250600000000 1.0
C      1  0.4798260000000  0.5146910000000  0.5850370000000 1.0
C      1  0.5771340000000  0.4494410000000  0.4842510000000 1.0
C      1  0.5290320000000  0.4586170000000  0.5620880000000 1.0
C      1  0.5355420000000  0.5042830000000  0.4280420000000 1.0
C      1  0.4869410000000  0.5793450000000  0.4598630000000 1.0
C      1  0.6000260000000  0.5736820000000  0.5204500000000 1.0
C      1  0.4982200000000  0.4953970000000  0.5867080000000 1.0
C      1  0.5801410000000  0.5284100000000  0.5268160000000 1.0
C      1  0.4179190000000  0.4950720000000  0.4772660000000 1.0
C      1  0.4852990000000  0.4202060000000  0.5141890000000 1.0
C      1  0.4888390000000  0.4207160000000  0.4621850000000 1.0
C      1  0.4939070000000  0.4636960000000  0.4259650000000 1.0
C      1  0.4824200000000  0.5566070000000  0.4417750000000 1.0
C      1  0.5140480000000  0.4750560000000  0.5797410000000 1.0
C      1  0.4890630000000  0.5583800000000  0.5017000000000 1.0
C      1  0.5355540000000  0.4423770000000  0.4122000000000 1.0
C      1  0.4897670000000  0.6073380000000  0.5322200000000 1.0
C      1  0.5152810000000  0.4354850000000  0.5504310000000 1.0
C      1  0.5083100000000  0.5284190000000  0.4699820000000 1.0
C      1  0.4499370000000  0.4523170000000  0.5160590000000 1.0
C      1  0.5248360000000  0.4842710000000  0.4704190000000 1.0
C      1  0.5355660000000  0.5541090000000  0.5391930000000 1.0
C      1  0.4872210000000  0.5822980000000  0.5421610000000 1.0
C      1  0.5619400000000  0.5163060000000  0.5083370000000 1.0
C      1  0.5119810000000  0.5381770000000  0.5373130000000 1.0
C      1  0.4660880000000  0.4992950000000  0.5128300000000 1.0
C      1  0.4938930000000  0.5016710000000  0.5071240000000 1.0
C      1  0.4552080000000  0.5479780000000  0.4413740000000 1.0
C      1  0.4939110000000  0.4251570000000  0.5671690000000 1.0
C      1  0.5053790000000  0.5020340000000  0.4806300000000 1.0
C      1  0.4365720000000  0.4490390000000  0.4912850000000 1.0
END
