TITL C-627113-6568-141 0.00126618670054525 125000 -992.666340238892 0 0 162 (C1) n - 1
REM
REM in /home/nfs/bkarasulu/CARBON/AIRSS/Generating-Clusters/LCBOP/Only-C1/SD-CG/FIRE-CG
REM
REM
REM
REM
REM
REM ./C.cell (11c1c37f851c82e70ff6c80c92926a4b)
REM AIRSS Version 0.9.1 bugfix July 2018 build 013d7b7c2542+ Fri, 06 Jul 2018 19:26:36 +0100
REM compiler GCC version 9.2.1 20190827 (Red Hat 9.2.1-1)
REM options -cpp -mtune=generic -march=x86-64 -g -O0 -fpre-include=/usr/include/finclude/math-vector-fortran.h
REM seed -124676050 1589927487 1737777425 -795603087 1834284428 1285826306 -1721272511 -1441789684 -416004380 -136033975 2137104238 -41488157 -1728650384 -1332944236 362918450 -644161030 -1359269186 1523425261 908898173 -2138803541 1155889869 1210071574 93034417 1194377940 742288302 2100988927 1280092835 -595646702 254775947 289628766 1817972316 858554228 -523787455
REM
CELL 1.54180   50.00000   50.00000   50.00000   90.00000   90.00000   90.00000
LATT -1
SFAC C  
C      1  0.5600810000000  0.4895460000000  0.5372700000000 1.0
C      1  0.4862920000000  0.5945960000000  0.5503070000000 1.0
C      1  0.4595950000000  0.4847080000000  0.6122180000000 1.0
C      1  0.4410830000000  0.5225100000000  0.5010240000000 1.0
C      1  0.5344580000000  0.5017370000000  0.4967590000000 1.0
C      1  0.5952840000000  0.5350000000000  0.4908280000000 1.0
C      1  0.5071750000000  0.5063430000000  0.6256000000000 1.0
C      1  0.3294290000000  0.5440550000000  0.4456300000000 1.0
C      1  0.5209220000000  0.4560190000000  0.4824150000000 1.0
C      1  0.5330310000000  0.4301610000000  0.5744530000000 1.0
C      1  0.5095250000000  0.5011770000000  0.5111910000000 1.0
C      1  0.5583970000000  0.5046700000000  0.5135360000000 1.0
C      1  0.4715260000000  0.4950790000000  0.4155530000000 1.0
C      1  0.5405730000000  0.5773770000000  0.4308530000000 1.0
C      1  0.3983960000000  0.4604730000000  0.5544680000000 1.0
C      1  0.4742190000000  0.4568370000000  0.4788040000000 1.0
C      1  0.5243350000000  0.3846460000000  0.5478320000000 1.0
C      1  0.4892060000000  0.5287100000000  0.4577810000000 1.0
C      1  0.5024210000000  0.4240680000000  0.4525780000000 1.0
C      1  0.4219370000000  0.5219870000000  0.4790100000000 1.0
C      1  0.4350920000000  0.5219360000000  0.5535440000000 1.0
C      1  0.6544130000000  0.5584730000000  0.5867450000000 1.0
C      1  0.5583010000000  0.5653720000000  0.4507860000000 1.0
C      1  0.4981810000000  0.5457250000000  0.5244680000000 1.0
C      1  0.5026230000000  0.5197780000000  0.5662080000000 1.0
C      1  0.4862790000000  0.3696820000000  0.4822740000000 1.0
C      1  0.5354750000000  0.5206980000000  0.4468240000000 1.0
C      1  0.5066790000000  0.5409470000000  0.5505770000000 1.0
C      1  0.4985300000000  0.5316510000000  0.6209850000000 1.0
C      1  0.4586280000000  0.4039730000000  0.4535290000000 1.0
C      1  0.4228470000000  0.4762440000000  0.5560260000000 1.0
C      1  0.5477890000000  0.3919720000000  0.5333180000000 1.0
C      1  0.6194130000000  0.5411500000000  0.5492820000000 1.0
C      1  0.4360580000000  0.4716120000000  0.4596240000000 1.0
C      1  0.4922720000000  0.5152750000000  0.4130660000000 1.0
C      1  0.5304640000000  0.5930910000000  0.4782550000000 1.0
C      1  0.4680420000000  0.5190460000000  0.4954260000000 1.0
C      1  0.5009610000000  0.3625840000000  0.5046270000000 1.0
C      1  0.4909060000000  0.5221710000000  0.5110730000000 1.0
C      1  0.5385420000000  0.5552210000000  0.4107040000000 1.0
C      1  0.6092330000000  0.4429680000000  0.4026310000000 1.0
C      1  0.5191740000000  0.5508660000000  0.3903640000000 1.0
C      1  0.4327920000000  0.4078350000000  0.4417690000000 1.0
C      1  0.4216540000000  0.4511130000000  0.4726490000000 1.0
C      1  0.5972240000000  0.4318300000000  0.4539620000000 1.0
C      1  0.4437040000000  0.5014230000000  0.4269260000000 1.0
C      1  0.4382020000000  0.5924080000000  0.4659830000000 1.0
C      1  0.5057920000000  0.4793180000000  0.6158790000000 1.0
C      1  0.4790230000000  0.5729420000000  0.4411710000000 1.0
C      1  0.6374970000000  0.5503080000000  0.5686790000000 1.0
C      1  0.5508260000000  0.4737760000000  0.5571230000000 1.0
C      1  0.5594450000000  0.5904360000000  0.4883940000000 1.0
C      1  0.3940010000000  0.5209460000000  0.4878000000000 1.0
C      1  0.4842710000000  0.4676100000000  0.4147420000000 1.0
C      1  0.4225780000000  0.5523070000000  0.4434030000000 1.0
C      1  0.4338640000000  0.4929930000000  0.6205970000000 1.0
C      1  0.4838430000000  0.4418470000000  0.5532370000000 1.0
C      1  0.5840360000000  0.5790110000000  0.5305540000000 1.0
C      1  0.6238690000000  0.4744510000000  0.5117170000000 1.0
C      1  0.4151050000000  0.4216360000000  0.5162040000000 1.0
C      1  0.5454670000000  0.4159820000000  0.5209140000000 1.0
C      1  0.5521850000000  0.4919410000000  0.3906780000000 1.0
C      1  0.6301910000000  0.4214970000000  0.4874000000000 1.0
C      1  0.4803430000000  0.4667610000000  0.5383310000000 1.0
C      1  0.3740130000000  0.5003610000000  0.5349670000000 1.0
C      1  0.6139860000000  0.4403540000000  0.4756010000000 1.0
C      1  0.5487300000000  0.6145040000000  0.5287100000000 1.0
C      1  0.5064780000000  0.5199240000000  0.4376350000000 1.0
C      1  0.4731620000000  0.4414280000000  0.4202420000000 1.0
C      1  0.5974440000000  0.5603760000000  0.4782460000000 1.0
C      1  0.5488980000000  0.5430440000000  0.4914800000000 1.0
C      1  0.4841990000000  0.4002350000000  0.5256340000000 1.0
C      1  0.5354300000000  0.6314440000000  0.5103330000000 1.0
C      1  0.6224470000000  0.4897820000000  0.5558720000000 1.0
C      1  0.4309260000000  0.4827400000000  0.5266340000000 1.0
C      1  0.4560180000000  0.4669700000000  0.5232070000000 1.0
C      1  0.3893790000000  0.4573340000000  0.5105580000000 1.0
C      1  0.3509610000000  0.5376860000000  0.4597120000000 1.0
C      1  0.5492230000000  0.5291320000000  0.4204110000000 1.0
C      1  0.6034590000000  0.4398260000000  0.4278550000000 1.0
C      1  0.4466950000000  0.6048610000000  0.4899790000000 1.0
C      1  0.5765900000000  0.4122270000000  0.4573370000000 1.0
C      1  0.4842660000000  0.5710690000000  0.4145400000000 1.0
C      1  0.4291810000000  0.4767910000000  0.4323730000000 1.0
C      1  0.3888550000000  0.5042330000000  0.5102520000000 1.0
C      1  0.4784970000000  0.4194580000000  0.4385820000000 1.0
C      1  0.4935630000000  0.4043330000000  0.5813740000000 1.0
C      1  0.5766020000000  0.5772980000000  0.4692650000000 1.0
C      1  0.5138380000000  0.4676290000000  0.4134830000000 1.0
C      1  0.5200040000000  0.4034150000000  0.5707010000000 1.0
C      1  0.4348920000000  0.5128850000000  0.5267110000000 1.0
C      1  0.5219790000000  0.4316760000000  0.5227560000000 1.0
C      1  0.5655850000000  0.5092800000000  0.4083960000000 1.0
C      1  0.5998730000000  0.5595130000000  0.5400330000000 1.0
C      1  0.4803630000000  0.4297260000000  0.5796160000000 1.0
C      1  0.5039340000000  0.4762040000000  0.5231720000000 1.0
C      1  0.4914950000000  0.5560460000000  0.6082340000000 1.0
C      1  0.3544130000000  0.4749650000000  0.5726090000000 1.0
C      1  0.4920590000000  0.4954570000000  0.5753950000000 1.0
C      1  0.5002340000000  0.5312390000000  0.3911180000000 1.0
C      1  0.4716280000000  0.5606400000000  0.5879930000000 1.0
C      1  0.4912270000000  0.5574200000000  0.4621880000000 1.0
C      1  0.4346750000000  0.4993170000000  0.5733070000000 1.0
C      1  0.3985180000000  0.4399820000000  0.5320770000000 1.0
C      1  0.5200380000000  0.6198920000000  0.4904120000000 1.0
C      1  0.6032980000000  0.4953070000000  0.4433180000000 1.0
C      1  0.4696760000000  0.5773770000000  0.5664760000000 1.0
C      1  0.5290110000000  0.4575040000000  0.4357230000000 1.0
C      1  0.5812380000000  0.3898410000000  0.4724480000000 1.0
C      1  0.6134850000000  0.5140930000000  0.4884540000000 1.0
C      1  0.4633170000000  0.4804000000000  0.4666680000000 1.0
C      1  0.5323200000000  0.4598500000000  0.5741360000000 1.0
C      1  0.3083600000000  0.5505220000000  0.4317040000000 1.0
C      1  0.4052750000000  0.4806190000000  0.5093260000000 1.0
C      1  0.5004430000000  0.6156570000000  0.4500560000000 1.0
C      1  0.4152170000000  0.4303290000000  0.4884620000000 1.0
C      1  0.4591380000000  0.4500700000000  0.5012120000000 1.0
C      1  0.5892310000000  0.5020970000000  0.4217010000000 1.0
C      1  0.4975250000000  0.5698760000000  0.5103390000000 1.0
C      1  0.6222020000000  0.5144260000000  0.5403190000000 1.0
C      1  0.4932750000000  0.6209810000000  0.4791500000000 1.0
C      1  0.4193680000000  0.5025090000000  0.5991580000000 1.0
C      1  0.5123340000000  0.4767970000000  0.5872390000000 1.0
C      1  0.5329420000000  0.4708080000000  0.4608390000000 1.0
C      1  0.4209080000000  0.4268430000000  0.4262350000000 1.0
C      1  0.3729380000000  0.5320140000000  0.4733790000000 1.0
C      1  0.3747480000000  0.4785660000000  0.5545880000000 1.0
C      1  0.5072120000000  0.5708420000000  0.4834900000000 1.0
C      1  0.5344210000000  0.6098050000000  0.5520530000000 1.0
C      1  0.5451380000000  0.5435420000000  0.4637860000000 1.0
C      1  0.4798600000000  0.4661370000000  0.6187400000000 1.0
C      1  0.6158740000000  0.4671100000000  0.4847730000000 1.0
C      1  0.5277840000000  0.4286710000000  0.4398580000000 1.0
C      1  0.5294740000000  0.4776180000000  0.3923010000000 1.0
C      1  0.4846570000000  0.5934730000000  0.5209510000000 1.0
C      1  0.5021400000000  0.3777540000000  0.5290890000000 1.0
C      1  0.3904160000000  0.5851270000000  0.4611000000000 1.0
C      1  0.4296850000000  0.5253050000000  0.4499100000000 1.0
C      1  0.4734770000000  0.6101980000000  0.4987860000000 1.0
C      1  0.4964910000000  0.4240690000000  0.5339250000000 1.0
C      1  0.4160810000000  0.5765070000000  0.4576570000000 1.0
C      1  0.4198810000000  0.4532810000000  0.4195180000000 1.0
C      1  0.5209040000000  0.4565150000000  0.5105400000000 1.0
C      1  0.5103540000000  0.6031990000000  0.5646180000000 1.0
C      1  0.4610150000000  0.3987950000000  0.5083090000000 1.0
C      1  0.6108750000000  0.4918460000000  0.4698970000000 1.0
C      1  0.5517280000000  0.4151520000000  0.4444130000000 1.0
C      1  0.4763650000000  0.4418470000000  0.6047280000000 1.0
C      1  0.5122000000000  0.5982540000000  0.5924790000000 1.0
C      1  0.5655950000000  0.5949450000000  0.5162710000000 1.0
C      1  0.4734330000000  0.5077250000000  0.4700960000000 1.0
C      1  0.4589460000000  0.5909350000000  0.4475280000000 1.0
C      1  0.4639260000000  0.4936090000000  0.5839550000000 1.0
C      1  0.6235730000000  0.4672990000000  0.5395820000000 1.0
C      1  0.5703080000000  0.5287480000000  0.5034660000000 1.0
C      1  0.5083850000000  0.5787240000000  0.6106240000000 1.0
C      1  0.4662330000000  0.3908980000000  0.4797580000000 1.0
C      1  0.5371330000000  0.4976210000000  0.4677030000000 1.0
C      1  0.5248340000000  0.5977870000000  0.4468050000000 1.0
C      1  0.6242680000000  0.5046290000000  0.5130050000000 1.0
C      1  0.4358670000000  0.4033960000000  0.5205920000000 1.0
C      1  0.4977650000000  0.4429530000000  0.4732140000000 1.0
END
