TITL C-627106-156-458 1.76657555862014e-08 125000 -94.1843287463502 0 0 17 (C1) n - 1
REM
REM in /home/nfs/bkarasulu/CARBON/AIRSS/Generating-Clusters/LCBOP/Only-C1/SD-CG/FIRE-CG
REM
REM
REM
REM
REM
REM ./C.cell (11c1c37f851c82e70ff6c80c92926a4b)
REM AIRSS Version 0.9.1 bugfix July 2018 build 013d7b7c2542+ Fri, 06 Jul 2018 19:26:36 +0100
REM compiler GCC version 9.2.1 20190827 (Red Hat 9.2.1-1)
REM options -cpp -mtune=generic -march=x86-64 -g -O0 -fpre-include=/usr/include/finclude/math-vector-fortran.h
REM seed -177717411 -453060277 -1593076412 2023204589 372171840 -460989757 -2142593552 -691888884 1664640172 1382579366 -137034554 -2045187505 197504616 -1371534663 -354526276 869421388 -1274531302 -1149660876 515654544 -1721743642 1010941106 -1265502073 -1679502519 -514381009 200769237 1745260548 803721770 922801277 -1839402608 563970012 1071017915 1535908928 1641469617
REM
CELL 1.54180   50.00000   50.00000   50.00000   90.00000   90.00000   90.00000
LATT -1
SFAC C  
C      1  0.5539740000000  0.5096690000000  0.4565870000000 1.0
C      1  0.5248250000000  0.5233410000000  0.5150130000000 1.0
C      1  0.5278050000000  0.4751140000000  0.5128220000000 1.0
C      1  0.5742860000000  0.5182280000000  0.4426830000000 1.0
C      1  0.5031740000000  0.4636690000000  0.5127730000000 1.0
C      1  0.4810030000000  0.4750200000000  0.4990030000000 1.0
C      1  0.5332420000000  0.5002090000000  0.5005610000000 1.0
C      1  0.5325120000000  0.5009080000000  0.4718770000000 1.0
C      1  0.4137080000000  0.4707730000000  0.5255340000000 1.0
C      1  0.4860550000000  0.4809590000000  0.4717310000000 1.0
C      1  0.4372230000000  0.4804760000000  0.5198720000000 1.0
C      1  0.4973780000000  0.5246240000000  0.5212190000000 1.0
C      1  0.4515340000000  0.5346720000000  0.5313190000000 1.0
C      1  0.4703290000000  0.5168990000000  0.5222920000000 1.0
C      1  0.5423660000000  0.5428880000000  0.5223740000000 1.0
C      1  0.4624460000000  0.4906930000000  0.5137350000000 1.0
C      1  0.5081390000000  0.4918580000000  0.4606040000000 1.0
END
