TITL C-627113-6568-2088 2.99812464359128e-08 125000 -400.164703498731 0 0 68 (C1) n - 1
REM
REM in /home/nfs/bkarasulu/CARBON/AIRSS/Generating-Clusters/LCBOP/Only-C1/SD-CG/FIRE-CG
REM
REM
REM
REM
REM
REM ./C.cell (11c1c37f851c82e70ff6c80c92926a4b)
REM AIRSS Version 0.9.1 bugfix July 2018 build 013d7b7c2542+ Fri, 06 Jul 2018 19:26:36 +0100
REM compiler GCC version 9.2.1 20190827 (Red Hat 9.2.1-1)
REM options -cpp -mtune=generic -march=x86-64 -g -O0 -fpre-include=/usr/include/finclude/math-vector-fortran.h
REM seed 2021067205 1975747766 -1341078168 -2032196638 61359834 -37192521 1740671890 618364573 1558757883 -1989686121 -1461717806 -396168990 -224070291 -62554453 -1324578758 607879942 975309527 1862461711 418562793 -1564571696 558364396 1814758310 -1174801367 221351164 -1754039995 -201137203 -1874564649 -1847586795 619209656 1199853635 -1723000109 -1050714644 -1957198092
REM
CELL 1.54180   50.00000   50.00000   50.00000   90.00000   90.00000   90.00000
LATT -1
SFAC C  
C      1  0.5220880000000  0.5345000000000  0.4594780000000 1.0
C      1  0.5196330000000  0.5761120000000  0.4460030000000 1.0
C      1  0.4122410000000  0.5223360000000  0.5015460000000 1.0
C      1  0.4787940000000  0.5951120000000  0.4636330000000 1.0
C      1  0.5270530000000  0.5629230000000  0.4743710000000 1.0
C      1  0.5691470000000  0.5378260000000  0.4915240000000 1.0
C      1  0.5413110000000  0.4598670000000  0.5712970000000 1.0
C      1  0.4685900000000  0.5601570000000  0.5005370000000 1.0
C      1  0.4204140000000  0.5459180000000  0.5125220000000 1.0
C      1  0.5227540000000  0.4338370000000  0.5267130000000 1.0
C      1  0.4436060000000  0.5325870000000  0.4427860000000 1.0
C      1  0.5039750000000  0.5172800000000  0.5281020000000 1.0
C      1  0.4847290000000  0.5143230000000  0.4145800000000 1.0
C      1  0.4887930000000  0.4427300000000  0.4947960000000 1.0
C      1  0.4488800000000  0.5589140000000  0.4525290000000 1.0
C      1  0.4214790000000  0.5031310000000  0.4823780000000 1.0
C      1  0.5252430000000  0.4873280000000  0.4253250000000 1.0
C      1  0.5737500000000  0.5203180000000  0.4715070000000 1.0
C      1  0.4885240000000  0.5009510000000  0.4686250000000 1.0
C      1  0.5645510000000  0.4951380000000  0.4620150000000 1.0
C      1  0.5370090000000  0.4585570000000  0.4741100000000 1.0
C      1  0.4607490000000  0.4391610000000  0.5008470000000 1.0
C      1  0.5503570000000  0.5451600000000  0.5119260000000 1.0
C      1  0.4411710000000  0.5638040000000  0.5143820000000 1.0
C      1  0.4661190000000  0.5148750000000  0.4774060000000 1.0
C      1  0.4643850000000  0.5725520000000  0.4725900000000 1.0
C      1  0.4254710000000  0.4748960000000  0.4865180000000 1.0
C      1  0.5214210000000  0.5622780000000  0.5605500000000 1.0
C      1  0.5590660000000  0.4882380000000  0.5111600000000 1.0
C      1  0.4628670000000  0.4621910000000  0.4575060000000 1.0
C      1  0.5266150000000  0.4395240000000  0.4595030000000 1.0
C      1  0.5611340000000  0.4744050000000  0.4839700000000 1.0
C      1  0.5423120000000  0.5450090000000  0.5593050000000 1.0
C      1  0.4737550000000  0.4289700000000  0.5793910000000 1.0
C      1  0.5207770000000  0.4399190000000  0.5748430000000 1.0
C      1  0.5103500000000  0.4257720000000  0.5508550000000 1.0
C      1  0.5527760000000  0.4814330000000  0.5587270000000 1.0
C      1  0.5019590000000  0.4813470000000  0.5571120000000 1.0
C      1  0.4964590000000  0.4896470000000  0.4252180000000 1.0
C      1  0.4465680000000  0.4560240000000  0.4813570000000 1.0
C      1  0.5044790000000  0.4528480000000  0.5156520000000 1.0
C      1  0.4490240000000  0.4257060000000  0.5913850000000 1.0
C      1  0.4759430000000  0.5150320000000  0.5225550000000 1.0
C      1  0.5128960000000  0.5134710000000  0.4757990000000 1.0
C      1  0.5099020000000  0.5070920000000  0.5538140000000 1.0
C      1  0.4898190000000  0.4702000000000  0.5339250000000 1.0
C      1  0.4798730000000  0.4234560000000  0.5511560000000 1.0
C      1  0.4978500000000  0.4384010000000  0.5925210000000 1.0
C      1  0.5182510000000  0.5130910000000  0.5037240000000 1.0
C      1  0.5800930000000  0.4516360000000  0.4903320000000 1.0
C      1  0.4577610000000  0.5220670000000  0.4202960000000 1.0
C      1  0.5009140000000  0.5669400000000  0.5149440000000 1.0
C      1  0.5030200000000  0.5711480000000  0.5427410000000 1.0
C      1  0.5488820000000  0.4913830000000  0.4381710000000 1.0
C      1  0.4616100000000  0.4271390000000  0.5281680000000 1.0
C      1  0.4689510000000  0.5301970000000  0.5003390000000 1.0
C      1  0.5715590000000  0.4312180000000  0.5061660000000 1.0
C      1  0.4408340000000  0.5143990000000  0.4646670000000 1.0
C      1  0.4684010000000  0.4876130000000  0.5256390000000 1.0
C      1  0.5266580000000  0.5607660000000  0.5022180000000 1.0
C      1  0.5009650000000  0.5966120000000  0.4483610000000 1.0
C      1  0.5165440000000  0.5487830000000  0.4330680000000 1.0
C      1  0.5564890000000  0.5004510000000  0.5369540000000 1.0
C      1  0.5029930000000  0.5359690000000  0.4125750000000 1.0
C      1  0.5523510000000  0.5300860000000  0.5372000000000 1.0
C      1  0.5482320000000  0.4260340000000  0.5184930000000 1.0
C      1  0.4833310000000  0.4804870000000  0.4493930000000 1.0
C      1  0.4255020000000  0.4227250000000  0.6022020000000 1.0
END
