TITL C-627110-360-1608 5.50325209646464e-07 125000 -1000.2818500502 0 0 164 (C1) n - 1
REM
REM in /home/nfs/bkarasulu/CARBON/AIRSS/Generating-Clusters/LCBOP/Only-C1/SD-CG/FIRE-CG
REM
REM
REM
REM
REM
REM ./C.cell (11c1c37f851c82e70ff6c80c92926a4b)
REM AIRSS Version 0.9.1 bugfix July 2018 build 013d7b7c2542+ Fri, 06 Jul 2018 19:26:36 +0100
REM compiler GCC version 9.2.1 20190827 (Red Hat 9.2.1-1)
REM options -cpp -mtune=generic -march=x86-64 -g -O0 -fpre-include=/usr/include/finclude/math-vector-fortran.h
REM seed -1030152770 -1031703907 -26303313 1845350357 -791630976 -755323203 -1029179692 -644605955 -2147316407 -109256359 -1824456420 1189904782 1470752667 1382821342 -343337160 -1282297319 -624244972 1423826357 490779284 566548473 -713852923 -1707654384 -979059730 -1454972716 570833941 -1688484629 -1900547726 2012505548 -2006602961 1741008534 -1496508273 -754115522 190367012
REM
CELL 1.54180   50.00000   50.00000   50.00000   90.00000   90.00000   90.00000
LATT -1
SFAC C  
C      1  0.4116560000000  0.4798340000000  0.5755850000000 1.0
C      1  0.5044280000000  0.3955580000000  0.4323610000000 1.0
C      1  0.6104750000000  0.5068680000000  0.5590310000000 1.0
C      1  0.4418580000000  0.5198930000000  0.4692840000000 1.0
C      1  0.5233550000000  0.4785810000000  0.4783960000000 1.0
C      1  0.6104020000000  0.4939120000000  0.4752880000000 1.0
C      1  0.4707730000000  0.6144430000000  0.4436120000000 1.0
C      1  0.4650900000000  0.6318710000000  0.5199180000000 1.0
C      1  0.4493590000000  0.4186850000000  0.4771470000000 1.0
C      1  0.4693250000000  0.4827570000000  0.4975220000000 1.0
C      1  0.4508360000000  0.5400980000000  0.4876850000000 1.0
C      1  0.4364340000000  0.5126110000000  0.5308790000000 1.0
C      1  0.4886520000000  0.4337520000000  0.5366130000000 1.0
C      1  0.6110870000000  0.5582400000000  0.5445450000000 1.0
C      1  0.5217910000000  0.5488980000000  0.3907030000000 1.0
C      1  0.4797930000000  0.5725190000000  0.4764460000000 1.0
C      1  0.5112360000000  0.4297100000000  0.4652430000000 1.0
C      1  0.5351010000000  0.6140180000000  0.5261540000000 1.0
C      1  0.4514700000000  0.5681680000000  0.4812170000000 1.0
C      1  0.5269390000000  0.6143350000000  0.5514640000000 1.0
C      1  0.4563230000000  0.4913880000000  0.6146840000000 1.0
C      1  0.4810550000000  0.5842060000000  0.6064330000000 1.0
C      1  0.3878290000000  0.5473370000000  0.4717350000000 1.0
C      1  0.5238270000000  0.4543250000000  0.5795050000000 1.0
C      1  0.4188130000000  0.4645920000000  0.5213680000000 1.0
C      1  0.4558530000000  0.5832150000000  0.5540440000000 1.0
C      1  0.4925150000000  0.5791980000000  0.4163500000000 1.0
C      1  0.5756970000000  0.5709910000000  0.5109640000000 1.0
C      1  0.5108050000000  0.5557130000000  0.5127310000000 1.0
C      1  0.5201420000000  0.4594100000000  0.5008920000000 1.0
C      1  0.4675560000000  0.4210520000000  0.6160400000000 1.0
C      1  0.4992170000000  0.5987760000000  0.5935500000000 1.0
C      1  0.4668120000000  0.5630940000000  0.4104810000000 1.0
C      1  0.5420330000000  0.3968790000000  0.4623920000000 1.0
C      1  0.4237650000000  0.5382520000000  0.5982700000000 1.0
C      1  0.4610810000000  0.5097820000000  0.4467720000000 1.0
C      1  0.4358880000000  0.4645440000000  0.5790090000000 1.0
C      1  0.4944720000000  0.4195810000000  0.5129530000000 1.0
C      1  0.4762000000000  0.6120400000000  0.5071360000000 1.0
C      1  0.5359660000000  0.5637880000000  0.4324720000000 1.0
C      1  0.4031140000000  0.5472820000000  0.6147140000000 1.0
C      1  0.4739900000000  0.3808230000000  0.5802370000000 1.0
C      1  0.5737170000000  0.4370430000000  0.5920290000000 1.0
C      1  0.4755400000000  0.3979670000000  0.5111550000000 1.0
C      1  0.4499070000000  0.5176820000000  0.4198230000000 1.0
C      1  0.4495880000000  0.4071490000000  0.5029630000000 1.0
C      1  0.4897450000000  0.4624770000000  0.4398130000000 1.0
C      1  0.3940500000000  0.5244380000000  0.4877410000000 1.0
C      1  0.5629800000000  0.4294150000000  0.4334600000000 1.0
C      1  0.5204590000000  0.4714220000000  0.5544200000000 1.0
C      1  0.4470950000000  0.4513040000000  0.5560940000000 1.0
C      1  0.4634570000000  0.5648190000000  0.6112090000000 1.0
C      1  0.4700920000000  0.5318450000000  0.5073490000000 1.0
C      1  0.4352800000000  0.5306860000000  0.5507280000000 1.0
C      1  0.5147930000000  0.6088170000000  0.5744690000000 1.0
C      1  0.4409140000000  0.5720010000000  0.4198730000000 1.0
C      1  0.5651270000000  0.5823720000000  0.4654170000000 1.0
C      1  0.5150700000000  0.4759960000000  0.4509380000000 1.0
C      1  0.4704130000000  0.3982010000000  0.6000200000000 1.0
C      1  0.4123110000000  0.4464360000000  0.4333120000000 1.0
C      1  0.4393730000000  0.4458490000000  0.4735080000000 1.0
C      1  0.4898940000000  0.5149840000000  0.5902460000000 1.0
C      1  0.5094880000000  0.5074200000000  0.5169710000000 1.0
C      1  0.5907740000000  0.5048130000000  0.5791580000000 1.0
C      1  0.5662940000000  0.5095590000000  0.5889270000000 1.0
C      1  0.4779600000000  0.3765720000000  0.5290660000000 1.0
C      1  0.5784710000000  0.4961910000000  0.4416170000000 1.0
C      1  0.5848000000000  0.5619050000000  0.4599530000000 1.0
C      1  0.3667080000000  0.4528750000000  0.4872030000000 1.0
C      1  0.5239660000000  0.4126510000000  0.4452170000000 1.0
C      1  0.5612500000000  0.4954570000000  0.3968250000000 1.0
C      1  0.6201080000000  0.4841220000000  0.5452130000000 1.0
C      1  0.4568560000000  0.4691350000000  0.4756260000000 1.0
C      1  0.4849980000000  0.5198540000000  0.3881180000000 1.0
C      1  0.4323440000000  0.4177030000000  0.5226250000000 1.0
C      1  0.4746960000000  0.4541510000000  0.5495530000000 1.0
C      1  0.5353720000000  0.5285520000000  0.4727440000000 1.0
C      1  0.5907530000000  0.5127570000000  0.4636750000000 1.0
C      1  0.4949430000000  0.6012010000000  0.4361110000000 1.0
C      1  0.4894870000000  0.5512790000000  0.4603000000000 1.0
C      1  0.4729510000000  0.4454090000000  0.3964800000000 1.0
C      1  0.4465380000000  0.4424060000000  0.3956960000000 1.0
C      1  0.4880990000000  0.5256980000000  0.4466210000000 1.0
C      1  0.6053300000000  0.4434960000000  0.4820720000000 1.0
C      1  0.4238720000000  0.4434490000000  0.4095750000000 1.0
C      1  0.5729010000000  0.5428280000000  0.5036030000000 1.0
C      1  0.5384720000000  0.6043710000000  0.5000640000000 1.0
C      1  0.5617110000000  0.5889220000000  0.4933090000000 1.0
C      1  0.5135200000000  0.5195480000000  0.4296020000000 1.0
C      1  0.5416100000000  0.5008720000000  0.4817290000000 1.0
C      1  0.4181460000000  0.5271360000000  0.5728950000000 1.0
C      1  0.4744170000000  0.4465420000000  0.6052590000000 1.0
C      1  0.4845170000000  0.5518580000000  0.5221530000000 1.0
C      1  0.5260890000000  0.4677240000000  0.3772650000000 1.0
C      1  0.5847110000000  0.4223440000000  0.4800540000000 1.0
C      1  0.4827250000000  0.5060430000000  0.5073660000000 1.0
C      1  0.5335050000000  0.4989020000000  0.5566540000000 1.0
C      1  0.3984560000000  0.5600590000000  0.4501830000000 1.0
C      1  0.5669350000000  0.4137830000000  0.4585640000000 1.0
C      1  0.4136430000000  0.4483170000000  0.4612400000000 1.0
C      1  0.5949150000000  0.5749630000000  0.5310500000000 1.0
C      1  0.3837600000000  0.5555250000000  0.6300940000000 1.0
C      1  0.4537640000000  0.4664740000000  0.6016270000000 1.0
C      1  0.3902110000000  0.4509520000000  0.4760950000000 1.0
C      1  0.5990230000000  0.4320380000000  0.5957880000000 1.0
C      1  0.5101210000000  0.5250610000000  0.3999830000000 1.0
C      1  0.5223600000000  0.4515130000000  0.4010090000000 1.0
C      1  0.3851590000000  0.5178630000000  0.5146280000000 1.0
C      1  0.4299230000000  0.4427670000000  0.5350050000000 1.0
C      1  0.4898400000000  0.3870700000000  0.4566420000000 1.0
C      1  0.5592790000000  0.4548550000000  0.5276860000000 1.0
C      1  0.5190750000000  0.5689920000000  0.4097770000000 1.0
C      1  0.4858310000000  0.4355060000000  0.4533000000000 1.0
C      1  0.5311940000000  0.4602540000000  0.5279390000000 1.0
C      1  0.4269790000000  0.4900060000000  0.5203680000000 1.0
C      1  0.5430430000000  0.5861930000000  0.4475630000000 1.0
C      1  0.4842150000000  0.5015280000000  0.5661720000000 1.0
C      1  0.5331060000000  0.5380010000000  0.4449290000000 1.0
C      1  0.6174010000000  0.5331470000000  0.5513800000000 1.0
C      1  0.4171300000000  0.5674680000000  0.4320530000000 1.0
C      1  0.5453550000000  0.4399030000000  0.4148890000000 1.0
C      1  0.5925560000000  0.4707430000000  0.4415220000000 1.0
C      1  0.4158350000000  0.5102700000000  0.4754970000000 1.0
C      1  0.4371070000000  0.5910460000000  0.4730900000000 1.0
C      1  0.5390310000000  0.5101920000000  0.5819850000000 1.0
C      1  0.4007750000000  0.5047750000000  0.5659910000000 1.0
C      1  0.6073020000000  0.4662920000000  0.4654320000000 1.0
C      1  0.4666210000000  0.4798290000000  0.4502120000000 1.0
C      1  0.4585260000000  0.4189640000000  0.6417820000000 1.0
C      1  0.5198830000000  0.6024330000000  0.4532310000000 1.0
C      1  0.4707940000000  0.4110350000000  0.4600140000000 1.0
C      1  0.5681350000000  0.4282870000000  0.5267840000000 1.0
C      1  0.4769520000000  0.3718880000000  0.5553370000000 1.0
C      1  0.5258710000000  0.5468740000000  0.4923330000000 1.0
C      1  0.5646470000000  0.4925950000000  0.4959860000000 1.0
C      1  0.5224970000000  0.5358430000000  0.6196820000000 1.0
C      1  0.4475820000000  0.6105860000000  0.4571340000000 1.0
C      1  0.4647690000000  0.5344590000000  0.4018560000000 1.0
C      1  0.5766900000000  0.4135080000000  0.5059840000000 1.0
C      1  0.6187360000000  0.4472680000000  0.5072360000000 1.0
C      1  0.4726550000000  0.5674280000000  0.5418430000000 1.0
C      1  0.4906210000000  0.4769210000000  0.5545870000000 1.0
C      1  0.5171600000000  0.5206150000000  0.5975000000000 1.0
C      1  0.5562850000000  0.5276620000000  0.5219700000000 1.0
C      1  0.3860330000000  0.5093190000000  0.5409020000000 1.0
C      1  0.5560200000000  0.4962900000000  0.4245800000000 1.0
C      1  0.4907010000000  0.5957640000000  0.4896090000000 1.0
C      1  0.4854060000000  0.4987780000000  0.3695450000000 1.0
C      1  0.4510060000000  0.5400350000000  0.6071260000000 1.0
C      1  0.5162690000000  0.6046470000000  0.4815490000000 1.0
C      1  0.5192770000000  0.3795050000000  0.4748620000000 1.0
C      1  0.4953690000000  0.4534980000000  0.4114040000000 1.0
C      1  0.5503000000000  0.4820550000000  0.3763000000000 1.0
C      1  0.6232610000000  0.4634650000000  0.5283100000000 1.0
C      1  0.5010880000000  0.4506910000000  0.5963690000000 1.0
C      1  0.5333930000000  0.5131680000000  0.5319590000000 1.0
C      1  0.4670090000000  0.5165070000000  0.6073990000000 1.0
C      1  0.5487130000000  0.4436010000000  0.5862180000000 1.0
C      1  0.5835070000000  0.5376970000000  0.4761730000000 1.0
C      1  0.5732570000000  0.4756820000000  0.5149580000000 1.0
C      1  0.5032570000000  0.4790400000000  0.3647690000000 1.0
C      1  0.5105940000000  0.4335070000000  0.4932980000000 1.0
C      1  0.5284680000000  0.4938920000000  0.4331200000000 1.0
C      1  0.6041240000000  0.5654440000000  0.4409090000000 1.0
END
