TITL C-627111-6168-327 -10.6126860632352 125000 -1178.24449497903 0 0 190 (C1) n - 1
REM
REM in /home/nfs/bkarasulu/CARBON/AIRSS/Generating-Clusters/LCBOP/Only-C1/SD-CG/FIRE-CG
REM
REM
REM
REM
REM
REM ./C.cell (11c1c37f851c82e70ff6c80c92926a4b)
REM AIRSS Version 0.9.1 bugfix July 2018 build 013d7b7c2542+ Fri, 06 Jul 2018 19:26:36 +0100
REM compiler GCC version 9.2.1 20190827 (Red Hat 9.2.1-1)
REM options -cpp -mtune=generic -march=x86-64 -g -O0 -fpre-include=/usr/include/finclude/math-vector-fortran.h
REM seed -1776856058 -426554106 950209235 1928384659 -1779579022 238902364 -734543607 -680256711 503541034 89675664 -759321936 1836220491 728792077 -1601307905 -1357820219 -2105620561 -2100080958 574124804 1597999189 1158406178 -1336685394 -1686967986 2016565098 -91733772 -130704998 1194220071 -260062186 1700437160 -1125693137 -165248152 -343503536 -686330715 2014456353
REM
CELL 1.54180   50.00000   50.00000   50.00000   90.00000   90.00000   90.00000
LATT -1
SFAC C  
C      1  0.5416910000000  0.5159220000000  0.6259900000000 1.0
C      1  0.5183730000000  0.5601210000000  0.5208020000000 1.0
C      1  0.5453140000000  0.5674540000000  0.3650540000000 1.0
C      1  0.4631060000000  0.6145430000000  0.5187170000000 1.0
C      1  0.5255940000000  0.4320670000000  0.4872560000000 1.0
C      1  0.4916350000000  0.5071550000000  0.5197150000000 1.0
C      1  0.3877590000000  0.5274440000000  0.5587900000000 1.0
C      1  0.4029850000000  0.5406670000000  0.4717890000000 1.0
C      1  0.5309770000000  0.3846240000000  0.4123670000000 1.0
C      1  0.5509570000000  0.5021430000000  0.4337080000000 1.0
C      1  0.5080420000000  0.5116160000000  0.5430470000000 1.0
C      1  0.4932050000000  0.6218370000000  0.4642480000000 1.0
C      1  0.5821980000000  0.4225420000000  0.4610210000000 1.0
C      1  0.4321880000000  0.4826650000000  0.5726280000000 1.0
C      1  0.5140720000000  0.5803050000000  0.5640800000000 1.0
C      1  0.4456440000000  0.4498020000000  0.4206990000000 1.0
C      1  0.5951340000000  0.4842310000000  0.4299170000000 1.0
C      1  0.4338270000000  0.5273840000000  0.5840380000000 1.0
C      1  0.4050710000000  0.5502130000000  0.5509400000000 1.0
C      1  0.6259880000000  0.5853290000000  0.4865110000000 1.0
C      1  0.4441180000000  0.4036440000000  0.5406550000000 1.0
C      1  0.4151470000000  0.4809750000000  0.3971130000000 1.0
C      1  0.4301160000000  0.4326750000000  0.4631670000000 1.0
C      1  0.3820510000000  0.5262220000000  0.4013010000000 1.0
C      1  0.4806390000000  0.5142740000000  0.3652780000000 1.0
C      1  0.6035970000000  0.4484200000000  0.5285910000000 1.0
C      1  0.5751800000000  0.4236490000000  0.4886410000000 1.0
C      1  0.4254580000000  0.4241890000000  0.5550020000000 1.0
C      1  0.6170210000000  0.5351280000000  0.4842460000000 1.0
C      1  0.5904210000000  0.4777920000000  0.6076940000000 1.0
C      1  0.5950850000000  0.4352490000000  0.5052070000000 1.0
C      1  0.6191950000000  0.4726360000000  0.5293990000000 1.0
C      1  0.5398650000000  0.6061640000000  0.4904270000000 1.0
C      1  0.5115480000000  0.4305160000000  0.5844370000000 1.0
C      1  0.5703910000000  0.6125800000000  0.5269090000000 1.0
C      1  0.5068750000000  0.6070410000000  0.5689190000000 1.0
C      1  0.5781770000000  0.5412570000000  0.5862000000000 1.0
C      1  0.5708520000000  0.5331740000000  0.4725670000000 1.0
C      1  0.3881180000000  0.4980030000000  0.5530050000000 1.0
C      1  0.6222720000000  0.5190930000000  0.5079270000000 1.0
C      1  0.5482400000000  0.4188410000000  0.4989380000000 1.0
C      1  0.3937490000000  0.3938850000000  0.4956240000000 1.0
C      1  0.5609840000000  0.4860820000000  0.5682730000000 1.0
C      1  0.5986260000000  0.5652730000000  0.4487180000000 1.0
C      1  0.4239740000000  0.4826660000000  0.5030890000000 1.0
C      1  0.6007150000000  0.4620040000000  0.6256910000000 1.0
C      1  0.4044690000000  0.4686950000000  0.4426290000000 1.0
C      1  0.5759430000000  0.5037080000000  0.4187780000000 1.0
C      1  0.4780680000000  0.5978350000000  0.4576950000000 1.0
C      1  0.5634660000000  0.4933550000000  0.5209840000000 1.0
C      1  0.5671090000000  0.5587820000000  0.5207310000000 1.0
C      1  0.4882560000000  0.5210650000000  0.5866950000000 1.0
C      1  0.4930770000000  0.4936190000000  0.4598470000000 1.0
C      1  0.5450680000000  0.4136980000000  0.5503650000000 1.0
C      1  0.3624580000000  0.4643130000000  0.4715510000000 1.0
C      1  0.4845440000000  0.5728500000000  0.4150300000000 1.0
C      1  0.5127250000000  0.6128660000000  0.4918430000000 1.0
C      1  0.5048080000000  0.5580400000000  0.4957480000000 1.0
C      1  0.4233580000000  0.4594320000000  0.5196100000000 1.0
C      1  0.4777350000000  0.5602570000000  0.5028400000000 1.0
C      1  0.5349880000000  0.5745290000000  0.3421860000000 1.0
C      1  0.5374450000000  0.5694810000000  0.5761600000000 1.0
C      1  0.4983270000000  0.3991740000000  0.5466590000000 1.0
C      1  0.5569870000000  0.5043990000000  0.5463940000000 1.0
C      1  0.4047400000000  0.5717620000000  0.5308340000000 1.0
C      1  0.5697520000000  0.5543840000000  0.4115190000000 1.0
C      1  0.4864990000000  0.6223540000000  0.5605200000000 1.0
C      1  0.4731200000000  0.4434100000000  0.4265960000000 1.0
C      1  0.3483040000000  0.4673720000000  0.4942210000000 1.0
C      1  0.5295830000000  0.4523490000000  0.5886240000000 1.0
C      1  0.5094180000000  0.4548670000000  0.4901740000000 1.0
C      1  0.5207530000000  0.3571560000000  0.4883460000000 1.0
C      1  0.4260060000000  0.5358420000000  0.4873810000000 1.0
C      1  0.5703250000000  0.5864390000000  0.5324290000000 1.0
C      1  0.5498160000000  0.5213220000000  0.4563570000000 1.0
C      1  0.4721430000000  0.4890570000000  0.3654830000000 1.0
C      1  0.4032510000000  0.4884490000000  0.4224210000000 1.0
C      1  0.6146520000000  0.5638420000000  0.4742580000000 1.0
C      1  0.4735490000000  0.5590970000000  0.5316610000000 1.0
C      1  0.5912180000000  0.5461550000000  0.5309340000000 1.0
C      1  0.4060820000000  0.4759480000000  0.5615380000000 1.0
C      1  0.5629680000000  0.4346890000000  0.5584180000000 1.0
C      1  0.4601130000000  0.3806430000000  0.4993300000000 1.0
C      1  0.3914830000000  0.5149140000000  0.4256920000000 1.0
C      1  0.4468130000000  0.5725350000000  0.5767040000000 1.0
C      1  0.5421890000000  0.4766440000000  0.5139420000000 1.0
C      1  0.5899610000000  0.4388640000000  0.5516050000000 1.0
C      1  0.5467750000000  0.4595770000000  0.5649830000000 1.0
C      1  0.4964260000000  0.5022080000000  0.5675390000000 1.0
C      1  0.5937470000000  0.5182210000000  0.5792260000000 1.0
C      1  0.4491810000000  0.5460590000000  0.5373530000000 1.0
C      1  0.5324000000000  0.4630160000000  0.5375340000000 1.0
C      1  0.5827590000000  0.4318050000000  0.4340300000000 1.0
C      1  0.4828760000000  0.5589210000000  0.3924780000000 1.0
C      1  0.3887020000000  0.4723880000000  0.4658260000000 1.0
C      1  0.5561370000000  0.4655910000000  0.4610540000000 1.0
C      1  0.4831060000000  0.3876110000000  0.4844760000000 1.0
C      1  0.5067020000000  0.3791890000000  0.4982150000000 1.0
C      1  0.5141760000000  0.5496450000000  0.4710500000000 1.0
C      1  0.4365520000000  0.4227270000000  0.5825270000000 1.0
C      1  0.4480530000000  0.4868260000000  0.5491230000000 1.0
C      1  0.4574450000000  0.4698680000000  0.3767310000000 1.0
C      1  0.5522740000000  0.5516650000000  0.5926720000000 1.0
C      1  0.6031670000000  0.5374040000000  0.4381470000000 1.0
C      1  0.6123300000000  0.5286810000000  0.5333370000000 1.0
C      1  0.5250080000000  0.4790760000000  0.4921190000000 1.0
C      1  0.5952480000000  0.4560940000000  0.4254930000000 1.0
C      1  0.5366250000000  0.4111760000000  0.4189320000000 1.0
C      1  0.5572400000000  0.6225160000000  0.5056690000000 1.0
C      1  0.5352400000000  0.5222310000000  0.5430800000000 1.0
C      1  0.4258840000000  0.4494740000000  0.4414790000000 1.0
C      1  0.4486490000000  0.4954560000000  0.4933870000000 1.0
C      1  0.4508230000000  0.5993570000000  0.4717300000000 1.0
C      1  0.4766540000000  0.6416530000000  0.4795500000000 1.0
C      1  0.4835700000000  0.4902810000000  0.4340400000000 1.0
C      1  0.4918880000000  0.4659400000000  0.4232890000000 1.0
C      1  0.4755260000000  0.4905650000000  0.5024040000000 1.0
C      1  0.4434060000000  0.4418150000000  0.5102180000000 1.0
C      1  0.5308530000000  0.3427130000000  0.4408500000000 1.0
C      1  0.3667190000000  0.5350220000000  0.5755180000000 1.0
C      1  0.5987210000000  0.5210760000000  0.4642700000000 1.0
C      1  0.4832100000000  0.5388560000000  0.3750640000000 1.0
C      1  0.5560120000000  0.5604400000000  0.3882530000000 1.0
C      1  0.4456390000000  0.4675460000000  0.5935530000000 1.0
C      1  0.3921220000000  0.5302900000000  0.4493680000000 1.0
C      1  0.4191160000000  0.4022390000000  0.4997810000000 1.0
C      1  0.5406240000000  0.4049860000000  0.5230520000000 1.0
C      1  0.5142370000000  0.5000530000000  0.4763750000000 1.0
C      1  0.4393770000000  0.3902520000000  0.5157920000000 1.0
C      1  0.5856380000000  0.5305090000000  0.4161570000000 1.0
C      1  0.4386930000000  0.4647130000000  0.3969610000000 1.0
C      1  0.5001890000000  0.5668940000000  0.5427240000000 1.0
C      1  0.5972290000000  0.4917910000000  0.4584760000000 1.0
C      1  0.4333840000000  0.5488960000000  0.5630770000000 1.0
C      1  0.4745490000000  0.4618220000000  0.5897170000000 1.0
C      1  0.4629080000000  0.6138910000000  0.5473850000000 1.0
C      1  0.4314820000000  0.4438410000000  0.6005570000000 1.0
C      1  0.5314170000000  0.4672410000000  0.6122690000000 1.0
C      1  0.5365970000000  0.4897570000000  0.6255140000000 1.0
C      1  0.4042830000000  0.4942360000000  0.3745360000000 1.0
C      1  0.6221130000000  0.4867210000000  0.5542060000000 1.0
C      1  0.5712730000000  0.5717890000000  0.4353570000000 1.0
C      1  0.4464110000000  0.5974370000000  0.5633610000000 1.0
C      1  0.4321540000000  0.4255260000000  0.4896990000000 1.0
C      1  0.5282720000000  0.3426150000000  0.4673710000000 1.0
C      1  0.4829850000000  0.6304990000000  0.5055610000000 1.0
C      1  0.5653380000000  0.5583680000000  0.4898420000000 1.0
C      1  0.3656690000000  0.4890420000000  0.5378590000000 1.0
C      1  0.5253050000000  0.5241800000000  0.4690410000000 1.0
C      1  0.5196670000000  0.4578670000000  0.4278360000000 1.0
C      1  0.5787930000000  0.4754140000000  0.4726850000000 1.0
C      1  0.5137620000000  0.3923110000000  0.5222810000000 1.0
C      1  0.5411620000000  0.5462480000000  0.5290100000000 1.0
C      1  0.5810160000000  0.4934380000000  0.5867770000000 1.0
C      1  0.4871460000000  0.5455480000000  0.6008620000000 1.0
C      1  0.4449720000000  0.5980960000000  0.5017380000000 1.0
C      1  0.5100130000000  0.5507210000000  0.6165680000000 1.0
C      1  0.3510100000000  0.4774600000000  0.5188500000000 1.0
C      1  0.4510020000000  0.6463520000000  0.4684640000000 1.0
C      1  0.5523320000000  0.5825840000000  0.4781680000000 1.0
C      1  0.5189380000000  0.4116540000000  0.5643180000000 1.0
C      1  0.6131360000000  0.5137470000000  0.5579090000000 1.0
C      1  0.4669810000000  0.5646310000000  0.5953230000000 1.0
C      1  0.4932270000000  0.5801110000000  0.4405810000000 1.0
C      1  0.5182920000000  0.5691150000000  0.4501160000000 1.0
C      1  0.5305570000000  0.3590880000000  0.4198320000000 1.0
C      1  0.4371640000000  0.6234250000000  0.4621560000000 1.0
C      1  0.3884180000000  0.5161670000000  0.3768750000000 1.0
C      1  0.5467390000000  0.5782560000000  0.4499540000000 1.0
C      1  0.4433590000000  0.5169210000000  0.4752700000000 1.0
C      1  0.4705820000000  0.4021260000000  0.5546050000000 1.0
C      1  0.4014690000000  0.4858140000000  0.4868920000000 1.0
C      1  0.5366060000000  0.5408500000000  0.6143000000000 1.0
C      1  0.5171980000000  0.4284330000000  0.4301450000000 1.0
C      1  0.4208440000000  0.5869370000000  0.5141030000000 1.0
C      1  0.6254410000000  0.4903590000000  0.5075730000000 1.0
C      1  0.4696540000000  0.4685380000000  0.5443210000000 1.0
C      1  0.4862800000000  0.4754880000000  0.5672910000000 1.0
C      1  0.4838290000000  0.4030350000000  0.4600250000000 1.0
C      1  0.4648570000000  0.4150440000000  0.5805940000000 1.0
C      1  0.4838130000000  0.4342030000000  0.5905080000000 1.0
C      1  0.4626200000000  0.5076620000000  0.4281620000000 1.0
C      1  0.4843360000000  0.4622940000000  0.5005100000000 1.0
C      1  0.4331040000000  0.5397550000000  0.5143420000000 1.0
C      1  0.4127500000000  0.4509940000000  0.5453640000000 1.0
C      1  0.4482430000000  0.5187310000000  0.4478750000000 1.0
C      1  0.4894200000000  0.4212770000000  0.4385550000000 1.0
C      1  0.5405100000000  0.4747170000000  0.4385570000000 1.0
C      1  0.4687120000000  0.4504700000000  0.5208680000000 1.0
C      1  0.5632100000000  0.4201570000000  0.4175320000000 1.0
END
