TITL C-627109-622-870 2.33333714936132 125000 -151.7562291904 0 0 26 (C1) n - 1
REM
REM in /home/nfs/bkarasulu/CARBON/AIRSS/Generating-Clusters/LCBOP/Only-C1/SD-CG/FIRE-CG
REM
REM
REM
REM
REM
REM ./C.cell (11c1c37f851c82e70ff6c80c92926a4b)
REM AIRSS Version 0.9.1 bugfix July 2018 build 013d7b7c2542+ Fri, 06 Jul 2018 19:26:36 +0100
REM compiler GCC version 9.2.1 20190827 (Red Hat 9.2.1-1)
REM options -cpp -mtune=generic -march=x86-64 -g -O0 -fpre-include=/usr/include/finclude/math-vector-fortran.h
REM seed -1737675976 -740608157 -970699804 -1791261544 2116934050 -1826090151 -716142415 -516215858 1844874992 -1105754122 1754261321 515085891 1085156230 436161315 -2102129661 1301815315 173940256 -193107817 -431707019 -295698611 -684089964 -584635643 1471811549 -58806949 -237471018 213942482 912183164 1240146396 220598257 439244466 793602855 693721230 -846760602
REM
CELL 1.54180   50.00000   50.00000   50.00000   90.00000   90.00000   90.00000
LATT -1
SFAC C  
C      1  0.4766120000000  0.4697070000000  0.4634230000000 1.0
C      1  0.5245540000000  0.4920830000000  0.4734920000000 1.0
C      1  0.5730900000000  0.4675110000000  0.4743670000000 1.0
C      1  0.4225290000000  0.4995440000000  0.4987070000000 1.0
C      1  0.5035150000000  0.5203550000000  0.5277900000000 1.0
C      1  0.4299390000000  0.4798790000000  0.4822410000000 1.0
C      1  0.4338790000000  0.5213480000000  0.5122170000000 1.0
C      1  0.4597340000000  0.5185930000000  0.5528130000000 1.0
C      1  0.4859950000000  0.5174940000000  0.5478590000000 1.0
C      1  0.5492260000000  0.4789930000000  0.4739180000000 1.0
C      1  0.3893700000000  0.5308280000000  0.5695940000000 1.0
C      1  0.4115610000000  0.5267280000000  0.5557130000000 1.0
C      1  0.4521750000000  0.5372000000000  0.4977500000000 1.0
C      1  0.3675110000000  0.5348460000000  0.5832200000000 1.0
C      1  0.5577660000000  0.5557270000000  0.4633930000000 1.0
C      1  0.5025170000000  0.5268040000000  0.5003840000000 1.0
C      1  0.4345710000000  0.5222480000000  0.5407250000000 1.0
C      1  0.6449400000000  0.4334980000000  0.4756980000000 1.0
C      1  0.6209850000000  0.4448370000000  0.4752550000000 1.0
C      1  0.4506620000000  0.4693320000000  0.4692370000000 1.0
C      1  0.5227490000000  0.5191720000000  0.4821590000000 1.0
C      1  0.4782240000000  0.5380880000000  0.4916420000000 1.0
C      1  0.6685010000000  0.4223460000000  0.4761350000000 1.0
C      1  0.5016370000000  0.4784440000000  0.4649960000000 1.0
C      1  0.5970370000000  0.4561730000000  0.4748110000000 1.0
C      1  0.5407210000000  0.5382240000000  0.4724600000000 1.0
END
