TITL C-627111-6168-2120 24278.5498448476 125000 -1112.15412996336 0 0 181 (C1) n - 1
REM
REM in /home/nfs/bkarasulu/CARBON/AIRSS/Generating-Clusters/LCBOP/Only-C1/SD-CG/FIRE-CG
REM
REM
REM
REM
REM
REM ./C.cell (11c1c37f851c82e70ff6c80c92926a4b)
REM AIRSS Version 0.9.1 bugfix July 2018 build 013d7b7c2542+ Fri, 06 Jul 2018 19:26:36 +0100
REM compiler GCC version 9.2.1 20190827 (Red Hat 9.2.1-1)
REM options -cpp -mtune=generic -march=x86-64 -g -O0 -fpre-include=/usr/include/finclude/math-vector-fortran.h
REM seed 562381941 -1897129381 -337737806 -1259668202 -1177436103 1804292821 552855453 687965908 1445658836 -310659904 774932636 1107499682 -1034754362 -224807732 -1814150844 -827089147 1547292294 -1496611971 -244794411 1546558661 2041240894 -1093094966 2072078976 442844448 681035288 233675436 -2129321140 -1329250210 -525978663 87527454 -841934658 -638213747 -1017765785
REM
CELL 1.54180   50.00000   50.00000   50.00000   90.00000   90.00000   90.00000
LATT -1
SFAC C  
C      1  0.5442810000000  0.3909210000000  0.4666530000000 1.0
C      1  0.4772220000000  0.6542210000000  0.6379750000000 1.0
C      1  0.4090130000000  0.4026880000000  0.4760350000000 1.0
C      1  0.4213150000000  0.5526870000000  0.5470520000000 1.0
C      1  0.4961540000000  0.5887910000000  0.6650100000000 1.0
C      1  0.5251850000000  0.4155680000000  0.4274070000000 1.0
C      1  0.4506740000000  0.5434210000000  0.5457830000000 1.0
C      1  0.5700490000000  0.4831890000000  0.4025800000000 1.0
C      1  0.4568330000000  0.6043010000000  0.5875440000000 1.0
C      1  0.4691160000000  0.5329420000000  0.4150340000000 1.0
C      1  0.5252270000000  0.5081200000000  0.6127200000000 1.0
C      1  0.5240420000000  0.4390780000000  0.4952860000000 1.0
C      1  0.4006990000000  0.4995740000000  0.4592540000000 1.0
C      1  0.5441120000000  0.3809880000000  0.5413980000000 1.0
C      1  0.4562460000000  0.4356800000000  0.3964420000000 1.0
C      1  0.4579450000000  0.4476410000000  0.5415530000000 1.0
C      1  0.5160440000000  0.4047730000000  0.5787390000000 1.0
C      1  0.5705090000000  0.4477630000000  0.5711090000000 1.0
C      1  0.5519270000000  0.4529020000000  0.4614360000000 1.0
C      1  0.3991770000000  0.5341440000000  0.5449440000000 1.0
C      1  0.3831510000000  0.5004590000000  0.4813330000000 1.0
C      1  0.5420250000000  0.4822640000000  0.5377230000000 1.0
C      1  0.4785110000000  0.4194190000000  0.4510190000000 1.0
C      1  0.4290270000000  0.5048290000000  0.5036990000000 1.0
C      1  0.4973610000000  0.4612120000000  0.3960810000000 1.0
C      1  0.4652870000000  0.5249630000000  0.5293630000000 1.0
C      1  0.4105880000000  0.4797920000000  0.4427050000000 1.0
C      1  0.4170750000000  0.4373200000000  0.4493070000000 1.0
C      1  0.4392760000000  0.5700300000000  0.4443220000000 1.0
C      1  0.6114610000000  0.5021710000000  0.4961230000000 1.0
C      1  0.4528530000000  0.6091300000000  0.4701160000000 1.0
C      1  0.6099220000000  0.4594030000000  0.4652610000000 1.0
C      1  0.5746220000000  0.5360240000000  0.5003320000000 1.0
C      1  0.4465490000000  0.5460020000000  0.4283240000000 1.0
C      1  0.5423490000000  0.4919890000000  0.4050000000000 1.0
C      1  0.4135970000000  0.4957570000000  0.3911700000000 1.0
C      1  0.5705650000000  0.4861530000000  0.6018420000000 1.0
C      1  0.6019850000000  0.4880320000000  0.5641900000000 1.0
C      1  0.4711220000000  0.4152820000000  0.5910910000000 1.0
C      1  0.4314110000000  0.5264050000000  0.4843090000000 1.0
C      1  0.5678370000000  0.6010220000000  0.5380390000000 1.0
C      1  0.5070120000000  0.5716100000000  0.4814860000000 1.0
C      1  0.6205340000000  0.4725120000000  0.5493620000000 1.0
C      1  0.5826080000000  0.4323180000000  0.5494350000000 1.0
C      1  0.4659000000000  0.6183930000000  0.6080520000000 1.0
C      1  0.4942230000000  0.5659690000000  0.5526290000000 1.0
C      1  0.5340110000000  0.6101480000000  0.4443400000000 1.0
C      1  0.4823610000000  0.4383320000000  0.4064810000000 1.0
C      1  0.5006370000000  0.6301550000000  0.4715040000000 1.0
C      1  0.3940070000000  0.5520910000000  0.4789850000000 1.0
C      1  0.5879470000000  0.5032770000000  0.4113080000000 1.0
C      1  0.5181880000000  0.4341280000000  0.5862360000000 1.0
C      1  0.5170200000000  0.5347550000000  0.4000140000000 1.0
C      1  0.4907000000000  0.5176580000000  0.4893210000000 1.0
C      1  0.4798930000000  0.5095700000000  0.4639830000000 1.0
C      1  0.4495370000000  0.5841530000000  0.5701170000000 1.0
C      1  0.4127870000000  0.5661830000000  0.4618350000000 1.0
C      1  0.4206400000000  0.4991110000000  0.5307830000000 1.0
C      1  0.5083190000000  0.4533450000000  0.4754960000000 1.0
C      1  0.5370900000000  0.5294340000000  0.5482160000000 1.0
C      1  0.4195770000000  0.5207510000000  0.4584770000000 1.0
C      1  0.4616270000000  0.4140790000000  0.5050940000000 1.0
C      1  0.4352620000000  0.4489210000000  0.3865620000000 1.0
C      1  0.4672290000000  0.4969830000000  0.5234810000000 1.0
C      1  0.4328150000000  0.3937420000000  0.4656110000000 1.0
C      1  0.6023710000000  0.5164270000000  0.5591840000000 1.0
C      1  0.5893220000000  0.5773510000000  0.4804960000000 1.0
C      1  0.3827560000000  0.5275000000000  0.4949500000000 1.0
C      1  0.5235680000000  0.4502430000000  0.3914650000000 1.0
C      1  0.4579870000000  0.5926730000000  0.4473240000000 1.0
C      1  0.4680210000000  0.4426140000000  0.4958940000000 1.0
C      1  0.5490780000000  0.4072210000000  0.4440990000000 1.0
C      1  0.5045350000000  0.5681440000000  0.6785430000000 1.0
C      1  0.5004310000000  0.5793850000000  0.5072660000000 1.0
C      1  0.4594980000000  0.4670000000000  0.4496820000000 1.0
C      1  0.4800440000000  0.4445660000000  0.4684170000000 1.0
C      1  0.5228840000000  0.5587150000000  0.4632350000000 1.0
C      1  0.5353470000000  0.3896150000000  0.5651910000000 1.0
C      1  0.4508680000000  0.4869560000000  0.5021420000000 1.0
C      1  0.4941430000000  0.4903130000000  0.3994450000000 1.0
C      1  0.5107180000000  0.4952720000000  0.5005580000000 1.0
C      1  0.4738570000000  0.5355720000000  0.5037030000000 1.0
C      1  0.5020610000000  0.6248720000000  0.4994790000000 1.0
C      1  0.5974290000000  0.4331050000000  0.4702750000000 1.0
C      1  0.4950200000000  0.4206410000000  0.4272700000000 1.0
C      1  0.5790130000000  0.4253040000000  0.4420680000000 1.0
C      1  0.4424050000000  0.4172690000000  0.5898040000000 1.0
C      1  0.5020550000000  0.5087230000000  0.5994320000000 1.0
C      1  0.4872150000000  0.6088640000000  0.6502010000000 1.0
C      1  0.5057400000000  0.6135200000000  0.4487290000000 1.0
C      1  0.4209030000000  0.4712150000000  0.3836910000000 1.0
C      1  0.5639800000000  0.4639600000000  0.4823180000000 1.0
C      1  0.5999610000000  0.4714930000000  0.4415590000000 1.0
C      1  0.4316930000000  0.4609240000000  0.4447820000000 1.0
C      1  0.6104630000000  0.5339680000000  0.5379150000000 1.0
C      1  0.5815310000000  0.6563930000000  0.4720780000000 1.0
C      1  0.5431420000000  0.3789800000000  0.5147400000000 1.0
C      1  0.5477620000000  0.5171490000000  0.4594490000000 1.0
C      1  0.5405050000000  0.4917480000000  0.5113970000000 1.0
C      1  0.4746070000000  0.5036270000000  0.4169040000000 1.0
C      1  0.4912380000000  0.5487860000000  0.4069920000000 1.0
C      1  0.5935560000000  0.5000540000000  0.4392950000000 1.0
C      1  0.5292410000000  0.4963830000000  0.4541190000000 1.0
C      1  0.4458420000000  0.5738620000000  0.4999330000000 1.0
C      1  0.4228890000000  0.5779260000000  0.5611860000000 1.0
C      1  0.4446770000000  0.4603360000000  0.4976700000000 1.0
C      1  0.5251130000000  0.4370100000000  0.5238120000000 1.0
C      1  0.5020540000000  0.3825750000000  0.4902210000000 1.0
C      1  0.4707380000000  0.4924230000000  0.4433080000000 1.0
C      1  0.5503210000000  0.4991140000000  0.6133290000000 1.0
C      1  0.4968830000000  0.5716740000000  0.4243990000000 1.0
C      1  0.4501430000000  0.5470610000000  0.4921850000000 1.0
C      1  0.5646260000000  0.5555250000000  0.4157350000000 1.0
C      1  0.5381630000000  0.5388280000000  0.4745920000000 1.0
C      1  0.3948160000000  0.4510090000000  0.4916170000000 1.0
C      1  0.5480830000000  0.6158590000000  0.5270120000000 1.0
C      1  0.5638810000000  0.4877380000000  0.4966900000000 1.0
C      1  0.3816130000000  0.5223590000000  0.5240450000000 1.0
C      1  0.4564290000000  0.4014530000000  0.4545460000000 1.0
C      1  0.5364290000000  0.4549440000000  0.5429460000000 1.0
C      1  0.5912320000000  0.5589180000000  0.5018430000000 1.0
C      1  0.5466470000000  0.5414840000000  0.5017950000000 1.0
C      1  0.5767720000000  0.5119520000000  0.4591040000000 1.0
C      1  0.5374330000000  0.5493100000000  0.4154800000000 1.0
C      1  0.3794930000000  0.4856000000000  0.5276730000000 1.0
C      1  0.3997980000000  0.4297030000000  0.4712160000000 1.0
C      1  0.4855110000000  0.5944760000000  0.4373150000000 1.0
C      1  0.5220120000000  0.5631220000000  0.4357750000000 1.0
C      1  0.5346370000000  0.4826840000000  0.4308310000000 1.0
C      1  0.5105750000000  0.5653700000000  0.5295330000000 1.0
C      1  0.5325230000000  0.5469910000000  0.5263480000000 1.0
C      1  0.5832710000000  0.5094670000000  0.4892110000000 1.0
C      1  0.4064380000000  0.4208250000000  0.5514670000000 1.0
C      1  0.4250640000000  0.5279370000000  0.4315280000000 1.0
C      1  0.5869520000000  0.5822240000000  0.5425110000000 1.0
C      1  0.4881960000000  0.4395480000000  0.5984950000000 1.0
C      1  0.4779970000000  0.3923430000000  0.4967440000000 1.0
C      1  0.4680350000000  0.4792990000000  0.5806290000000 1.0
C      1  0.4399030000000  0.4579880000000  0.6086770000000 1.0
C      1  0.4140400000000  0.5159280000000  0.4086550000000 1.0
C      1  0.4049240000000  0.4457280000000  0.5665940000000 1.0
C      1  0.4548630000000  0.4163700000000  0.5353250000000 1.0
C      1  0.4118860000000  0.5098180000000  0.5541960000000 1.0
C      1  0.4879890000000  0.4013320000000  0.5722890000000 1.0
C      1  0.4994810000000  0.4288240000000  0.5326030000000 1.0
C      1  0.5838550000000  0.4552000000000  0.4235580000000 1.0
C      1  0.3809030000000  0.4766270000000  0.4988170000000 1.0
C      1  0.4929940000000  0.4824630000000  0.5261070000000 1.0
C      1  0.3894120000000  0.4674130000000  0.5512480000000 1.0
C      1  0.4767880000000  0.6275110000000  0.6321450000000 1.0
C      1  0.6226410000000  0.5189210000000  0.5161860000000 1.0
C      1  0.5823610000000  0.4732450000000  0.5797570000000 1.0
C      1  0.4278300000000  0.4072720000000  0.5419150000000 1.0
C      1  0.4670170000000  0.5640250000000  0.5591450000000 1.0
C      1  0.5418710000000  0.4565240000000  0.4356500000000 1.0
C      1  0.5147560000000  0.4810510000000  0.4739210000000 1.0
C      1  0.4826640000000  0.4084630000000  0.5456880000000 1.0
C      1  0.4890300000000  0.4970410000000  0.5774610000000 1.0
C      1  0.6203160000000  0.4777830000000  0.4844150000000 1.0
C      1  0.5773070000000  0.5861530000000  0.4561710000000 1.0
C      1  0.4246630000000  0.4413130000000  0.5901660000000 1.0
C      1  0.5997120000000  0.5603120000000  0.5295620000000 1.0
C      1  0.4531360000000  0.4683120000000  0.5594460000000 1.0
C      1  0.5793050000000  0.5700800000000  0.4329680000000 1.0
C      1  0.5719080000000  0.6340820000000  0.4626580000000 1.0
C      1  0.5028960000000  0.4946460000000  0.5532550000000 1.0
C      1  0.5992950000000  0.4342790000000  0.5259640000000 1.0
C      1  0.6207230000000  0.4521470000000  0.5317190000000 1.0
C      1  0.4687260000000  0.4614470000000  0.6028780000000 1.0
C      1  0.4825950000000  0.4527390000000  0.5232110000000 1.0
C      1  0.5189550000000  0.5063720000000  0.3953800000000 1.0
C      1  0.5607820000000  0.6097570000000  0.4542740000000 1.0
C      1  0.5303280000000  0.3828970000000  0.4899050000000 1.0
C      1  0.5301440000000  0.5028010000000  0.5532460000000 1.0
C      1  0.4581770000000  0.5991120000000  0.4961360000000 1.0
C      1  0.5265970000000  0.6263120000000  0.5142690000000 1.0
C      1  0.4198540000000  0.4508040000000  0.5053030000000 1.0
C      1  0.5956100000000  0.4260610000000  0.4983570000000 1.0
C      1  0.5358850000000  0.4390360000000  0.4141680000000 1.0
C      1  0.5408060000000  0.4465260000000  0.5706180000000 1.0
C      1  0.4845740000000  0.6031250000000  0.5070680000000 1.0
END
