TITL C-627112-676-1404 0.00142627328928934 125000 -1033.32260195936 0 0 168 (C1) n - 1
REM
REM in /home/nfs/bkarasulu/CARBON/AIRSS/Generating-Clusters/LCBOP/Only-C1/SD-CG/FIRE-CG
REM
REM
REM
REM
REM
REM ./C.cell (11c1c37f851c82e70ff6c80c92926a4b)
REM AIRSS Version 0.9.1 bugfix July 2018 build 013d7b7c2542+ Fri, 06 Jul 2018 19:26:36 +0100
REM compiler GCC version 9.2.1 20190827 (Red Hat 9.2.1-1)
REM options -cpp -mtune=generic -march=x86-64 -g -O0 -fpre-include=/usr/include/finclude/math-vector-fortran.h
REM seed -772828351 -971079796 611984267 277149381 1030538391 -683088778 -73601557 377509818 -1497929416 439233339 1884315105 518013714 761805718 637275101 -2139456306 -889573724 559709119 267767855 400749503 -722565539 1158714935 1442416584 -634273632 1274480506 2085449112 555796912 1165406000 -48059270 949081466 1845629609 2065438878 193162585 2093805086
REM
CELL 1.54180   50.00000   50.00000   50.00000   90.00000   90.00000   90.00000
LATT -1
SFAC C  
C      1  0.4699970000000  0.4009760000000  0.4305000000000 1.0
C      1  0.5423900000000  0.4446680000000  0.5761040000000 1.0
C      1  0.3636820000000  0.5035500000000  0.5213010000000 1.0
C      1  0.5573360000000  0.3899230000000  0.5055650000000 1.0
C      1  0.3717520000000  0.5152250000000  0.4562520000000 1.0
C      1  0.5478050000000  0.5385920000000  0.3987910000000 1.0
C      1  0.4456760000000  0.5598500000000  0.4513170000000 1.0
C      1  0.4851360000000  0.5640480000000  0.4309840000000 1.0
C      1  0.5054310000000  0.4949280000000  0.3778140000000 1.0
C      1  0.4666610000000  0.6049590000000  0.5744730000000 1.0
C      1  0.4818970000000  0.5433520000000  0.5585600000000 1.0
C      1  0.4110360000000  0.5508880000000  0.5641940000000 1.0
C      1  0.4413330000000  0.5896480000000  0.5110240000000 1.0
C      1  0.3719440000000  0.5086280000000  0.5960790000000 1.0
C      1  0.3821430000000  0.4365250000000  0.5485270000000 1.0
C      1  0.4959910000000  0.4060230000000  0.5423790000000 1.0
C      1  0.5766150000000  0.5266600000000  0.5397470000000 1.0
C      1  0.5545420000000  0.5546320000000  0.4878090000000 1.0
C      1  0.4691580000000  0.4727840000000  0.4254590000000 1.0
C      1  0.5424130000000  0.5846580000000  0.5587680000000 1.0
C      1  0.4596820000000  0.5163840000000  0.3984800000000 1.0
C      1  0.5871380000000  0.4495900000000  0.4105850000000 1.0
C      1  0.6300110000000  0.4531430000000  0.5546780000000 1.0
C      1  0.5185430000000  0.4219960000000  0.3814570000000 1.0
C      1  0.4432420000000  0.4591880000000  0.5912530000000 1.0
C      1  0.4358490000000  0.5957670000000  0.4829710000000 1.0
C      1  0.4508630000000  0.3835930000000  0.5921310000000 1.0
C      1  0.4756310000000  0.4381140000000  0.4621400000000 1.0
C      1  0.4172600000000  0.4558840000000  0.5797450000000 1.0
C      1  0.5661340000000  0.5156250000000  0.4576900000000 1.0
C      1  0.5583140000000  0.3888550000000  0.4264880000000 1.0
C      1  0.3620680000000  0.4733800000000  0.4854580000000 1.0
C      1  0.4841850000000  0.5132160000000  0.5499730000000 1.0
C      1  0.4478070000000  0.4462800000000  0.6150590000000 1.0
C      1  0.5147680000000  0.5286860000000  0.4327220000000 1.0
C      1  0.5508060000000  0.5591030000000  0.5711470000000 1.0
C      1  0.4600510000000  0.5163580000000  0.4447380000000 1.0
C      1  0.6002290000000  0.4523030000000  0.4357060000000 1.0
C      1  0.4831490000000  0.4964570000000  0.5741520000000 1.0
C      1  0.5705690000000  0.5425430000000  0.4665340000000 1.0
C      1  0.5667560000000  0.4041580000000  0.4849840000000 1.0
C      1  0.4633510000000  0.4770170000000  0.5806370000000 1.0
C      1  0.4936810000000  0.4654330000000  0.4137270000000 1.0
C      1  0.4747700000000  0.4665680000000  0.5082840000000 1.0
C      1  0.4951850000000  0.3930550000000  0.4188630000000 1.0
C      1  0.5683940000000  0.4536810000000  0.4831250000000 1.0
C      1  0.6163260000000  0.5721900000000  0.4984960000000 1.0
C      1  0.6124560000000  0.5701020000000  0.4719710000000 1.0
C      1  0.5058730000000  0.4023510000000  0.3946720000000 1.0
C      1  0.4047370000000  0.5631980000000  0.4996400000000 1.0
C      1  0.3720890000000  0.5273830000000  0.5122920000000 1.0
C      1  0.5989730000000  0.5315950000000  0.5215400000000 1.0
C      1  0.5123510000000  0.6032710000000  0.4526750000000 1.0
C      1  0.4051590000000  0.4738680000000  0.5396940000000 1.0
C      1  0.5933820000000  0.5569400000000  0.4583510000000 1.0
C      1  0.4643150000000  0.5887940000000  0.5526940000000 1.0
C      1  0.4669060000000  0.4967920000000  0.5096800000000 1.0
C      1  0.5047220000000  0.5548200000000  0.5426230000000 1.0
C      1  0.4423450000000  0.4972280000000  0.5259040000000 1.0
C      1  0.4323810000000  0.5682330000000  0.6274270000000 1.0
C      1  0.6055190000000  0.5122060000000  0.5028060000000 1.0
C      1  0.5827060000000  0.4363760000000  0.5513270000000 1.0
C      1  0.4872190000000  0.5400880000000  0.5888120000000 1.0
C      1  0.4310600000000  0.4516020000000  0.4480360000000 1.0
C      1  0.4588930000000  0.4543090000000  0.4451230000000 1.0
C      1  0.5054900000000  0.4305290000000  0.5844780000000 1.0
C      1  0.5007840000000  0.4672720000000  0.3865700000000 1.0
C      1  0.5930200000000  0.4767930000000  0.4490720000000 1.0
C      1  0.5417220000000  0.5961180000000  0.5114580000000 1.0
C      1  0.4823040000000  0.5118650000000  0.3805530000000 1.0
C      1  0.4101110000000  0.5642220000000  0.6132400000000 1.0
C      1  0.4873270000000  0.6086420000000  0.5126760000000 1.0
C      1  0.4004270000000  0.4341510000000  0.5696080000000 1.0
C      1  0.5124410000000  0.3900260000000  0.4426820000000 1.0
C      1  0.3845530000000  0.5389910000000  0.4645560000000 1.0
C      1  0.5396030000000  0.5388990000000  0.5875700000000 1.0
C      1  0.4738450000000  0.4099200000000  0.4579080000000 1.0
C      1  0.4238190000000  0.5683890000000  0.5202810000000 1.0
C      1  0.5834110000000  0.5728150000000  0.5371790000000 1.0
C      1  0.5589280000000  0.4533150000000  0.5101640000000 1.0
C      1  0.5739720000000  0.5509080000000  0.5558790000000 1.0
C      1  0.5396910000000  0.4935030000000  0.5263660000000 1.0
C      1  0.4762860000000  0.5408650000000  0.4818310000000 1.0
C      1  0.5360220000000  0.5914280000000  0.4615790000000 1.0
C      1  0.5426980000000  0.5418880000000  0.5109640000000 1.0
C      1  0.4209770000000  0.4937010000000  0.4675900000000 1.0
C      1  0.5115440000000  0.3957900000000  0.5211990000000 1.0
C      1  0.6069840000000  0.4427060000000  0.5637730000000 1.0
C      1  0.3857720000000  0.5430180000000  0.4935940000000 1.0
C      1  0.5894570000000  0.4728430000000  0.4770780000000 1.0
C      1  0.4577190000000  0.5607100000000  0.5540300000000 1.0
C      1  0.5462060000000  0.4670920000000  0.3805280000000 1.0
C      1  0.5163030000000  0.5526230000000  0.5172550000000 1.0
C      1  0.5087670000000  0.4508220000000  0.6033060000000 1.0
C      1  0.4699730000000  0.3981340000000  0.5820010000000 1.0
C      1  0.5422360000000  0.4899790000000  0.6002230000000 1.0
C      1  0.5537270000000  0.5120740000000  0.3928280000000 1.0
C      1  0.5664440000000  0.4925990000000  0.6129410000000 1.0
C      1  0.5382080000000  0.4013550000000  0.4400780000000 1.0
C      1  0.4059840000000  0.4796170000000  0.5676810000000 1.0
C      1  0.5786290000000  0.4989290000000  0.4373730000000 1.0
C      1  0.4141920000000  0.4692360000000  0.4590730000000 1.0
C      1  0.5337760000000  0.4674870000000  0.5149050000000 1.0
C      1  0.5690260000000  0.4679440000000  0.3987080000000 1.0
C      1  0.4696120000000  0.5614960000000  0.4064890000000 1.0
C      1  0.6294600000000  0.4721630000000  0.5079080000000 1.0
C      1  0.4307340000000  0.5559680000000  0.5450280000000 1.0
C      1  0.4968410000000  0.3940030000000  0.4675850000000 1.0
C      1  0.6386490000000  0.4635280000000  0.5315220000000 1.0
C      1  0.5021460000000  0.4591570000000  0.5000400000000 1.0
C      1  0.5272710000000  0.5136960000000  0.5943190000000 1.0
C      1  0.4907630000000  0.4121590000000  0.5694620000000 1.0
C      1  0.5071270000000  0.5135920000000  0.4997560000000 1.0
C      1  0.4025390000000  0.5567410000000  0.5887770000000 1.0
C      1  0.4715700000000  0.5460520000000  0.4519100000000 1.0
C      1  0.5524810000000  0.5192110000000  0.5262900000000 1.0
C      1  0.5088260000000  0.5107650000000  0.4514890000000 1.0
C      1  0.4575660000000  0.6102040000000  0.4710250000000 1.0
C      1  0.5023330000000  0.3908440000000  0.4949050000000 1.0
C      1  0.4642280000000  0.5980830000000  0.5259580000000 1.0
C      1  0.5187870000000  0.5999420000000  0.5519740000000 1.0
C      1  0.5623130000000  0.4284500000000  0.4709540000000 1.0
C      1  0.5152680000000  0.4606140000000  0.4308710000000 1.0
C      1  0.4124290000000  0.5779640000000  0.4743110000000 1.0
C      1  0.4783670000000  0.5561970000000  0.6096010000000 1.0
C      1  0.4610710000000  0.5001310000000  0.4220960000000 1.0
C      1  0.4987880000000  0.5134370000000  0.5926150000000 1.0
C      1  0.4254180000000  0.5535280000000  0.4331740000000 1.0
C      1  0.4444130000000  0.5082820000000  0.4672970000000 1.0
C      1  0.5463940000000  0.5824860000000  0.4861370000000 1.0
C      1  0.5394760000000  0.3932240000000  0.5269390000000 1.0
C      1  0.5814600000000  0.4396270000000  0.5233100000000 1.0
C      1  0.6081310000000  0.4854120000000  0.4950710000000 1.0
C      1  0.5331740000000  0.4639390000000  0.5937740000000 1.0
C      1  0.4022230000000  0.5588400000000  0.4509600000000 1.0
C      1  0.4499450000000  0.4535700000000  0.5175150000000 1.0
C      1  0.5586990000000  0.4269100000000  0.5627850000000 1.0
C      1  0.4588150000000  0.5654680000000  0.6251000000000 1.0
C      1  0.5294390000000  0.5447340000000  0.4172490000000 1.0
C      1  0.4600330000000  0.5172230000000  0.4889170000000 1.0
C      1  0.6128570000000  0.4267200000000  0.4803340000000 1.0
C      1  0.4999020000000  0.5421240000000  0.4967400000000 1.0
C      1  0.4910310000000  0.5065630000000  0.5233070000000 1.0
C      1  0.5351800000000  0.4955890000000  0.3776390000000 1.0
C      1  0.6022340000000  0.4291060000000  0.5055280000000 1.0
C      1  0.5702720000000  0.4955380000000  0.4099740000000 1.0
C      1  0.5489170000000  0.4028480000000  0.5517250000000 1.0
C      1  0.5230330000000  0.4495220000000  0.3793880000000 1.0
C      1  0.6120050000000  0.4331660000000  0.4537030000000 1.0
C      1  0.4902300000000  0.5910390000000  0.4390050000000 1.0
C      1  0.4296620000000  0.4720930000000  0.5270870000000 1.0
C      1  0.3658960000000  0.4760940000000  0.5134780000000 1.0
C      1  0.5034200000000  0.6245680000000  0.4697280000000 1.0
C      1  0.3910020000000  0.4981300000000  0.5816990000000 1.0
C      1  0.4811770000000  0.6189970000000  0.4866210000000 1.0
C      1  0.5010910000000  0.4473360000000  0.4736200000000 1.0
C      1  0.3635730000000  0.4909300000000  0.4648240000000 1.0
C      1  0.5215950000000  0.4465070000000  0.4538480000000 1.0
C      1  0.3816470000000  0.4598380000000  0.5309730000000 1.0
C      1  0.5598950000000  0.5894270000000  0.5341820000000 1.0
C      1  0.4654560000000  0.6053850000000  0.4440500000000 1.0
C      1  0.4979220000000  0.4549600000000  0.6277520000000 1.0
C      1  0.5145100000000  0.6045820000000  0.5229300000000 1.0
C      1  0.5476270000000  0.5015860000000  0.4740160000000 1.0
C      1  0.5199410000000  0.5039940000000  0.4763530000000 1.0
C      1  0.4474430000000  0.5430420000000  0.4050340000000 1.0
C      1  0.6029460000000  0.5604590000000  0.5199880000000 1.0
C      1  0.5415840000000  0.4267750000000  0.4524480000000 1.0
END
