TITL C-627106-156-1887 3.01453345990445e-07 125000 -869.324753170012 0 0 143 (C1) n - 1
REM
REM in /home/nfs/bkarasulu/CARBON/AIRSS/Generating-Clusters/LCBOP/Only-C1/SD-CG/FIRE-CG
REM
REM
REM
REM
REM
REM ./C.cell (11c1c37f851c82e70ff6c80c92926a4b)
REM AIRSS Version 0.9.1 bugfix July 2018 build 013d7b7c2542+ Fri, 06 Jul 2018 19:26:36 +0100
REM compiler GCC version 9.2.1 20190827 (Red Hat 9.2.1-1)
REM options -cpp -mtune=generic -march=x86-64 -g -O0 -fpre-include=/usr/include/finclude/math-vector-fortran.h
REM seed -1366389303 -604335955 1433622743 -1081002656 -2024535979 -1929918691 -1722795763 -264343076 653801076 -1094523810 1882629699 -719995736 1849091188 1480433310 -19381660 -2014223997 -1871507139 -1642440602 -448235593 847694505 -194683281 796368272 613949497 774454352 18423495 -2056791183 1985803140 484750592 1448778906 -1093764 -1389962714 2002394936 -172184529
REM
CELL 1.54180   50.00000   50.00000   50.00000   90.00000   90.00000   90.00000
LATT -1
SFAC C  
C      1  0.4312290000000  0.4402390000000  0.5450320000000 1.0
C      1  0.4861580000000  0.4802590000000  0.5535270000000 1.0
C      1  0.4991800000000  0.4234340000000  0.4733490000000 1.0
C      1  0.4801780000000  0.5984690000000  0.5331750000000 1.0
C      1  0.4556790000000  0.3998810000000  0.5571950000000 1.0
C      1  0.3941300000000  0.4966070000000  0.4788970000000 1.0
C      1  0.5371480000000  0.5088330000000  0.3940590000000 1.0
C      1  0.5032650000000  0.4354480000000  0.5910570000000 1.0
C      1  0.4529380000000  0.5128290000000  0.5821850000000 1.0
C      1  0.4425710000000  0.4012140000000  0.4858940000000 1.0
C      1  0.4365600000000  0.3888380000000  0.5108620000000 1.0
C      1  0.5390160000000  0.4950140000000  0.5514290000000 1.0
C      1  0.5338930000000  0.4252250000000  0.5531200000000 1.0
C      1  0.4367630000000  0.5159760000000  0.5214900000000 1.0
C      1  0.4157850000000  0.4831350000000  0.5662350000000 1.0
C      1  0.4081000000000  0.5462870000000  0.4469190000000 1.0
C      1  0.4650010000000  0.4711230000000  0.5703300000000 1.0
C      1  0.5066620000000  0.4208170000000  0.5659970000000 1.0
C      1  0.4644430000000  0.3890450000000  0.4726030000000 1.0
C      1  0.5494400000000  0.4708230000000  0.5560420000000 1.0
C      1  0.4822400000000  0.4863390000000  0.5008960000000 1.0
C      1  0.4207450000000  0.5449260000000  0.4234390000000 1.0
C      1  0.5706710000000  0.5295620000000  0.4454790000000 1.0
C      1  0.5245080000000  0.4819870000000  0.4587100000000 1.0
C      1  0.5270460000000  0.6142410000000  0.4890580000000 1.0
C      1  0.5762390000000  0.4763650000000  0.4110950000000 1.0
C      1  0.5239160000000  0.5411850000000  0.4411890000000 1.0
C      1  0.3936410000000  0.5246920000000  0.4889580000000 1.0
C      1  0.5492060000000  0.5322800000000  0.3871480000000 1.0
C      1  0.4333520000000  0.4902900000000  0.5130680000000 1.0
C      1  0.5212610000000  0.5472350000000  0.4954640000000 1.0
C      1  0.4804380000000  0.4636320000000  0.4420830000000 1.0
C      1  0.5504590000000  0.4448220000000  0.5666390000000 1.0
C      1  0.5926420000000  0.3859920000000  0.3979330000000 1.0
C      1  0.5296710000000  0.5950390000000  0.5100760000000 1.0
C      1  0.4902450000000  0.3967520000000  0.4726120000000 1.0
C      1  0.3977750000000  0.5054350000000  0.5616390000000 1.0
C      1  0.4430760000000  0.5876240000000  0.4892310000000 1.0
C      1  0.5541130000000  0.4960900000000  0.6338570000000 1.0
C      1  0.5025230000000  0.4639350000000  0.5374160000000 1.0
C      1  0.6200400000000  0.4393070000000  0.4396730000000 1.0
C      1  0.4105480000000  0.4747620000000  0.5197930000000 1.0
C      1  0.4530920000000  0.5957820000000  0.5171470000000 1.0
C      1  0.3953110000000  0.5283360000000  0.5441630000000 1.0
C      1  0.4997610000000  0.5517800000000  0.5412690000000 1.0
C      1  0.4266700000000  0.4658320000000  0.4458230000000 1.0
C      1  0.4473770000000  0.6016150000000  0.5645690000000 1.0
C      1  0.5635190000000  0.5262690000000  0.5996610000000 1.0
C      1  0.4169460000000  0.5472760000000  0.5476660000000 1.0
C      1  0.4883000000000  0.4393690000000  0.4529650000000 1.0
C      1  0.5164780000000  0.4524110000000  0.6101900000000 1.0
C      1  0.5113600000000  0.4347920000000  0.4963810000000 1.0
C      1  0.4967430000000  0.5821950000000  0.4741340000000 1.0
C      1  0.5809050000000  0.6097750000000  0.4581220000000 1.0
C      1  0.5204730000000  0.5183460000000  0.4999960000000 1.0
C      1  0.4858480000000  0.5118270000000  0.4389250000000 1.0
C      1  0.5956290000000  0.4082670000000  0.4111260000000 1.0
C      1  0.5372770000000  0.5037720000000  0.4775420000000 1.0
C      1  0.4358700000000  0.4197370000000  0.5643000000000 1.0
C      1  0.5513040000000  0.4833920000000  0.3983430000000 1.0
C      1  0.6069970000000  0.4865950000000  0.4884370000000 1.0
C      1  0.5445100000000  0.5842900000000  0.4396400000000 1.0
C      1  0.5409920000000  0.5214840000000  0.5605860000000 1.0
C      1  0.5402930000000  0.5693390000000  0.5005890000000 1.0
C      1  0.5885600000000  0.5591150000000  0.4886790000000 1.0
C      1  0.5327490000000  0.5243820000000  0.6043490000000 1.0
C      1  0.4654300000000  0.5466850000000  0.5018860000000 1.0
C      1  0.5681720000000  0.5264470000000  0.5708630000000 1.0
C      1  0.4370910000000  0.4290170000000  0.4787600000000 1.0
C      1  0.3858080000000  0.5275010000000  0.5168960000000 1.0
C      1  0.6049450000000  0.5433230000000  0.4741220000000 1.0
C      1  0.5875780000000  0.5200040000000  0.5515810000000 1.0
C      1  0.5971610000000  0.4323670000000  0.4250260000000 1.0
C      1  0.4984600000000  0.5353040000000  0.4537060000000 1.0
C      1  0.4752800000000  0.5959510000000  0.5626610000000 1.0
C      1  0.4646910000000  0.5312340000000  0.3990610000000 1.0
C      1  0.5218320000000  0.5340680000000  0.5791270000000 1.0
C      1  0.4974800000000  0.5064040000000  0.5153980000000 1.0
C      1  0.4820970000000  0.5529430000000  0.5214770000000 1.0
C      1  0.5841170000000  0.4930450000000  0.5037100000000 1.0
C      1  0.5069630000000  0.6073660000000  0.4721350000000 1.0
C      1  0.5002700000000  0.4851230000000  0.4449290000000 1.0
C      1  0.4553870000000  0.5921280000000  0.4627130000000 1.0
C      1  0.4475700000000  0.4494490000000  0.4962760000000 1.0
C      1  0.6180630000000  0.4841200000000  0.4627320000000 1.0
C      1  0.4058600000000  0.5474170000000  0.4751580000000 1.0
C      1  0.4532900000000  0.4747830000000  0.4387280000000 1.0
C      1  0.5447580000000  0.5259620000000  0.4538310000000 1.0
C      1  0.5589260000000  0.4849260000000  0.4925570000000 1.0
C      1  0.4505680000000  0.4394400000000  0.5233210000000 1.0
C      1  0.5639910000000  0.5722440000000  0.4841480000000 1.0
C      1  0.4459410000000  0.3833530000000  0.5357840000000 1.0
C      1  0.4870890000000  0.5171420000000  0.4089030000000 1.0
C      1  0.4819230000000  0.4123610000000  0.5521400000000 1.0
C      1  0.4633590000000  0.5240100000000  0.5578860000000 1.0
C      1  0.5596260000000  0.4404980000000  0.5928860000000 1.0
C      1  0.4405430000000  0.5404900000000  0.4060500000000 1.0
C      1  0.4141800000000  0.4628860000000  0.5454800000000 1.0
C      1  0.5076910000000  0.5976660000000  0.5272500000000 1.0
C      1  0.5756700000000  0.4507950000000  0.4246680000000 1.0
C      1  0.4250100000000  0.4391400000000  0.4554260000000 1.0
C      1  0.4610410000000  0.4853750000000  0.6430150000000 1.0
C      1  0.4845800000000  0.5077560000000  0.5434820000000 1.0
C      1  0.4919050000000  0.5783990000000  0.5781280000000 1.0
C      1  0.5314540000000  0.4400980000000  0.4135430000000 1.0
C      1  0.4419240000000  0.4864330000000  0.5786590000000 1.0
C      1  0.4708080000000  0.5875980000000  0.4400200000000 1.0
C      1  0.4834490000000  0.4827490000000  0.6299650000000 1.0
C      1  0.5222760000000  0.5687700000000  0.4317960000000 1.0
C      1  0.4578660000000  0.5024030000000  0.4463550000000 1.0
C      1  0.4760900000000  0.4282090000000  0.5286140000000 1.0
C      1  0.5975380000000  0.5268080000000  0.4525740000000 1.0
C      1  0.5004060000000  0.5542850000000  0.4761950000000 1.0
C      1  0.4951120000000  0.5801860000000  0.4286080000000 1.0
C      1  0.4534380000000  0.4807310000000  0.4930620000000 1.0
C      1  0.5630940000000  0.5890160000000  0.4604420000000 1.0
C      1  0.4507570000000  0.5058130000000  0.4730300000000 1.0
C      1  0.5192120000000  0.4162290000000  0.4090380000000 1.0
C      1  0.3903290000000  0.4775180000000  0.5003970000000 1.0
C      1  0.4144970000000  0.5746680000000  0.5430240000000 1.0
C      1  0.5078470000000  0.5043980000000  0.3942000000000 1.0
C      1  0.5741010000000  0.5106160000000  0.6214600000000 1.0
C      1  0.4539660000000  0.5312370000000  0.4837100000000 1.0
C      1  0.5396590000000  0.4358160000000  0.5015350000000 1.0
C      1  0.4971550000000  0.4434030000000  0.5190830000000 1.0
C      1  0.5524190000000  0.4561730000000  0.4859190000000 1.0
C      1  0.5497120000000  0.4450000000000  0.4350320000000 1.0
C      1  0.5090700000000  0.4787490000000  0.6195310000000 1.0
C      1  0.4068000000000  0.4849150000000  0.4556120000000 1.0
C      1  0.5977610000000  0.4929920000000  0.4186290000000 1.0
C      1  0.5414990000000  0.4582100000000  0.4586500000000 1.0
C      1  0.5281680000000  0.5000940000000  0.6210790000000 1.0
C      1  0.4416350000000  0.5338140000000  0.5422030000000 1.0
C      1  0.4335170000000  0.5949920000000  0.5401130000000 1.0
C      1  0.6290260000000  0.4597900000000  0.4542940000000 1.0
C      1  0.5883100000000  0.5075580000000  0.5276470000000 1.0
C      1  0.5435640000000  0.4446510000000  0.6142480000000 1.0
C      1  0.5059080000000  0.4759490000000  0.3887330000000 1.0
C      1  0.5436840000000  0.4217360000000  0.5262130000000 1.0
C      1  0.5300480000000  0.4623560000000  0.3959900000000 1.0
C      1  0.6088600000000  0.5027060000000  0.4430370000000 1.0
C      1  0.4199810000000  0.5694620000000  0.4876130000000 1.0
C      1  0.5052530000000  0.5547830000000  0.5687930000000 1.0
END
