TITL C-627110-360-1570 64.3200621203307 125000 -954.480909075757 0 0 157 (C1) n - 1
REM
REM in /home/nfs/bkarasulu/CARBON/AIRSS/Generating-Clusters/LCBOP/Only-C1/SD-CG/FIRE-CG
REM
REM
REM
REM
REM
REM ./C.cell (11c1c37f851c82e70ff6c80c92926a4b)
REM AIRSS Version 0.9.1 bugfix July 2018 build 013d7b7c2542+ Fri, 06 Jul 2018 19:26:36 +0100
REM compiler GCC version 9.2.1 20190827 (Red Hat 9.2.1-1)
REM options -cpp -mtune=generic -march=x86-64 -g -O0 -fpre-include=/usr/include/finclude/math-vector-fortran.h
REM seed -259555666 -1079013545 -1754829150 312372120 460122632 747492798 1462802242 373926850 1820186284 -63465763 1064278876 -1960675402 -1800273370 2118729407 817047706 454045111 -570585456 -126607679 2125995867 681099634 332499638 952094319 1352456346 1905339941 -547406347 -1784292156 739343592 1238190946 726125515 934502587 -715679209 -1930671609 708270776
REM
CELL 1.54180   50.00000   50.00000   50.00000   90.00000   90.00000   90.00000
LATT -1
SFAC C  
C      1  0.4389390000000  0.4557030000000  0.5726240000000 1.0
C      1  0.4475590000000  0.4794800000000  0.5602150000000 1.0
C      1  0.4641750000000  0.5689560000000  0.4081610000000 1.0
C      1  0.4512190000000  0.5729340000000  0.5623850000000 1.0
C      1  0.4828440000000  0.4313200000000  0.5275280000000 1.0
C      1  0.4017240000000  0.6200300000000  0.5308830000000 1.0
C      1  0.6011240000000  0.4771290000000  0.4969590000000 1.0
C      1  0.4319560000000  0.5017720000000  0.5691380000000 1.0
C      1  0.4299990000000  0.5744500000000  0.4780430000000 1.0
C      1  0.5441180000000  0.6178660000000  0.4757060000000 1.0
C      1  0.5122650000000  0.4939860000000  0.4917980000000 1.0
C      1  0.5143650000000  0.4115630000000  0.4863610000000 1.0
C      1  0.4710370000000  0.4858880000000  0.4063520000000 1.0
C      1  0.5654820000000  0.5386260000000  0.4674410000000 1.0
C      1  0.4945300000000  0.5441410000000  0.4585390000000 1.0
C      1  0.3787800000000  0.5412590000000  0.4886360000000 1.0
C      1  0.4384450000000  0.5238950000000  0.3966090000000 1.0
C      1  0.4741670000000  0.4202820000000  0.5525720000000 1.0
C      1  0.5727940000000  0.5798300000000  0.4977550000000 1.0
C      1  0.6165550000000  0.5776400000000  0.5190560000000 1.0
C      1  0.3850710000000  0.4243790000000  0.5122000000000 1.0
C      1  0.4549180000000  0.3618420000000  0.4833790000000 1.0
C      1  0.5052270000000  0.4121710000000  0.4594860000000 1.0
C      1  0.4424270000000  0.5265880000000  0.5772780000000 1.0
C      1  0.4913510000000  0.5610390000000  0.5934730000000 1.0
C      1  0.5161310000000  0.5629850000000  0.4633200000000 1.0
C      1  0.5382500000000  0.5420330000000  0.4017580000000 1.0
C      1  0.5641640000000  0.5407480000000  0.4155970000000 1.0
C      1  0.5763430000000  0.5776900000000  0.5463390000000 1.0
C      1  0.5559390000000  0.5559270000000  0.5849080000000 1.0
C      1  0.5583940000000  0.4812700000000  0.5108150000000 1.0
C      1  0.4458330000000  0.3856610000000  0.4888320000000 1.0
C      1  0.4995050000000  0.4779060000000  0.4075500000000 1.0
C      1  0.5642680000000  0.4417100000000  0.5810190000000 1.0
C      1  0.5832810000000  0.4549810000000  0.5670630000000 1.0
C      1  0.6497520000000  0.5122000000000  0.5201420000000 1.0
C      1  0.5279810000000  0.4197440000000  0.5292440000000 1.0
C      1  0.3966230000000  0.5380230000000  0.4672490000000 1.0
C      1  0.4371200000000  0.5919580000000  0.5472010000000 1.0
C      1  0.4421980000000  0.4516840000000  0.4398550000000 1.0
C      1  0.5119000000000  0.4428490000000  0.5904410000000 1.0
C      1  0.3827350000000  0.5055970000000  0.5539110000000 1.0
C      1  0.5150220000000  0.5008890000000  0.4194380000000 1.0
C      1  0.4905580000000  0.4278240000000  0.5760940000000 1.0
C      1  0.5681600000000  0.5089630000000  0.4712430000000 1.0
C      1  0.3836770000000  0.4341070000000  0.4865710000000 1.0
C      1  0.4728600000000  0.5754670000000  0.5802970000000 1.0
C      1  0.5506590000000  0.5280430000000  0.5871520000000 1.0
C      1  0.5351580000000  0.4721670000000  0.4577880000000 1.0
C      1  0.3977260000000  0.4874700000000  0.5131190000000 1.0
C      1  0.5347920000000  0.4465070000000  0.5354460000000 1.0
C      1  0.5887330000000  0.5781590000000  0.5211340000000 1.0
C      1  0.4588660000000  0.5736460000000  0.4768370000000 1.0
C      1  0.5221270000000  0.5131080000000  0.4736940000000 1.0
C      1  0.4203900000000  0.4746200000000  0.5081740000000 1.0
C      1  0.4658550000000  0.3989800000000  0.4345120000000 1.0
C      1  0.3990460000000  0.4282710000000  0.5601450000000 1.0
C      1  0.4900530000000  0.5566630000000  0.4130480000000 1.0
C      1  0.5935660000000  0.4760370000000  0.5508820000000 1.0
C      1  0.5586750000000  0.5513810000000  0.4417190000000 1.0
C      1  0.4612480000000  0.5954170000000  0.4019980000000 1.0
C      1  0.5684700000000  0.4292540000000  0.4494150000000 1.0
C      1  0.5663800000000  0.4174860000000  0.4765430000000 1.0
C      1  0.4465160000000  0.5037720000000  0.4671000000000 1.0
C      1  0.4027230000000  0.4185020000000  0.5340510000000 1.0
C      1  0.4687180000000  0.4936150000000  0.4529090000000 1.0
C      1  0.4748060000000  0.5031370000000  0.5236840000000 1.0
C      1  0.6256210000000  0.5046760000000  0.5313150000000 1.0
C      1  0.5864130000000  0.4305420000000  0.4936340000000 1.0
C      1  0.5128500000000  0.5472950000000  0.5327400000000 1.0
C      1  0.5326520000000  0.5658720000000  0.4404410000000 1.0
C      1  0.4688240000000  0.4451250000000  0.4490010000000 1.0
C      1  0.4783990000000  0.6023800000000  0.5125220000000 1.0
C      1  0.6103610000000  0.5187450000000  0.5512790000000 1.0
C      1  0.5191530000000  0.5200760000000  0.5324710000000 1.0
C      1  0.5036640000000  0.4189330000000  0.5129350000000 1.0
C      1  0.3722270000000  0.5282000000000  0.5110580000000 1.0
C      1  0.4797060000000  0.4188150000000  0.4486910000000 1.0
C      1  0.4534520000000  0.3822440000000  0.4188470000000 1.0
C      1  0.4550190000000  0.5251970000000  0.4841080000000 1.0
C      1  0.5438720000000  0.4054450000000  0.4896260000000 1.0
C      1  0.4833050000000  0.5289620000000  0.4097460000000 1.0
C      1  0.5024110000000  0.5038120000000  0.5163390000000 1.0
C      1  0.4428760000000  0.5379130000000  0.5301560000000 1.0
C      1  0.5090180000000  0.5196380000000  0.4494230000000 1.0
C      1  0.5247400000000  0.4868150000000  0.6360690000000 1.0
C      1  0.5137250000000  0.6060180000000  0.5511160000000 1.0
C      1  0.4233910000000  0.5568510000000  0.4317190000000 1.0
C      1  0.4935430000000  0.6083020000000  0.5337590000000 1.0
C      1  0.4186660000000  0.4626610000000  0.4530630000000 1.0
C      1  0.5175710000000  0.4657210000000  0.5453960000000 1.0
C      1  0.4727450000000  0.5066490000000  0.4274280000000 1.0
C      1  0.5163930000000  0.5646590000000  0.5128810000000 1.0
C      1  0.5156850000000  0.4555150000000  0.4022510000000 1.0
C      1  0.4443180000000  0.5460390000000  0.5568330000000 1.0
C      1  0.4060090000000  0.4415370000000  0.4702480000000 1.0
C      1  0.5429950000000  0.5116970000000  0.5440270000000 1.0
C      1  0.4932960000000  0.6098110000000  0.4683540000000 1.0
C      1  0.4696700000000  0.5473750000000  0.4721240000000 1.0
C      1  0.5563240000000  0.5770390000000  0.5660880000000 1.0
C      1  0.6106330000000  0.4798880000000  0.5251010000000 1.0
C      1  0.5996370000000  0.4530080000000  0.4800010000000 1.0
C      1  0.4298550000000  0.4092890000000  0.5286260000000 1.0
C      1  0.4458470000000  0.3832650000000  0.5668030000000 1.0
C      1  0.4498020000000  0.4044850000000  0.5497030000000 1.0
C      1  0.4855760000000  0.5228020000000  0.3820090000000 1.0
C      1  0.4387490000000  0.4573740000000  0.4960300000000 1.0
C      1  0.5466240000000  0.4256600000000  0.4313200000000 1.0
C      1  0.4357760000000  0.4087600000000  0.5005470000000 1.0
C      1  0.6424290000000  0.5799800000000  0.5170160000000 1.0
C      1  0.5191170000000  0.5610410000000  0.4147640000000 1.0
C      1  0.6727060000000  0.5186190000000  0.5085770000000 1.0
C      1  0.4038000000000  0.5002500000000  0.5695320000000 1.0
C      1  0.5101880000000  0.4711710000000  0.4736030000000 1.0
C      1  0.5259540000000  0.5195970000000  0.6000230000000 1.0
C      1  0.4745910000000  0.4573730000000  0.5212760000000 1.0
C      1  0.5647020000000  0.6048130000000  0.4869640000000 1.0
C      1  0.4207540000000  0.4919480000000  0.4594180000000 1.0
C      1  0.5706420000000  0.4932020000000  0.4260620000000 1.0
C      1  0.4807360000000  0.4670940000000  0.4666180000000 1.0
C      1  0.5292750000000  0.5630830000000  0.4884080000000 1.0
C      1  0.5201320000000  0.4927030000000  0.6096560000000 1.0
C      1  0.4166690000000  0.4411520000000  0.5757760000000 1.0
C      1  0.5260070000000  0.4085630000000  0.4405730000000 1.0
C      1  0.5579170000000  0.4561470000000  0.5235210000000 1.0
C      1  0.5576860000000  0.5576400000000  0.4880470000000 1.0
C      1  0.5377520000000  0.4421770000000  0.4101870000000 1.0
C      1  0.5784560000000  0.4372590000000  0.5194890000000 1.0
C      1  0.5574340000000  0.4902640000000  0.4509780000000 1.0
C      1  0.4290340000000  0.4324150000000  0.4865200000000 1.0
C      1  0.5284510000000  0.5157340000000  0.3993750000000 1.0
C      1  0.5612070000000  0.5127480000000  0.5653800000000 1.0
C      1  0.5607960000000  0.3814100000000  0.5312710000000 1.0
C      1  0.5071720000000  0.4802000000000  0.5652230000000 1.0
C      1  0.5097500000000  0.4723790000000  0.5921830000000 1.0
C      1  0.4659450000000  0.4796260000000  0.5379460000000 1.0
C      1  0.4003130000000  0.5113730000000  0.4577860000000 1.0
C      1  0.5394650000000  0.4346990000000  0.5894530000000 1.0
C      1  0.4752820000000  0.5958370000000  0.4851510000000 1.0
C      1  0.5876040000000  0.5036510000000  0.5606950000000 1.0
C      1  0.4193940000000  0.5995540000000  0.5264200000000 1.0
C      1  0.4664710000000  0.4613980000000  0.4941650000000 1.0
C      1  0.4152110000000  0.5582910000000  0.4588790000000 1.0
C      1  0.5907180000000  0.4484640000000  0.4522750000000 1.0
C      1  0.5465000000000  0.4005300000000  0.5185480000000 1.0
C      1  0.6951110000000  0.5254770000000  0.4971470000000 1.0
C      1  0.3814820000000  0.5064120000000  0.5259520000000 1.0
C      1  0.5185380000000  0.6190380000000  0.4677640000000 1.0
C      1  0.5057310000000  0.5396000000000  0.6007120000000 1.0
C      1  0.5778910000000  0.5161370000000  0.4135120000000 1.0
C      1  0.4463950000000  0.5314430000000  0.6038480000000 1.0
C      1  0.5773200000000  0.4940930000000  0.4937510000000 1.0
C      1  0.4479130000000  0.4974520000000  0.3919230000000 1.0
C      1  0.4409820000000  0.5503730000000  0.4102570000000 1.0
C      1  0.4566500000000  0.5217510000000  0.5122230000000 1.0
C      1  0.4193710000000  0.5866740000000  0.5011830000000 1.0
C      1  0.5346880000000  0.5948560000000  0.5633290000000 1.0
END
