TITL C-627112-676-1806 15873.7172415102 125000 -975.886149805216 0 0 158 (C1) n - 1
REM
REM in /home/nfs/bkarasulu/CARBON/AIRSS/Generating-Clusters/LCBOP/Only-C1/SD-CG/FIRE-CG
REM
REM
REM
REM
REM
REM ./C.cell (11c1c37f851c82e70ff6c80c92926a4b)
REM AIRSS Version 0.9.1 bugfix July 2018 build 013d7b7c2542+ Fri, 06 Jul 2018 19:26:36 +0100
REM compiler GCC version 9.2.1 20190827 (Red Hat 9.2.1-1)
REM options -cpp -mtune=generic -march=x86-64 -g -O0 -fpre-include=/usr/include/finclude/math-vector-fortran.h
REM seed -1722641014 1373267429 -1096151362 1011190125 1545443175 742062825 1379108681 -374849927 -1291324729 -1386916712 -61549839 584814675 984824208 -1736839273 38246268 -66407078 1275881452 -238525496 -1533048042 -131428280 -1368728451 -886906594 -2011622792 -1412638612 -396931659 1849875782 431594390 -936339567 -1407736996 -1659858074 1943326277 1237511654 1230869773
REM
CELL 1.54180   50.00000   50.00000   50.00000   90.00000   90.00000   90.00000
LATT -1
SFAC C  
C      1  0.4518190000000  0.4374110000000  0.5077720000000 1.0
C      1  0.4454310000000  0.4581870000000  0.4909060000000 1.0
C      1  0.5201580000000  0.5313550000000  0.4914010000000 1.0
C      1  0.3933560000000  0.5549900000000  0.4779250000000 1.0
C      1  0.4263240000000  0.5206980000000  0.4223650000000 1.0
C      1  0.4801490000000  0.5001600000000  0.6129210000000 1.0
C      1  0.5188790000000  0.3927070000000  0.4155790000000 1.0
C      1  0.4239810000000  0.5903370000000  0.4801860000000 1.0
C      1  0.4826430000000  0.4174690000000  0.4377160000000 1.0
C      1  0.5282900000000  0.4664720000000  0.6056800000000 1.0
C      1  0.4815800000000  0.4321450000000  0.5167500000000 1.0
C      1  0.4602180000000  0.4349530000000  0.4355130000000 1.0
C      1  0.4565950000000  0.5151930000000  0.6195630000000 1.0
C      1  0.4550350000000  0.5531630000000  0.5033960000000 1.0
C      1  0.4977210000000  0.4184920000000  0.4631790000000 1.0
C      1  0.6136170000000  0.4843740000000  0.4033400000000 1.0
C      1  0.5829280000000  0.4923430000000  0.5554830000000 1.0
C      1  0.5245480000000  0.5004050000000  0.4082640000000 1.0
C      1  0.4614500000000  0.5876620000000  0.6543850000000 1.0
C      1  0.5420280000000  0.4539620000000  0.4084450000000 1.0
C      1  0.4921160000000  0.4196220000000  0.4908260000000 1.0
C      1  0.6024150000000  0.4600580000000  0.4478760000000 1.0
C      1  0.4685870000000  0.4642560000000  0.3727970000000 1.0
C      1  0.5048540000000  0.5558540000000  0.4920090000000 1.0
C      1  0.4406950000000  0.4240730000000  0.5632120000000 1.0
C      1  0.4636820000000  0.6119270000000  0.6636520000000 1.0
C      1  0.4021170000000  0.4778710000000  0.4207420000000 1.0
C      1  0.4751400000000  0.4896900000000  0.5667990000000 1.0
C      1  0.5521710000000  0.5779430000000  0.5611860000000 1.0
C      1  0.5089360000000  0.6022980000000  0.5533620000000 1.0
C      1  0.4634590000000  0.4629270000000  0.4336320000000 1.0
C      1  0.5583770000000  0.4433150000000  0.4301180000000 1.0
C      1  0.5103050000000  0.4820590000000  0.5079830000000 1.0
C      1  0.5572540000000  0.5017140000000  0.5608500000000 1.0
C      1  0.6401240000000  0.5247060000000  0.5304220000000 1.0
C      1  0.4840080000000  0.3644080000000  0.5265970000000 1.0
C      1  0.5435690000000  0.4231680000000  0.4444160000000 1.0
C      1  0.4788530000000  0.5115160000000  0.3887870000000 1.0
C      1  0.5741540000000  0.4605890000000  0.4466330000000 1.0
C      1  0.4776530000000  0.4094800000000  0.5371190000000 1.0
C      1  0.5671010000000  0.4896170000000  0.3860220000000 1.0
C      1  0.4975520000000  0.6006230000000  0.4292070000000 1.0
C      1  0.5481310000000  0.5313810000000  0.4919640000000 1.0
C      1  0.4311960000000  0.4915860000000  0.5842780000000 1.0
C      1  0.5780270000000  0.5938440000000  0.5029010000000 1.0
C      1  0.4490970000000  0.5421830000000  0.4581630000000 1.0
C      1  0.4752320000000  0.4635860000000  0.5578770000000 1.0
C      1  0.5241150000000  0.5361980000000  0.5577930000000 1.0
C      1  0.5214470000000  0.5919040000000  0.4427110000000 1.0
C      1  0.4257920000000  0.4924500000000  0.4183720000000 1.0
C      1  0.5130090000000  0.6247360000000  0.5348350000000 1.0
C      1  0.6300600000000  0.5008060000000  0.5368740000000 1.0
C      1  0.5351620000000  0.4832630000000  0.5627560000000 1.0
C      1  0.4418750000000  0.4841920000000  0.4928460000000 1.0
C      1  0.4423000000000  0.5052440000000  0.5085780000000 1.0
C      1  0.5460920000000  0.5731140000000  0.5326730000000 1.0
C      1  0.4830010000000  0.4476450000000  0.6221310000000 1.0
C      1  0.4731620000000  0.5399390000000  0.5579980000000 1.0
C      1  0.5581090000000  0.5590960000000  0.4298570000000 1.0
C      1  0.4111050000000  0.4581110000000  0.5518800000000 1.0
C      1  0.4270580000000  0.5243380000000  0.5272780000000 1.0
C      1  0.5937030000000  0.4912860000000  0.3869290000000 1.0
C      1  0.4507300000000  0.4797100000000  0.4143450000000 1.0
C      1  0.4908450000000  0.4038200000000  0.5615250000000 1.0
C      1  0.3866890000000  0.5086870000000  0.4766680000000 1.0
C      1  0.5314200000000  0.5670770000000  0.4309360000000 1.0
C      1  0.5285350000000  0.6034470000000  0.4936340000000 1.0
C      1  0.4199530000000  0.4305460000000  0.5428740000000 1.0
C      1  0.6088730000000  0.5645650000000  0.5378730000000 1.0
C      1  0.5182370000000  0.5029350000000  0.4363410000000 1.0
C      1  0.5372780000000  0.4072370000000  0.5578790000000 1.0
C      1  0.4592570000000  0.5631260000000  0.6445990000000 1.0
C      1  0.5303700000000  0.5940130000000  0.5704220000000 1.0
C      1  0.4844770000000  0.5707740000000  0.4758710000000 1.0
C      1  0.4407720000000  0.5365730000000  0.4038590000000 1.0
C      1  0.4042900000000  0.3546110000000  0.4977380000000 1.0
C      1  0.4621880000000  0.5314390000000  0.4821580000000 1.0
C      1  0.5205380000000  0.4866650000000  0.5871190000000 1.0
C      1  0.4812310000000  0.4743100000000  0.6251920000000 1.0
C      1  0.5579810000000  0.4082670000000  0.5386490000000 1.0
C      1  0.5588260000000  0.4849370000000  0.4892440000000 1.0
C      1  0.4858590000000  0.5582370000000  0.4062600000000 1.0
C      1  0.5615040000000  0.4301490000000  0.5230310000000 1.0
C      1  0.4113320000000  0.5687660000000  0.4946200000000 1.0
C      1  0.5386220000000  0.4731500000000  0.5056910000000 1.0
C      1  0.5030940000000  0.5614360000000  0.5217700000000 1.0
C      1  0.5941180000000  0.5554890000000  0.5603970000000 1.0
C      1  0.4316190000000  0.4199790000000  0.5186820000000 1.0
C      1  0.3998940000000  0.4812790000000  0.5400430000000 1.0
C      1  0.4283980000000  0.4651690000000  0.5749150000000 1.0
C      1  0.5578000000000  0.4779660000000  0.4620080000000 1.0
C      1  0.3846560000000  0.5096730000000  0.5048310000000 1.0
C      1  0.4951470000000  0.5028590000000  0.5856280000000 1.0
C      1  0.4243570000000  0.5311810000000  0.4486850000000 1.0
C      1  0.4806120000000  0.4162660000000  0.3869700000000 1.0
C      1  0.5204400000000  0.4345440000000  0.4572700000000 1.0
C      1  0.4907470000000  0.5017200000000  0.4496330000000 1.0
C      1  0.4648780000000  0.4862340000000  0.3901710000000 1.0
C      1  0.6154050000000  0.4480600000000  0.4686950000000 1.0
C      1  0.4384000000000  0.3916890000000  0.5166360000000 1.0
C      1  0.4988160000000  0.4148070000000  0.4108490000000 1.0
C      1  0.6053400000000  0.5915300000000  0.4619780000000 1.0
C      1  0.5501960000000  0.5905150000000  0.5102950000000 1.0
C      1  0.5671810000000  0.5538270000000  0.5686190000000 1.0
C      1  0.5508760000000  0.5293340000000  0.5663880000000 1.0
C      1  0.4985610000000  0.5297840000000  0.5698280000000 1.0
C      1  0.4813630000000  0.5860890000000  0.4122350000000 1.0
C      1  0.4274090000000  0.5517110000000  0.5122470000000 1.0
C      1  0.5258460000000  0.5527500000000  0.5348050000000 1.0
C      1  0.4618340000000  0.5684490000000  0.4559300000000 1.0
C      1  0.5121360000000  0.5523460000000  0.4160530000000 1.0
C      1  0.5322530000000  0.4822430000000  0.4513410000000 1.0
C      1  0.5124950000000  0.4614340000000  0.4538680000000 1.0
C      1  0.4001880000000  0.5309070000000  0.4647330000000 1.0
C      1  0.5180730000000  0.4390740000000  0.4042100000000 1.0
C      1  0.6165570000000  0.4722470000000  0.4269280000000 1.0
C      1  0.4324660000000  0.5036720000000  0.6095670000000 1.0
C      1  0.5220350000000  0.4402400000000  0.5957490000000 1.0
C      1  0.5037600000000  0.5071470000000  0.4952010000000 1.0
C      1  0.4532100000000  0.4489630000000  0.5699800000000 1.0
C      1  0.5152340000000  0.3893540000000  0.5558480000000 1.0
C      1  0.4497850000000  0.5029060000000  0.5661790000000 1.0
C      1  0.5282380000000  0.4563290000000  0.5489430000000 1.0
C      1  0.5059970000000  0.6160190000000  0.5074570000000 1.0
C      1  0.4650020000000  0.3858770000000  0.5255260000000 1.0
C      1  0.4207550000000  0.3726080000000  0.5069090000000 1.0
C      1  0.4859100000000  0.4727510000000  0.4476600000000 1.0
C      1  0.5659980000000  0.5115430000000  0.4946860000000 1.0
C      1  0.4970780000000  0.4585970000000  0.5317660000000 1.0
C      1  0.4421890000000  0.5894930000000  0.4595860000000 1.0
C      1  0.6049740000000  0.5725190000000  0.4429900000000 1.0
C      1  0.5846860000000  0.5597090000000  0.4311230000000 1.0
C      1  0.4968380000000  0.4301320000000  0.6049090000000 1.0
C      1  0.4854070000000  0.4108480000000  0.5880820000000 1.0
C      1  0.5399400000000  0.3975950000000  0.4324340000000 1.0
C      1  0.4682290000000  0.5371190000000  0.3972800000000 1.0
C      1  0.3822480000000  0.4752990000000  0.4383980000000 1.0
C      1  0.4919530000000  0.5843190000000  0.5362750000000 1.0
C      1  0.4680400000000  0.5793030000000  0.4986640000000 1.0
C      1  0.4717740000000  0.4375420000000  0.3728120000000 1.0
C      1  0.5443380000000  0.4812220000000  0.3999630000000 1.0
C      1  0.6078370000000  0.4898000000000  0.5466310000000 1.0
C      1  0.5067830000000  0.5095380000000  0.3888130000000 1.0
C      1  0.5838480000000  0.6025250000000  0.4763510000000 1.0
C      1  0.4574100000000  0.5390760000000  0.6336580000000 1.0
C      1  0.4828740000000  0.5119960000000  0.4756930000000 1.0
C      1  0.4813040000000  0.5995470000000  0.5133180000000 1.0
C      1  0.3765340000000  0.4878190000000  0.4612760000000 1.0
C      1  0.5458190000000  0.4534280000000  0.5247230000000 1.0
C      1  0.5346320000000  0.6044440000000  0.4651670000000 1.0
C      1  0.5617530000000  0.6124820000000  0.4614890000000 1.0
C      1  0.6319040000000  0.5501460000000  0.5309080000000 1.0
C      1  0.5305490000000  0.4334970000000  0.5690040000000 1.0
C      1  0.4005880000000  0.5076350000000  0.5283850000000 1.0
C      1  0.4478950000000  0.5266110000000  0.5512390000000 1.0
C      1  0.5977710000000  0.5836290000000  0.5202960000000 1.0
C      1  0.5418900000000  0.4712360000000  0.6287710000000 1.0
C      1  0.5084790000000  0.3667600000000  0.5394110000000 1.0
END
