TITL C-627106-156-529 0.00818821855363318 125000 -115.10656585725 0 0 21 (C1) n - 1
REM
REM in /home/nfs/bkarasulu/CARBON/AIRSS/Generating-Clusters/LCBOP/Only-C1/SD-CG/FIRE-CG
REM
REM
REM
REM
REM
REM ./C.cell (11c1c37f851c82e70ff6c80c92926a4b)
REM AIRSS Version 0.9.1 bugfix July 2018 build 013d7b7c2542+ Fri, 06 Jul 2018 19:26:36 +0100
REM compiler GCC version 9.2.1 20190827 (Red Hat 9.2.1-1)
REM options -cpp -mtune=generic -march=x86-64 -g -O0 -fpre-include=/usr/include/finclude/math-vector-fortran.h
REM seed -1023154605 1623151401 -1358195721 -2052577427 2141636775 818844318 -123980848 1413695188 -1236041902 1287427475 217808589 -266843287 534935252 1151163682 629156143 337805313 7224331 537932004 412539470 1954205858 -1627165575 -1670569806 -1257072824 328938664 1634490835 -2001245743 1136529564 1023138727 1122018415 726546951 687428529 -1076002160 -1245005404
REM
CELL 1.54180   50.00000   50.00000   50.00000   90.00000   90.00000   90.00000
LATT -1
SFAC C  
C      1  0.4909210000000  0.5065500000000  0.4784970000000 1.0
C      1  0.5282310000000  0.4786920000000  0.4632110000000 1.0
C      1  0.5007180000000  0.5600600000000  0.5697930000000 1.0
C      1  0.4970530000000  0.5397700000000  0.5538580000000 1.0
C      1  0.5561640000000  0.4556720000000  0.4245130000000 1.0
C      1  0.5202720000000  0.4881380000000  0.5106360000000 1.0
C      1  0.5289290000000  0.4732760000000  0.5813360000000 1.0
C      1  0.5135870000000  0.4907610000000  0.4834990000000 1.0
C      1  0.5838810000000  0.4328300000000  0.3861160000000 1.0
C      1  0.4286810000000  0.5320710000000  0.5419320000000 1.0
C      1  0.5206800000000  0.4842910000000  0.5592050000000 1.0
C      1  0.5421950000000  0.4671850000000  0.4438660000000 1.0
C      1  0.4551160000000  0.5395860000000  0.4791620000000 1.0
C      1  0.5701380000000  0.4441560000000  0.4051560000000 1.0
C      1  0.4925700000000  0.5179130000000  0.5370640000000 1.0
C      1  0.4714700000000  0.5212890000000  0.4923620000000 1.0
C      1  0.4392280000000  0.5567330000000  0.4676420000000 1.0
C      1  0.5115340000000  0.4965940000000  0.5359310000000 1.0
C      1  0.4439960000000  0.5115670000000  0.5321810000000 1.0
C      1  0.4353280000000  0.4856200000000  0.5334920000000 1.0
C      1  0.4693060000000  0.5172480000000  0.5205460000000 1.0
END
