TITL C-627111-6168-397 0.140257736744347 125000 -431.96414138139 0 0 72 (C1) n - 1
REM
REM in /home/nfs/bkarasulu/CARBON/AIRSS/Generating-Clusters/LCBOP/Only-C1/SD-CG/FIRE-CG
REM
REM
REM
REM
REM
REM ./C.cell (11c1c37f851c82e70ff6c80c92926a4b)
REM AIRSS Version 0.9.1 bugfix July 2018 build 013d7b7c2542+ Fri, 06 Jul 2018 19:26:36 +0100
REM compiler GCC version 9.2.1 20190827 (Red Hat 9.2.1-1)
REM options -cpp -mtune=generic -march=x86-64 -g -O0 -fpre-include=/usr/include/finclude/math-vector-fortran.h
REM seed -135300934 1217576131 -415260784 1546524449 690676510 -116775450 1669170243 441610895 2121291979 1809589334 -2070356995 -1492577428 -596839272 -147347799 -1932743321 1721335935 662296023 1356154033 392063480 1233022122 1993748426 -881978367 116745574 -787588040 -282934734 -820059096 -95131993 -672495533 905910013 1645855439 686356291 -1944650154 -2056583558
REM
CELL 1.54180   50.00000   50.00000   50.00000   90.00000   90.00000   90.00000
LATT -1
SFAC C  
C      1  0.4337890000000  0.5472590000000  0.5057240000000 1.0
C      1  0.5538280000000  0.5664690000000  0.5201270000000 1.0
C      1  0.5142430000000  0.4517220000000  0.4481980000000 1.0
C      1  0.5488180000000  0.4491290000000  0.5225710000000 1.0
C      1  0.5509950000000  0.5423500000000  0.5888770000000 1.0
C      1  0.4265540000000  0.5161630000000  0.5964590000000 1.0
C      1  0.4657390000000  0.4884450000000  0.4239010000000 1.0
C      1  0.5231410000000  0.5001890000000  0.4592420000000 1.0
C      1  0.5688800000000  0.4981920000000  0.4456090000000 1.0
C      1  0.5296710000000  0.6090040000000  0.5093330000000 1.0
C      1  0.4540700000000  0.4962150000000  0.4014330000000 1.0
C      1  0.4199270000000  0.4199660000000  0.5134800000000 1.0
C      1  0.4318470000000  0.5155050000000  0.3573590000000 1.0
C      1  0.4804540000000  0.4271890000000  0.4810050000000 1.0
C      1  0.4444450000000  0.4998990000000  0.6075590000000 1.0
C      1  0.4656760000000  0.4333510000000  0.5041400000000 1.0
C      1  0.5341590000000  0.5824400000000  0.5059130000000 1.0
C      1  0.5195670000000  0.5149140000000  0.4835960000000 1.0
C      1  0.4905890000000  0.5517300000000  0.4289920000000 1.0
C      1  0.5357940000000  0.5199260000000  0.5945870000000 1.0
C      1  0.5203980000000  0.5650620000000  0.4873240000000 1.0
C      1  0.4992810000000  0.4331380000000  0.4631150000000 1.0
C      1  0.5710020000000  0.5184410000000  0.5130960000000 1.0
C      1  0.4967520000000  0.5686210000000  0.4730910000000 1.0
C      1  0.5290090000000  0.4324490000000  0.5335860000000 1.0
C      1  0.5626060000000  0.4473220000000  0.4968300000000 1.0
C      1  0.5039420000000  0.4434060000000  0.5420910000000 1.0
C      1  0.4790660000000  0.5577570000000  0.4539720000000 1.0
C      1  0.4997280000000  0.5080510000000  0.5028930000000 1.0
C      1  0.4374420000000  0.4380370000000  0.5027380000000 1.0
C      1  0.5615060000000  0.5697790000000  0.5466480000000 1.0
C      1  0.5346890000000  0.5272290000000  0.4216170000000 1.0
C      1  0.5337010000000  0.4056350000000  0.5367290000000 1.0
C      1  0.4535210000000  0.5488650000000  0.4616750000000 1.0
C      1  0.4257630000000  0.5104360000000  0.4756390000000 1.0
C      1  0.4373020000000  0.4848470000000  0.4776920000000 1.0
C      1  0.5600510000000  0.5603770000000  0.5715220000000 1.0
C      1  0.5743960000000  0.4731700000000  0.4904910000000 1.0
C      1  0.5059570000000  0.5340920000000  0.6326830000000 1.0
C      1  0.4718910000000  0.5391450000000  0.5337350000000 1.0
C      1  0.5127670000000  0.5421220000000  0.4174670000000 1.0
C      1  0.5797930000000  0.4832350000000  0.4650180000000 1.0
C      1  0.4814840000000  0.4883560000000  0.4955980000000 1.0
C      1  0.4355140000000  0.5367510000000  0.4797020000000 1.0
C      1  0.4783160000000  0.4840570000000  0.4482540000000 1.0
C      1  0.5353870000000  0.4961110000000  0.5783270000000 1.0
C      1  0.5332800000000  0.5390090000000  0.4886990000000 1.0
C      1  0.4805340000000  0.4376850000000  0.5276340000000 1.0
C      1  0.4963490000000  0.4949390000000  0.6021950000000 1.0
C      1  0.4429080000000  0.5057130000000  0.3793580000000 1.0
C      1  0.4696290000000  0.4914700000000  0.6088250000000 1.0
C      1  0.5122090000000  0.5175760000000  0.6113580000000 1.0
C      1  0.4923120000000  0.5249920000000  0.5239930000000 1.0
C      1  0.4994310000000  0.5496730000000  0.6525260000000 1.0
C      1  0.5678410000000  0.3778460000000  0.4572020000000 1.0
C      1  0.4651530000000  0.4847090000000  0.4731250000000 1.0
C      1  0.4210610000000  0.5335530000000  0.5770870000000 1.0
C      1  0.5555630000000  0.5406880000000  0.5070790000000 1.0
C      1  0.5340420000000  0.4438900000000  0.4311290000000 1.0
C      1  0.5434050000000  0.5088420000000  0.4409010000000 1.0
C      1  0.5671840000000  0.4007340000000  0.4696630000000 1.0
C      1  0.5033490000000  0.4603510000000  0.5644190000000 1.0
C      1  0.5571240000000  0.4746970000000  0.5330710000000 1.0
C      1  0.5109290000000  0.4809920000000  0.5812320000000 1.0
C      1  0.5062780000000  0.4789690000000  0.4504260000000 1.0
C      1  0.4445820000000  0.5455720000000  0.5315620000000 1.0
C      1  0.5655440000000  0.4241240000000  0.4819950000000 1.0
C      1  0.4278880000000  0.4614660000000  0.4900150000000 1.0
C      1  0.5710110000000  0.4907110000000  0.5136040000000 1.0
C      1  0.4282550000000  0.5449990000000  0.5541920000000 1.0
C      1  0.4207850000000  0.5253060000000  0.3353550000000 1.0
C      1  0.4099050000000  0.5349450000000  0.3137130000000 1.0
END
