TITL C-627113-6568-577 180.172520769215 125000 -360.753620864819 0 0 62 (C1) n - 1
REM
REM in /home/nfs/bkarasulu/CARBON/AIRSS/Generating-Clusters/LCBOP/Only-C1/SD-CG/FIRE-CG
REM
REM
REM
REM
REM
REM ./C.cell (11c1c37f851c82e70ff6c80c92926a4b)
REM AIRSS Version 0.9.1 bugfix July 2018 build 013d7b7c2542+ Fri, 06 Jul 2018 19:26:36 +0100
REM compiler GCC version 9.2.1 20190827 (Red Hat 9.2.1-1)
REM options -cpp -mtune=generic -march=x86-64 -g -O0 -fpre-include=/usr/include/finclude/math-vector-fortran.h
REM seed -1498657360 498203043 -1632305341 -1196825903 -939797202 66990118 -1333252326 514836613 -1887936740 -904098160 830325586 -111539826 -640453670 1561359603 -1190332574 -479661236 17998902 866708126 1408993174 -1933771856 -1532015048 1992763299 -1160940795 1684741860 1463040678 1355061714 -2096441612 -1007393659 -49516492 -597998031 -422590010 -1085207955 1886346657
REM
CELL 1.54180   50.00000   50.00000   50.00000   90.00000   90.00000   90.00000
LATT -1
SFAC C  
C      1  0.5060580000000  0.4685350000000  0.4506730000000 1.0
C      1  0.5371100000000  0.5355020000000  0.5312430000000 1.0
C      1  0.4900120000000  0.5778960000000  0.4986310000000 1.0
C      1  0.4964670000000  0.5527260000000  0.5501560000000 1.0
C      1  0.4324090000000  0.5109850000000  0.4819950000000 1.0
C      1  0.5466870000000  0.5603380000000  0.5205790000000 1.0
C      1  0.4889060000000  0.5346260000000  0.5088170000000 1.0
C      1  0.4955150000000  0.4927020000000  0.5321490000000 1.0
C      1  0.4758570000000  0.5003360000000  0.4794900000000 1.0
C      1  0.4946840000000  0.5604250000000  0.5215110000000 1.0
C      1  0.5145270000000  0.5529810000000  0.4610160000000 1.0
C      1  0.5271930000000  0.5095280000000  0.4343580000000 1.0
C      1  0.5599010000000  0.5258830000000  0.4695180000000 1.0
C      1  0.4736120000000  0.5107770000000  0.5706790000000 1.0
C      1  0.4608420000000  0.5741850000000  0.4951310000000 1.0
C      1  0.4819000000000  0.5167360000000  0.5284810000000 1.0
C      1  0.4332080000000  0.4806560000000  0.4803140000000 1.0
C      1  0.5014620000000  0.4365830000000  0.5506980000000 1.0
C      1  0.4834220000000  0.3987900000000  0.4925290000000 1.0
C      1  0.4579440000000  0.4521090000000  0.5256140000000 1.0
C      1  0.4509510000000  0.4954520000000  0.5561340000000 1.0
C      1  0.5747820000000  0.4790890000000  0.4728880000000 1.0
C      1  0.5390120000000  0.5747370000000  0.4987470000000 1.0
C      1  0.5165370000000  0.4782880000000  0.4752850000000 1.0
C      1  0.4966150000000  0.4212650000000  0.5020320000000 1.0
C      1  0.5328880000000  0.5160160000000  0.5105030000000 1.0
C      1  0.5222360000000  0.4825260000000  0.5706950000000 1.0
C      1  0.5293780000000  0.4342610000000  0.5414900000000 1.0
C      1  0.5110930000000  0.4724540000000  0.5209470000000 1.0
C      1  0.4505470000000  0.4658010000000  0.5000090000000 1.0
C      1  0.5283130000000  0.5009960000000  0.4883500000000 1.0
C      1  0.5345890000000  0.4609340000000  0.5324520000000 1.0
C      1  0.4879960000000  0.4799470000000  0.4324730000000 1.0
C      1  0.5354890000000  0.5323320000000  0.4531140000000 1.0
C      1  0.5202440000000  0.5351180000000  0.5554390000000 1.0
C      1  0.5154090000000  0.5738580000000  0.4823130000000 1.0
C      1  0.4843750000000  0.5261740000000  0.4833180000000 1.0
C      1  0.5457210000000  0.4799200000000  0.5514000000000 1.0
C      1  0.4787800000000  0.5249980000000  0.4196520000000 1.0
C      1  0.4348650000000  0.5261850000000  0.5075670000000 1.0
C      1  0.5438210000000  0.4846250000000  0.4370050000000 1.0
C      1  0.5015190000000  0.4663290000000  0.4960150000000 1.0
C      1  0.5672850000000  0.4946550000000  0.5392630000000 1.0
C      1  0.4365360000000  0.5121780000000  0.5341740000000 1.0
C      1  0.5216300000000  0.4288660000000  0.4865290000000 1.0
C      1  0.4428830000000  0.5544640000000  0.5034300000000 1.0
C      1  0.5043590000000  0.4582980000000  0.5710640000000 1.0
C      1  0.4419140000000  0.5258280000000  0.4570150000000 1.0
C      1  0.4876740000000  0.5422610000000  0.4607730000000 1.0
C      1  0.4830450000000  0.4345110000000  0.5270500000000 1.0
C      1  0.4514210000000  0.4674030000000  0.5493210000000 1.0
C      1  0.4659410000000  0.5359610000000  0.4427700000000 1.0
C      1  0.5737890000000  0.5048290000000  0.4857890000000 1.0
C      1  0.5546140000000  0.4657010000000  0.4574100000000 1.0
C      1  0.4391230000000  0.4720760000000  0.4529080000000 1.0
C      1  0.5767320000000  0.5033400000000  0.5148260000000 1.0
C      1  0.4991620000000  0.5053400000000  0.4236760000000 1.0
C      1  0.5407540000000  0.4419570000000  0.4703750000000 1.0
C      1  0.4602780000000  0.4734840000000  0.4356260000000 1.0
C      1  0.4758010000000  0.4748480000000  0.4905200000000 1.0
C      1  0.4752710000000  0.5327220000000  0.5526110000000 1.0
C      1  0.5089140000000  0.5076710000000  0.5734620000000 1.0
END
