TITL C-627106-156-374 4.47147630309027 125000 -739.233727973831 0 0 120 (C1) n - 1
REM
REM in /home/nfs/bkarasulu/CARBON/AIRSS/Generating-Clusters/LCBOP/Only-C1/SD-CG/FIRE-CG
REM
REM
REM
REM
REM
REM ./C.cell (11c1c37f851c82e70ff6c80c92926a4b)
REM AIRSS Version 0.9.1 bugfix July 2018 build 013d7b7c2542+ Fri, 06 Jul 2018 19:26:36 +0100
REM compiler GCC version 9.2.1 20190827 (Red Hat 9.2.1-1)
REM options -cpp -mtune=generic -march=x86-64 -g -O0 -fpre-include=/usr/include/finclude/math-vector-fortran.h
REM seed -330740252 741986784 846576806 1403638933 -924979709 694771421 -1332404615 1191503263 -869364448 1721384785 -2095718551 427851760 -507774981 -1619415828 -20185857 1043047359 -85443124 -192105635 -1587787349 -218883892 -255399339 203388338 1862607263 1957569884 -1089369120 1418546709 -649088742 1206001999 -1724596745 -1142528765 343783121 -544892744 696022957
REM
CELL 1.54180   50.00000   50.00000   50.00000   90.00000   90.00000   90.00000
LATT -1
SFAC C  
C      1  0.5533700000000  0.5867230000000  0.5474080000000 1.0
C      1  0.4904100000000  0.5728110000000  0.5628100000000 1.0
C      1  0.5419450000000  0.4976000000000  0.4814480000000 1.0
C      1  0.4234330000000  0.5658030000000  0.4715910000000 1.0
C      1  0.5127380000000  0.4957130000000  0.5212960000000 1.0
C      1  0.5063330000000  0.4273330000000  0.4417370000000 1.0
C      1  0.4602130000000  0.4327410000000  0.4975590000000 1.0
C      1  0.4993680000000  0.3990190000000  0.5156630000000 1.0
C      1  0.4282530000000  0.4221940000000  0.5295220000000 1.0
C      1  0.5484060000000  0.4682940000000  0.5475150000000 1.0
C      1  0.4499360000000  0.5229290000000  0.5473300000000 1.0
C      1  0.5181040000000  0.4035440000000  0.5379630000000 1.0
C      1  0.4603670000000  0.5576550000000  0.4343180000000 1.0
C      1  0.5865120000000  0.5197510000000  0.4924010000000 1.0
C      1  0.5834680000000  0.5631270000000  0.5111390000000 1.0
C      1  0.5961770000000  0.5179900000000  0.5191150000000 1.0
C      1  0.5007420000000  0.5875310000000  0.4636600000000 1.0
C      1  0.4561340000000  0.5067000000000  0.4242790000000 1.0
C      1  0.5512110000000  0.4294100000000  0.5208200000000 1.0
C      1  0.5772430000000  0.4340870000000  0.4795920000000 1.0
C      1  0.5337210000000  0.5343180000000  0.5397440000000 1.0
C      1  0.5809770000000  0.5477370000000  0.4850010000000 1.0
C      1  0.4692780000000  0.5335700000000  0.4179550000000 1.0
C      1  0.4662710000000  0.5586500000000  0.5189730000000 1.0
C      1  0.5077580000000  0.4035040000000  0.4867930000000 1.0
C      1  0.3915990000000  0.5426270000000  0.5099290000000 1.0
C      1  0.4811110000000  0.5784330000000  0.4424540000000 1.0
C      1  0.4809910000000  0.5461000000000  0.4746970000000 1.0
C      1  0.4960620000000  0.5194390000000  0.5661450000000 1.0
C      1  0.4529520000000  0.4451130000000  0.4510530000000 1.0
C      1  0.3688680000000  0.5557810000000  0.5198080000000 1.0
C      1  0.4931290000000  0.4177850000000  0.4653780000000 1.0
C      1  0.4340490000000  0.5538940000000  0.4480590000000 1.0
C      1  0.5268860000000  0.5665910000000  0.5001290000000 1.0
C      1  0.5694960000000  0.5002180000000  0.4817990000000 1.0
C      1  0.5777100000000  0.4328150000000  0.5090820000000 1.0
C      1  0.5558800000000  0.5361240000000  0.5568760000000 1.0
C      1  0.5289530000000  0.5134500000000  0.5007980000000 1.0
C      1  0.5144030000000  0.5626350000000  0.5760550000000 1.0
C      1  0.5715710000000  0.4811460000000  0.4239970000000 1.0
C      1  0.5752300000000  0.4564920000000  0.4354940000000 1.0
C      1  0.4686550000000  0.4304930000000  0.4705210000000 1.0
C      1  0.5947700000000  0.5440660000000  0.5308700000000 1.0
C      1  0.4322300000000  0.4273960000000  0.5018160000000 1.0
C      1  0.4522130000000  0.5341120000000  0.5217370000000 1.0
C      1  0.5830030000000  0.5055520000000  0.4342170000000 1.0
C      1  0.5260420000000  0.5127230000000  0.5995000000000 1.0
C      1  0.5461470000000  0.5396270000000  0.4163580000000 1.0
C      1  0.5058980000000  0.5828570000000  0.5136870000000 1.0
C      1  0.4085050000000  0.5573270000000  0.4924840000000 1.0
C      1  0.4975520000000  0.4819450000000  0.4777580000000 1.0
C      1  0.4610730000000  0.4563140000000  0.4264540000000 1.0
C      1  0.4292810000000  0.4571290000000  0.4627820000000 1.0
C      1  0.5905060000000  0.4506230000000  0.5268320000000 1.0
C      1  0.4023090000000  0.4668990000000  0.5393630000000 1.0
C      1  0.4949020000000  0.5354790000000  0.4032390000000 1.0
C      1  0.5172980000000  0.5020250000000  0.4245890000000 1.0
C      1  0.4848100000000  0.5011940000000  0.4624450000000 1.0
C      1  0.5681990000000  0.5833530000000  0.5246340000000 1.0
C      1  0.5225060000000  0.5251200000000  0.4078350000000 1.0
C      1  0.4498780000000  0.5182870000000  0.4980390000000 1.0
C      1  0.5294680000000  0.4854620000000  0.5968380000000 1.0
C      1  0.5682950000000  0.5304170000000  0.4356150000000 1.0
C      1  0.4688850000000  0.5210270000000  0.4769670000000 1.0
C      1  0.5407560000000  0.4458700000000  0.5658040000000 1.0
C      1  0.5357680000000  0.4033170000000  0.4788370000000 1.0
C      1  0.4501480000000  0.5934100000000  0.5922360000000 1.0
C      1  0.4163640000000  0.4400630000000  0.4819110000000 1.0
C      1  0.5893990000000  0.4965650000000  0.5356600000000 1.0
C      1  0.5328570000000  0.5404750000000  0.5111210000000 1.0
C      1  0.5482610000000  0.5703230000000  0.4532250000000 1.0
C      1  0.4349330000000  0.5055390000000  0.4450050000000 1.0
C      1  0.3672110000000  0.5291940000000  0.4296500000000 1.0
C      1  0.4718180000000  0.3957780000000  0.5246390000000 1.0
C      1  0.4845040000000  0.4469590000000  0.6123410000000 1.0
C      1  0.4895240000000  0.4880730000000  0.5044570000000 1.0
C      1  0.5125370000000  0.5146820000000  0.5440330000000 1.0
C      1  0.5493000000000  0.4278870000000  0.4727510000000 1.0
C      1  0.4881040000000  0.5897850000000  0.4902350000000 1.0
C      1  0.4118150000000  0.4417670000000  0.5419500000000 1.0
C      1  0.5144100000000  0.4482790000000  0.4267130000000 1.0
C      1  0.5118070000000  0.5342690000000  0.5857320000000 1.0
C      1  0.5335270000000  0.4506660000000  0.4813150000000 1.0
C      1  0.4684240000000  0.5164340000000  0.5656030000000 1.0
C      1  0.4721730000000  0.4455740000000  0.6352570000000 1.0
C      1  0.6085650000000  0.4732280000000  0.4631980000000 1.0
C      1  0.4709380000000  0.4508920000000  0.5171180000000 1.0
C      1  0.4323310000000  0.4853540000000  0.4676580000000 1.0
C      1  0.5183270000000  0.4742400000000  0.4205420000000 1.0
C      1  0.4914870000000  0.4517610000000  0.5378770000000 1.0
C      1  0.5897700000000  0.4515000000000  0.4602360000000 1.0
C      1  0.5278540000000  0.5765740000000  0.4716680000000 1.0
C      1  0.4975950000000  0.4490150000000  0.5878040000000 1.0
C      1  0.5762460000000  0.4722620000000  0.5392020000000 1.0
C      1  0.5323870000000  0.4483330000000  0.5093220000000 1.0
C      1  0.4422530000000  0.4909190000000  0.4951330000000 1.0
C      1  0.5390990000000  0.4218240000000  0.5467010000000 1.0
C      1  0.4880360000000  0.5714640000000  0.5344840000000 1.0
C      1  0.5035870000000  0.5408050000000  0.4571600000000 1.0
C      1  0.3956770000000  0.5157720000000  0.5182560000000 1.0
C      1  0.4519540000000  0.4093720000000  0.5413050000000 1.0
C      1  0.5818020000000  0.5436010000000  0.5559790000000 1.0
C      1  0.4636720000000  0.4226360000000  0.5635760000000 1.0
C      1  0.4194590000000  0.5293680000000  0.4425930000000 1.0
C      1  0.4700740000000  0.5841690000000  0.5782150000000 1.0
C      1  0.5691500000000  0.5504380000000  0.4589870000000 1.0
C      1  0.4636700000000  0.4772960000000  0.5096480000000 1.0
C      1  0.5229830000000  0.4684450000000  0.5291470000000 1.0
C      1  0.3927060000000  0.5292190000000  0.4350360000000 1.0
C      1  0.5041030000000  0.5142160000000  0.4465160000000 1.0
C      1  0.5244550000000  0.4585960000000  0.5864950000000 1.0
C      1  0.4631130000000  0.4807750000000  0.4150710000000 1.0
C      1  0.5252120000000  0.4758750000000  0.4732940000000 1.0
C      1  0.4846480000000  0.4418540000000  0.5635280000000 1.0
C      1  0.5377070000000  0.5776750000000  0.5679120000000 1.0
C      1  0.6060200000000  0.4976540000000  0.4502840000000 1.0
C      1  0.5419300000000  0.5671200000000  0.4252790000000 1.0
C      1  0.3477100000000  0.5679090000000  0.5289980000000 1.0
C      1  0.3972370000000  0.4915660000000  0.5298890000000 1.0
C      1  0.4709220000000  0.5665660000000  0.4914530000000 1.0
END
