TITL C-627109-622-2074 -179289.164303479 125000 -1214.00880386394 0 0 200 (C1) n - 1
REM
REM in /home/nfs/bkarasulu/CARBON/AIRSS/Generating-Clusters/LCBOP/Only-C1/SD-CG/FIRE-CG
REM
REM
REM
REM
REM
REM ./C.cell (11c1c37f851c82e70ff6c80c92926a4b)
REM AIRSS Version 0.9.1 bugfix July 2018 build 013d7b7c2542+ Fri, 06 Jul 2018 19:26:36 +0100
REM compiler GCC version 9.2.1 20190827 (Red Hat 9.2.1-1)
REM options -cpp -mtune=generic -march=x86-64 -g -O0 -fpre-include=/usr/include/finclude/math-vector-fortran.h
REM seed -1464094208 -1326296796 1140294269 1560802772 -1921240423 -171437684 1008378739 403884813 -1258924202 883419831 -1868470577 -1971439598 -2053610769 -857455847 -249770695 1510978191 196881189 -759326460 895422112 311823322 1822190836 -1465414259 1030133904 1497291801 -1931786263 805367071 1394814575 -839339710 690306836 782189453 -1031651558 -1325560038 108127458
REM
CELL 1.54180   50.00000   50.00000   50.00000   90.00000   90.00000   90.00000
LATT -1
SFAC C  
C      1  0.5628490000000  0.4347740000000  0.5327920000000 1.0
C      1  0.4878700000000  0.5733160000000  0.4714460000000 1.0
C      1  0.5778730000000  0.4457580000000  0.4519420000000 1.0
C      1  0.4685610000000  0.4108520000000  0.5847940000000 1.0
C      1  0.4878610000000  0.5418410000000  0.6158630000000 1.0
C      1  0.5788850000000  0.4186190000000  0.4624450000000 1.0
C      1  0.4936250000000  0.4502050000000  0.4327780000000 1.0
C      1  0.5725990000000  0.5394840000000  0.6051170000000 1.0
C      1  0.5636110000000  0.5840490000000  0.5014140000000 1.0
C      1  0.4813030000000  0.5648100000000  0.5935720000000 1.0
C      1  0.4207070000000  0.5486430000000  0.4371430000000 1.0
C      1  0.3962490000000  0.5347480000000  0.4829800000000 1.0
C      1  0.4496050000000  0.5539180000000  0.5107870000000 1.0
C      1  0.4577170000000  0.5178810000000  0.4835150000000 1.0
C      1  0.5871010000000  0.5497500000000  0.5583430000000 1.0
C      1  0.5616430000000  0.4043870000000  0.4201510000000 1.0
C      1  0.5733260000000  0.4537330000000  0.5553480000000 1.0
C      1  0.5133890000000  0.5729020000000  0.4856130000000 1.0
C      1  0.5622000000000  0.5967850000000  0.4258240000000 1.0
C      1  0.5053440000000  0.3802330000000  0.5725350000000 1.0
C      1  0.5772600000000  0.3996650000000  0.4418490000000 1.0
C      1  0.4968210000000  0.5016390000000  0.5919650000000 1.0
C      1  0.4006740000000  0.4636570000000  0.5036880000000 1.0
C      1  0.4356910000000  0.4420730000000  0.5933130000000 1.0
C      1  0.4701580000000  0.5602990000000  0.4548750000000 1.0
C      1  0.5533000000000  0.6017260000000  0.4526980000000 1.0
C      1  0.4309600000000  0.4738100000000  0.4677220000000 1.0
C      1  0.4614810000000  0.5279170000000  0.5716680000000 1.0
C      1  0.5025260000000  0.4380310000000  0.5245040000000 1.0
C      1  0.4326680000000  0.4104330000000  0.5213620000000 1.0
C      1  0.5390010000000  0.4539930000000  0.4081270000000 1.0
C      1  0.5476310000000  0.6181910000000  0.5460690000000 1.0
C      1  0.4007640000000  0.5168580000000  0.4593970000000 1.0
C      1  0.5379940000000  0.4198940000000  0.4193780000000 1.0
C      1  0.5374120000000  0.4900650000000  0.4831320000000 1.0
C      1  0.5350890000000  0.5110130000000  0.5607720000000 1.0
C      1  0.5901930000000  0.5956710000000  0.4210400000000 1.0
C      1  0.5196000000000  0.5039920000000  0.4643450000000 1.0
C      1  0.4557400000000  0.6119050000000  0.4636850000000 1.0
C      1  0.4420420000000  0.5061840000000  0.6371270000000 1.0
C      1  0.4134590000000  0.5041980000000  0.4140990000000 1.0
C      1  0.4628980000000  0.4488070000000  0.5519580000000 1.0
C      1  0.4168300000000  0.5759060000000  0.4427640000000 1.0
C      1  0.4871200000000  0.5093370000000  0.3907980000000 1.0
C      1  0.5979540000000  0.5209450000000  0.3520150000000 1.0
C      1  0.5419720000000  0.5382070000000  0.5636650000000 1.0
C      1  0.4641600000000  0.4829460000000  0.5403980000000 1.0
C      1  0.5647790000000  0.5363450000000  0.4153910000000 1.0
C      1  0.6100950000000  0.5773460000000  0.4212680000000 1.0
C      1  0.6155840000000  0.4557770000000  0.5059640000000 1.0
C      1  0.5189190000000  0.3637400000000  0.5294360000000 1.0
C      1  0.6009050000000  0.5103160000000  0.3283940000000 1.0
C      1  0.3962790000000  0.4544440000000  0.4378980000000 1.0
C      1  0.3861380000000  0.5484150000000  0.6004080000000 1.0
C      1  0.4934040000000  0.5504060000000  0.5277550000000 1.0
C      1  0.4449620000000  0.4147570000000  0.4262800000000 1.0
C      1  0.5887110000000  0.4656420000000  0.5060630000000 1.0
C      1  0.4062790000000  0.4438810000000  0.5588610000000 1.0
C      1  0.4611830000000  0.4285010000000  0.4711120000000 1.0
C      1  0.6196240000000  0.4504340000000  0.5338910000000 1.0
C      1  0.4564650000000  0.5575350000000  0.5771210000000 1.0
C      1  0.3997660000000  0.5647320000000  0.4891200000000 1.0
C      1  0.6205810000000  0.5317040000000  0.4402980000000 1.0
C      1  0.5454170000000  0.5799610000000  0.4102850000000 1.0
C      1  0.4065970000000  0.5129090000000  0.5300870000000 1.0
C      1  0.5003220000000  0.4498580000000  0.6178980000000 1.0
C      1  0.6111580000000  0.5292850000000  0.4888630000000 1.0
C      1  0.5493980000000  0.4650190000000  0.4817760000000 1.0
C      1  0.4447500000000  0.4323370000000  0.4480420000000 1.0
C      1  0.5115830000000  0.4946290000000  0.3923250000000 1.0
C      1  0.3661360000000  0.5657060000000  0.5985530000000 1.0
C      1  0.4590810000000  0.5193080000000  0.5442070000000 1.0
C      1  0.5299450000000  0.6167550000000  0.4581690000000 1.0
C      1  0.4812400000000  0.6230490000000  0.4691050000000 1.0
C      1  0.5308580000000  0.3907020000000  0.5780640000000 1.0
C      1  0.5547050000000  0.4649760000000  0.5763920000000 1.0
C      1  0.4304440000000  0.4040670000000  0.4926450000000 1.0
C      1  0.5136020000000  0.6571360000000  0.4778890000000 1.0
C      1  0.4391740000000  0.5093650000000  0.4002700000000 1.0
C      1  0.5091510000000  0.3886260000000  0.4644010000000 1.0
C      1  0.4518870000000  0.5143630000000  0.4542240000000 1.0
C      1  0.4843070000000  0.3897930000000  0.5882420000000 1.0
C      1  0.4192780000000  0.5063570000000  0.5846450000000 1.0
C      1  0.4820950000000  0.4776010000000  0.4823850000000 1.0
C      1  0.5598520000000  0.5574860000000  0.5593550000000 1.0
C      1  0.6123950000000  0.5144280000000  0.4624570000000 1.0
C      1  0.5368930000000  0.4751730000000  0.5288250000000 1.0
C      1  0.5169340000000  0.4313980000000  0.5001190000000 1.0
C      1  0.4741360000000  0.4963120000000  0.4426370000000 1.0
C      1  0.4520110000000  0.5818620000000  0.5047370000000 1.0
C      1  0.5427220000000  0.4145670000000  0.5810310000000 1.0
C      1  0.4791260000000  0.4491560000000  0.4793850000000 1.0
C      1  0.4676500000000  0.5397210000000  0.5279650000000 1.0
C      1  0.4918730000000  0.4546150000000  0.3820900000000 1.0
C      1  0.3453400000000  0.5809560000000  0.5924100000000 1.0
C      1  0.5097670000000  0.4520930000000  0.5718550000000 1.0
C      1  0.4723280000000  0.5937540000000  0.5203050000000 1.0
C      1  0.4942940000000  0.4855430000000  0.5409910000000 1.0
C      1  0.5362660000000  0.4428640000000  0.5865880000000 1.0
C      1  0.5110960000000  0.5089070000000  0.5439000000000 1.0
C      1  0.5655440000000  0.5215170000000  0.4398200000000 1.0
C      1  0.5215760000000  0.5292820000000  0.6163450000000 1.0
C      1  0.5376550000000  0.4147020000000  0.4896300000000 1.0
C      1  0.4246720000000  0.5000210000000  0.4595330000000 1.0
C      1  0.4033370000000  0.5264810000000  0.4321650000000 1.0
C      1  0.5148390000000  0.4070850000000  0.4342600000000 1.0
C      1  0.4580770000000  0.4018230000000  0.4806140000000 1.0
C      1  0.5317280000000  0.5979070000000  0.5367170000000 1.0
C      1  0.6015520000000  0.4621830000000  0.4581230000000 1.0
C      1  0.5097050000000  0.5878970000000  0.5527000000000 1.0
C      1  0.5081730000000  0.6320030000000  0.4681860000000 1.0
C      1  0.4616540000000  0.4943500000000  0.3890070000000 1.0
C      1  0.4157720000000  0.5816860000000  0.4709980000000 1.0
C      1  0.5364400000000  0.3790450000000  0.5143690000000 1.0
C      1  0.5011820000000  0.5811030000000  0.5794750000000 1.0
C      1  0.5946360000000  0.5308630000000  0.3763550000000 1.0
C      1  0.4820570000000  0.5361310000000  0.3977200000000 1.0
C      1  0.3837860000000  0.4525330000000  0.4855290000000 1.0
C      1  0.5291330000000  0.3878100000000  0.4871070000000 1.0
C      1  0.4505080000000  0.5407840000000  0.4393180000000 1.0
C      1  0.5906380000000  0.5335830000000  0.5829100000000 1.0
C      1  0.5408910000000  0.4971360000000  0.5104470000000 1.0
C      1  0.4021850000000  0.5713630000000  0.5182400000000 1.0
C      1  0.4381570000000  0.5328570000000  0.4969500000000 1.0
C      1  0.5385900000000  0.5253240000000  0.5113860000000 1.0
C      1  0.5413760000000  0.5521870000000  0.4130820000000 1.0
C      1  0.6169840000000  0.5046400000000  0.5345630000000 1.0
C      1  0.6075710000000  0.4908090000000  0.5575040000000 1.0
C      1  0.4095560000000  0.4146290000000  0.4742400000000 1.0
C      1  0.4920440000000  0.5781510000000  0.5330790000000 1.0
C      1  0.3945060000000  0.4379660000000  0.4630950000000 1.0
C      1  0.6013250000000  0.4630410000000  0.5531210000000 1.0
C      1  0.5661090000000  0.5368750000000  0.4645480000000 1.0
C      1  0.4129720000000  0.4565530000000  0.5849000000000 1.0
C      1  0.4758590000000  0.4836340000000  0.5922370000000 1.0
C      1  0.5199000000000  0.5414110000000  0.4281390000000 1.0
C      1  0.5736840000000  0.4944350000000  0.4365560000000 1.0
C      1  0.5357880000000  0.5867730000000  0.5097700000000 1.0
C      1  0.5058600000000  0.4416660000000  0.4767030000000 1.0
C      1  0.4980670000000  0.3720480000000  0.5461860000000 1.0
C      1  0.4457590000000  0.5710980000000  0.4038770000000 1.0
C      1  0.5165630000000  0.4658720000000  0.3926870000000 1.0
C      1  0.4154130000000  0.5722160000000  0.5425350000000 1.0
C      1  0.5664630000000  0.5856680000000  0.4719630000000 1.0
C      1  0.5651020000000  0.4214250000000  0.4872130000000 1.0
C      1  0.4740230000000  0.3825770000000  0.5353420000000 1.0
C      1  0.4919630000000  0.4218190000000  0.4245740000000 1.0
C      1  0.4344530000000  0.5693250000000  0.5623060000000 1.0
C      1  0.4343070000000  0.5896230000000  0.4237570000000 1.0
C      1  0.5978460000000  0.4898580000000  0.4526470000000 1.0
C      1  0.4126190000000  0.4811480000000  0.6003780000000 1.0
C      1  0.5483110000000  0.4534840000000  0.4553040000000 1.0
C      1  0.4560000000000  0.5421400000000  0.4092960000000 1.0
C      1  0.6211450000000  0.4539950000000  0.4779480000000 1.0
C      1  0.5183090000000  0.4500130000000  0.4516270000000 1.0
C      1  0.5972500000000  0.5493570000000  0.5315700000000 1.0
C      1  0.5814620000000  0.5614180000000  0.4657670000000 1.0
C      1  0.5228340000000  0.5025380000000  0.6033500000000 1.0
C      1  0.4401170000000  0.5944710000000  0.4816950000000 1.0
C      1  0.4496610000000  0.5088370000000  0.5902940000000 1.0
C      1  0.5420740000000  0.4925310000000  0.5823070000000 1.0
C      1  0.4755240000000  0.4310090000000  0.5329680000000 1.0
C      1  0.5899860000000  0.5385590000000  0.4026030000000 1.0
C      1  0.5249120000000  0.5497630000000  0.4749590000000 1.0
C      1  0.5185450000000  0.5312760000000  0.4544110000000 1.0
C      1  0.4889700000000  0.4586240000000  0.5928460000000 1.0
C      1  0.4810770000000  0.3860090000000  0.4730450000000 1.0
C      1  0.4606190000000  0.4068070000000  0.5297960000000 1.0
C      1  0.6103680000000  0.5262220000000  0.5182590000000 1.0
C      1  0.5655690000000  0.4478110000000  0.5028180000000 1.0
C      1  0.5476580000000  0.5413500000000  0.6165350000000 1.0
C      1  0.4043080000000  0.5296100000000  0.5962000000000 1.0
C      1  0.3246400000000  0.5946040000000  0.5843530000000 1.0
C      1  0.4904020000000  0.5236630000000  0.5766690000000 1.0
C      1  0.5591630000000  0.4747540000000  0.4188310000000 1.0
C      1  0.4686890000000  0.4100670000000  0.4142880000000 1.0
C      1  0.6106010000000  0.5490200000000  0.4198590000000 1.0
C      1  0.4949650000000  0.4919860000000  0.4617520000000 1.0
C      1  0.4693120000000  0.4691990000000  0.4340300000000 1.0
C      1  0.5533630000000  0.4049940000000  0.5309500000000 1.0
C      1  0.6014240000000  0.5075860000000  0.5793130000000 1.0
C      1  0.6013000000000  0.5570700000000  0.4860030000000 1.0
C      1  0.4594410000000  0.5221430000000  0.6205950000000 1.0
C      1  0.5141040000000  0.5316980000000  0.5256010000000 1.0
C      1  0.4114670000000  0.5052260000000  0.5553830000000 1.0
C      1  0.5272580000000  0.4446940000000  0.6155730000000 1.0
C      1  0.4487120000000  0.4802020000000  0.5145070000000 1.0
C      1  0.4478810000000  0.6110420000000  0.4361240000000 1.0
C      1  0.4658350000000  0.4942990000000  0.4966050000000 1.0
C      1  0.4445540000000  0.4598890000000  0.4459150000000 1.0
C      1  0.5473180000000  0.5376840000000  0.4874260000000 1.0
C      1  0.4563500000000  0.4346180000000  0.5764390000000 1.0
C      1  0.4672750000000  0.4672800000000  0.3813130000000 1.0
C      1  0.4234780000000  0.4874500000000  0.6274280000000 1.0
C      1  0.4027460000000  0.4765830000000  0.4216240000000 1.0
C      1  0.5124280000000  0.4611950000000  0.5415280000000 1.0
C      1  0.4123030000000  0.5235350000000  0.5047780000000 1.0
C      1  0.4275310000000  0.4698150000000  0.4971870000000 1.0
C      1  0.5879940000000  0.5682840000000  0.5110500000000 1.0
C      1  0.4149700000000  0.4260170000000  0.5391810000000 1.0
END
