TITL C-627108-131-694 -1.0702523090739e-06 125000 -604.034513779904 0 0 99 (C1) n - 1
REM
REM in /home/nfs/bkarasulu/CARBON/AIRSS/Generating-Clusters/LCBOP/Only-C1/SD-CG/FIRE-CG
REM
REM
REM
REM
REM
REM ./C.cell (11c1c37f851c82e70ff6c80c92926a4b)
REM AIRSS Version 0.9.1 bugfix July 2018 build 013d7b7c2542+ Fri, 06 Jul 2018 19:26:36 +0100
REM compiler GCC version 9.2.1 20190827 (Red Hat 9.2.1-1)
REM options -cpp -mtune=generic -march=x86-64 -g -O0 -fpre-include=/usr/include/finclude/math-vector-fortran.h
REM seed -1659346072 -1787541196 1189359772 -411989251 -808813706 1749104745 -1806246446 717633778 659813314 562367110 12266007 494111232 1800351755 -668483530 -1167488368 1676317981 265435957 1506778065 -1254944004 -321238666 -1923722902 2012447699 1269559266 -837889035 970742136 952382104 1959022655 -1959036963 -668180791 -1627692106 -1952976329 1496598790 -190263853
REM
CELL 1.54180   50.00000   50.00000   50.00000   90.00000   90.00000   90.00000
LATT -1
SFAC C  
C      1  0.5658730000000  0.5182230000000  0.5388840000000 1.0
C      1  0.4193890000000  0.4775460000000  0.5109700000000 1.0
C      1  0.4878080000000  0.4554170000000  0.5820610000000 1.0
C      1  0.4475780000000  0.5908470000000  0.5026720000000 1.0
C      1  0.5148280000000  0.4787430000000  0.4691050000000 1.0
C      1  0.5310000000000  0.4817000000000  0.4239910000000 1.0
C      1  0.5056510000000  0.4151760000000  0.5441280000000 1.0
C      1  0.5142500000000  0.5732460000000  0.5327170000000 1.0
C      1  0.4670300000000  0.5546940000000  0.4542330000000 1.0
C      1  0.4836130000000  0.4503340000000  0.5095890000000 1.0
C      1  0.5411910000000  0.4618690000000  0.5827250000000 1.0
C      1  0.5090070000000  0.5540040000000  0.5541160000000 1.0
C      1  0.4646310000000  0.5072190000000  0.5327500000000 1.0
C      1  0.4191370000000  0.5146250000000  0.5455630000000 1.0
C      1  0.4861380000000  0.4568820000000  0.4191660000000 1.0
C      1  0.4269270000000  0.4506240000000  0.5008670000000 1.0
C      1  0.4420900000000  0.4473630000000  0.4481290000000 1.0
C      1  0.4268260000000  0.5412640000000  0.5460240000000 1.0
C      1  0.5648030000000  0.5048970000000  0.3926430000000 1.0
C      1  0.5275790000000  0.5609190000000  0.4736050000000 1.0
C      1  0.4924940000000  0.4168830000000  0.4720280000000 1.0
C      1  0.4951610000000  0.5186110000000  0.5978530000000 1.0
C      1  0.4571270000000  0.6102540000000  0.4847410000000 1.0
C      1  0.5735490000000  0.4739430000000  0.4820910000000 1.0
C      1  0.4684280000000  0.4344220000000  0.5756200000000 1.0
C      1  0.4680670000000  0.4860350000000  0.4499260000000 1.0
C      1  0.4883650000000  0.5863470000000  0.5285760000000 1.0
C      1  0.5267330000000  0.4352380000000  0.5497520000000 1.0
C      1  0.5645410000000  0.5684490000000  0.5361050000000 1.0
C      1  0.5600650000000  0.4734260000000  0.5631580000000 1.0
C      1  0.4964940000000  0.4310360000000  0.4233420000000 1.0
C      1  0.5152840000000  0.4565640000000  0.5906280000000 1.0
C      1  0.4681240000000  0.6050280000000  0.4591320000000 1.0
C      1  0.5721760000000  0.4236990000000  0.4726110000000 1.0
C      1  0.5281000000000  0.5342240000000  0.5579040000000 1.0
C      1  0.5355620000000  0.4880970000000  0.4518710000000 1.0
C      1  0.5739770000000  0.5070310000000  0.5132850000000 1.0
C      1  0.4866250000000  0.4809500000000  0.4702520000000 1.0
C      1  0.4749570000000  0.4725560000000  0.4944630000000 1.0
C      1  0.4529350000000  0.5449170000000  0.4809850000000 1.0
C      1  0.4265260000000  0.4653460000000  0.5594610000000 1.0
C      1  0.4946980000000  0.4254450000000  0.4985520000000 1.0
C      1  0.5399500000000  0.5180610000000  0.5789430000000 1.0
C      1  0.4629860000000  0.6388250000000  0.4175220000000 1.0
C      1  0.4555170000000  0.4159850000000  0.5328530000000 1.0
C      1  0.4768190000000  0.4173860000000  0.5526920000000 1.0
C      1  0.4813610000000  0.4736290000000  0.5606180000000 1.0
C      1  0.5177780000000  0.4605790000000  0.5394910000000 1.0
C      1  0.4623350000000  0.4626140000000  0.4350130000000 1.0
C      1  0.4821560000000  0.5801000000000  0.4566290000000 1.0
C      1  0.4590810000000  0.5835050000000  0.5279290000000 1.0
C      1  0.5261610000000  0.4685040000000  0.4922470000000 1.0
C      1  0.4972950000000  0.4164070000000  0.4458150000000 1.0
C      1  0.5543970000000  0.5298680000000  0.4004700000000 1.0
C      1  0.5618070000000  0.5216080000000  0.4891050000000 1.0
C      1  0.5361640000000  0.5375440000000  0.4184650000000 1.0
C      1  0.4412900000000  0.5648020000000  0.5428380000000 1.0
C      1  0.4414290000000  0.4462290000000  0.5724170000000 1.0
C      1  0.5143710000000  0.5361620000000  0.4659920000000 1.0
C      1  0.5772840000000  0.5455010000000  0.5436770000000 1.0
C      1  0.5015720000000  0.5278400000000  0.4902990000000 1.0
C      1  0.4298120000000  0.4464030000000  0.4724250000000 1.0
C      1  0.5203540000000  0.5315080000000  0.4391950000000 1.0
C      1  0.5463790000000  0.5540210000000  0.4937050000000 1.0
C      1  0.4812650000000  0.5282160000000  0.4099290000000 1.0
C      1  0.4899380000000  0.4611870000000  0.5361380000000 1.0
C      1  0.5036960000000  0.4797620000000  0.4132430000000 1.0
C      1  0.4708430000000  0.4990100000000  0.5592330000000 1.0
C      1  0.5674690000000  0.4592000000000  0.5362940000000 1.0
C      1  0.4373990000000  0.4298530000000  0.5179250000000 1.0
C      1  0.4790410000000  0.5216590000000  0.5748830000000 1.0
C      1  0.5847280000000  0.5019730000000  0.3743600000000 1.0
C      1  0.4362830000000  0.5684130000000  0.4897370000000 1.0
C      1  0.5098850000000  0.5810290000000  0.4644260000000 1.0
C      1  0.4654020000000  0.6226280000000  0.4377950000000 1.0
C      1  0.5789780000000  0.4494100000000  0.4698060000000 1.0
C      1  0.5302680000000  0.4723140000000  0.5179790000000 1.0
C      1  0.4667230000000  0.5343250000000  0.4337290000000 1.0
C      1  0.4625690000000  0.4914930000000  0.5103170000000 1.0
C      1  0.4765550000000  0.5386490000000  0.4998990000000 1.0
C      1  0.5422060000000  0.4143030000000  0.5125590000000 1.0
C      1  0.4201450000000  0.4997510000000  0.4923820000000 1.0
C      1  0.5187270000000  0.5186760000000  0.5111990000000 1.0
C      1  0.4326390000000  0.5214910000000  0.4821040000000 1.0
C      1  0.4925440000000  0.5042550000000  0.4030740000000 1.0
C      1  0.5413310000000  0.5688300000000  0.5191850000000 1.0
C      1  0.4195910000000  0.4854570000000  0.5396680000000 1.0
C      1  0.5588300000000  0.4972440000000  0.4686850000000 1.0
C      1  0.4726470000000  0.5341640000000  0.5280940000000 1.0
C      1  0.5522240000000  0.4322940000000  0.5339870000000 1.0
C      1  0.4559760000000  0.5099590000000  0.4433320000000 1.0
C      1  0.5219770000000  0.5146490000000  0.6003460000000 1.0
C      1  0.5359650000000  0.5228740000000  0.5327960000000 1.0
C      1  0.5616120000000  0.5023090000000  0.5650790000000 1.0
C      1  0.4830540000000  0.5427720000000  0.5545530000000 1.0
C      1  0.5524150000000  0.4832190000000  0.4057420000000 1.0
C      1  0.5573280000000  0.4093590000000  0.4896320000000 1.0
C      1  0.5755900000000  0.4775100000000  0.5115460000000 1.0
C      1  0.5125210000000  0.4105870000000  0.5157270000000 1.0
END
