TITL C-627111-6168-405 -0.224418773090519 125000 -577.405888859773 0 0 95 (C1) n - 1
REM
REM in /home/nfs/bkarasulu/CARBON/AIRSS/Generating-Clusters/LCBOP/Only-C1/SD-CG/FIRE-CG
REM
REM
REM
REM
REM
REM ./C.cell (11c1c37f851c82e70ff6c80c92926a4b)
REM AIRSS Version 0.9.1 bugfix July 2018 build 013d7b7c2542+ Fri, 06 Jul 2018 19:26:36 +0100
REM compiler GCC version 9.2.1 20190827 (Red Hat 9.2.1-1)
REM options -cpp -mtune=generic -march=x86-64 -g -O0 -fpre-include=/usr/include/finclude/math-vector-fortran.h
REM seed -1369933756 -1901493238 -920756824 1767923560 -1748030087 -167076615 894212063 -1612611094 -2005109275 1091075717 -721971543 765210205 -1255561110 248138048 -449658164 1521099533 -851655791 -297712785 -1825356661 691817098 90876442 -1559721966 -1339317809 -1789697386 1445335237 219017519 -1009059393 -1252653146 844541353 1177379633 -57177552 -572167838 -392911418
REM
CELL 1.54180   50.00000   50.00000   50.00000   90.00000   90.00000   90.00000
LATT -1
SFAC C  
C      1  0.5299610000000  0.4629490000000  0.5283500000000 1.0
C      1  0.4619660000000  0.4807790000000  0.4649580000000 1.0
C      1  0.4704670000000  0.4690470000000  0.4927490000000 1.0
C      1  0.4993440000000  0.5608900000000  0.5616090000000 1.0
C      1  0.4850240000000  0.4977880000000  0.5910400000000 1.0
C      1  0.5414880000000  0.5903340000000  0.5202680000000 1.0
C      1  0.4320500000000  0.5717650000000  0.5417140000000 1.0
C      1  0.4734520000000  0.4176740000000  0.4569910000000 1.0
C      1  0.5638490000000  0.4566970000000  0.4390270000000 1.0
C      1  0.4729720000000  0.4181040000000  0.5354750000000 1.0
C      1  0.4277330000000  0.4860580000000  0.6340580000000 1.0
C      1  0.4902110000000  0.5814470000000  0.4400630000000 1.0
C      1  0.5064160000000  0.5404640000000  0.4618840000000 1.0
C      1  0.4568920000000  0.4787300000000  0.5421370000000 1.0
C      1  0.4856510000000  0.5256200000000  0.5957020000000 1.0
C      1  0.6016730000000  0.5280020000000  0.5084490000000 1.0
C      1  0.5091960000000  0.4845750000000  0.5826980000000 1.0
C      1  0.5167000000000  0.5954660000000  0.5073140000000 1.0
C      1  0.5815560000000  0.4118320000000  0.5662700000000 1.0
C      1  0.5472230000000  0.4476410000000  0.5124720000000 1.0
C      1  0.5186760000000  0.4871960000000  0.4430880000000 1.0
C      1  0.4879010000000  0.5265350000000  0.4787210000000 1.0
C      1  0.5737260000000  0.5548620000000  0.5457490000000 1.0
C      1  0.5072840000000  0.4358300000000  0.4272030000000 1.0
C      1  0.5098910000000  0.4491610000000  0.5426900000000 1.0
C      1  0.4682300000000  0.5801380000000  0.5099300000000 1.0
C      1  0.4949100000000  0.5863820000000  0.5504730000000 1.0
C      1  0.4600800000000  0.4838250000000  0.5909020000000 1.0
C      1  0.4675790000000  0.5044950000000  0.4474730000000 1.0
C      1  0.5000680000000  0.4304180000000  0.4543590000000 1.0
C      1  0.5631100000000  0.4532790000000  0.4671480000000 1.0
C      1  0.4450860000000  0.5189740000000  0.5069450000000 1.0
C      1  0.5170700000000  0.5333610000000  0.4376520000000 1.0
C      1  0.5177310000000  0.5879620000000  0.4339230000000 1.0
C      1  0.4930150000000  0.4485120000000  0.4079270000000 1.0
C      1  0.5131690000000  0.5081220000000  0.4249000000000 1.0
C      1  0.4545080000000  0.4203250000000  0.5548790000000 1.0
C      1  0.4680060000000  0.4622980000000  0.4098790000000 1.0
C      1  0.5786640000000  0.4258060000000  0.5439490000000 1.0
C      1  0.5969850000000  0.4896130000000  0.4708790000000 1.0
C      1  0.4172140000000  0.4754810000000  0.4932640000000 1.0
C      1  0.5117800000000  0.4490230000000  0.4762050000000 1.0
C      1  0.4700670000000  0.5604060000000  0.4386140000000 1.0
C      1  0.4675860000000  0.4899830000000  0.4026730000000 1.0
C      1  0.4923600000000  0.5908950000000  0.5224090000000 1.0
C      1  0.4384550000000  0.5420830000000  0.4657150000000 1.0
C      1  0.4646470000000  0.5832040000000  0.4815980000000 1.0
C      1  0.5002610000000  0.5018650000000  0.4875520000000 1.0
C      1  0.5066720000000  0.5416170000000  0.5421220000000 1.0
C      1  0.5242800000000  0.4902590000000  0.5253770000000 1.0
C      1  0.5335260000000  0.4994720000000  0.5838830000000 1.0
C      1  0.5322400000000  0.5362730000000  0.5321910000000 1.0
C      1  0.4918630000000  0.4357040000000  0.5244140000000 1.0
C      1  0.4713840000000  0.4822530000000  0.5185470000000 1.0
C      1  0.4336820000000  0.4285630000000  0.4850820000000 1.0
C      1  0.4594060000000  0.5342200000000  0.5267070000000 1.0
C      1  0.4874910000000  0.5937550000000  0.4677140000000 1.0
C      1  0.5070620000000  0.4595530000000  0.5689700000000 1.0
C      1  0.4228960000000  0.5296450000000  0.4453530000000 1.0
C      1  0.4460860000000  0.4412830000000  0.5695030000000 1.0
C      1  0.4528200000000  0.5622970000000  0.5265900000000 1.0
C      1  0.5793280000000  0.4759500000000  0.4275240000000 1.0
C      1  0.4568490000000  0.4226150000000  0.4338620000000 1.0
C      1  0.5734420000000  0.4413150000000  0.5215780000000 1.0
C      1  0.5594550000000  0.5774330000000  0.5356700000000 1.0
C      1  0.4416080000000  0.4634710000000  0.4530840000000 1.0
C      1  0.5311940000000  0.5977490000000  0.4562640000000 1.0
C      1  0.4574400000000  0.5279110000000  0.4825580000000 1.0
C      1  0.5648440000000  0.5396130000000  0.5682800000000 1.0
C      1  0.5111140000000  0.4805800000000  0.4695800000000 1.0
C      1  0.6032140000000  0.5105660000000  0.4883360000000 1.0
C      1  0.4256250000000  0.5166810000000  0.4216150000000 1.0
C      1  0.5421210000000  0.5118880000000  0.5262570000000 1.0
C      1  0.5513570000000  0.5193610000000  0.5800500000000 1.0
C      1  0.5928890000000  0.5430900000000  0.5286210000000 1.0
C      1  0.4899250000000  0.4471490000000  0.4975150000000 1.0
C      1  0.4912570000000  0.5500770000000  0.5861830000000 1.0
C      1  0.4251980000000  0.4988080000000  0.5047790000000 1.0
C      1  0.4499880000000  0.4499750000000  0.4289960000000 1.0
C      1  0.4703070000000  0.5306740000000  0.4358840000000 1.0
C      1  0.4963860000000  0.4991550000000  0.5179460000000 1.0
C      1  0.5840280000000  0.3982630000000  0.5883920000000 1.0
C      1  0.4433280000000  0.4849700000000  0.6132080000000 1.0
C      1  0.4933830000000  0.5030670000000  0.4046480000000 1.0
C      1  0.4523980000000  0.4687450000000  0.5680190000000 1.0
C      1  0.4510140000000  0.5673080000000  0.4610910000000 1.0
C      1  0.5411470000000  0.4458180000000  0.4842570000000 1.0
C      1  0.4864540000000  0.5250330000000  0.5313080000000 1.0
C      1  0.5951800000000  0.4921960000000  0.4425950000000 1.0
C      1  0.4565270000000  0.4144150000000  0.4797560000000 1.0
C      1  0.5137820000000  0.5994930000000  0.4794070000000 1.0
C      1  0.5864230000000  0.4648620000000  0.4807520000000 1.0
C      1  0.4426960000000  0.5039620000000  0.4047490000000 1.0
C      1  0.5933250000000  0.4526970000000  0.5051630000000 1.0
C      1  0.4254840000000  0.4543240000000  0.4756930000000 1.0
END
