TITL C-627111-6168-1203 -0.00015547503079652 125000 -490.175310536538 0 0 80 (C1) n - 1
REM
REM in /home/nfs/bkarasulu/CARBON/AIRSS/Generating-Clusters/LCBOP/Only-C1/SD-CG/FIRE-CG
REM
REM
REM
REM
REM
REM ./C.cell (11c1c37f851c82e70ff6c80c92926a4b)
REM AIRSS Version 0.9.1 bugfix July 2018 build 013d7b7c2542+ Fri, 06 Jul 2018 19:26:36 +0100
REM compiler GCC version 9.2.1 20190827 (Red Hat 9.2.1-1)
REM options -cpp -mtune=generic -march=x86-64 -g -O0 -fpre-include=/usr/include/finclude/math-vector-fortran.h
REM seed -705344226 -1026488504 -1112379129 -822085235 135354540 -203302286 -97628995 -2131543632 -979135967 1239636105 1813391986 -1395115180 -251226255 -936348121 1057530671 1465383940 1966655558 1451525719 -1042249710 711028981 -1107117566 1467035383 -783311286 -1629848864 794440116 -2026639561 1141639840 19784700 -143037100 392198003 1841012364 1620987348 -335284113
REM
CELL 1.54180   50.00000   50.00000   50.00000   90.00000   90.00000   90.00000
LATT -1
SFAC C  
C      1  0.5471900000000  0.4590460000000  0.5937270000000 1.0
C      1  0.5590680000000  0.4494100000000  0.5716920000000 1.0
C      1  0.5345440000000  0.4258660000000  0.5018650000000 1.0
C      1  0.4695390000000  0.5463770000000  0.5428930000000 1.0
C      1  0.5796910000000  0.5154890000000  0.4911050000000 1.0
C      1  0.4420460000000  0.4368070000000  0.5088540000000 1.0
C      1  0.5021700000000  0.5706890000000  0.4445800000000 1.0
C      1  0.5315950000000  0.5061810000000  0.5891960000000 1.0
C      1  0.5521450000000  0.5063410000000  0.5456530000000 1.0
C      1  0.4594190000000  0.4673220000000  0.4636240000000 1.0
C      1  0.4785830000000  0.4661110000000  0.5103380000000 1.0
C      1  0.5477610000000  0.4491320000000  0.4931500000000 1.0
C      1  0.4883550000000  0.5217160000000  0.4534450000000 1.0
C      1  0.5659660000000  0.4787150000000  0.4541240000000 1.0
C      1  0.4299220000000  0.5054290000000  0.5039280000000 1.0
C      1  0.5339250000000  0.4489030000000  0.4053130000000 1.0
C      1  0.4569120000000  0.4972950000000  0.6207770000000 1.0
C      1  0.5763010000000  0.5198200000000  0.5372610000000 1.0
C      1  0.4406770000000  0.4937530000000  0.5746330000000 1.0
C      1  0.5623890000000  0.5387560000000  0.4981250000000 1.0
C      1  0.5928200000000  0.4599620000000  0.5363410000000 1.0
C      1  0.4095560000000  0.4669390000000  0.4831330000000 1.0
C      1  0.4399340000000  0.5406310000000  0.4255090000000 1.0
C      1  0.4719190000000  0.4760500000000  0.6293530000000 1.0
C      1  0.4646250000000  0.5059330000000  0.3971160000000 1.0
C      1  0.5793180000000  0.4992300000000  0.4684140000000 1.0
C      1  0.5728180000000  0.5459050000000  0.5249430000000 1.0
C      1  0.4789210000000  0.5875370000000  0.4997260000000 1.0
C      1  0.4997690000000  0.4955460000000  0.4490060000000 1.0
C      1  0.5054290000000  0.5426440000000  0.4429170000000 1.0
C      1  0.4300230000000  0.4873800000000  0.5511520000000 1.0
C      1  0.5665130000000  0.4596790000000  0.5467560000000 1.0
C      1  0.5337260000000  0.5396810000000  0.4984390000000 1.0
C      1  0.6033490000000  0.4805020000000  0.5221620000000 1.0
C      1  0.5377780000000  0.4263650000000  0.3928120000000 1.0
C      1  0.4904490000000  0.5851500000000  0.4246370000000 1.0
C      1  0.4580270000000  0.5051000000000  0.5935150000000 1.0
C      1  0.4847280000000  0.4885580000000  0.5258620000000 1.0
C      1  0.5298860000000  0.4725360000000  0.4192960000000 1.0
C      1  0.5219170000000  0.5612700000000  0.5391280000000 1.0
C      1  0.4448240000000  0.4245880000000  0.4827860000000 1.0
C      1  0.5189840000000  0.5157680000000  0.5021200000000 1.0
C      1  0.4591890000000  0.5413960000000  0.5187840000000 1.0
C      1  0.4269320000000  0.4842150000000  0.5237210000000 1.0
C      1  0.5215110000000  0.5628770000000  0.5108160000000 1.0
C      1  0.4478780000000  0.5251850000000  0.4051160000000 1.0
C      1  0.4598270000000  0.5215670000000  0.4666360000000 1.0
C      1  0.5041300000000  0.4842820000000  0.4232060000000 1.0
C      1  0.4408450000000  0.5111150000000  0.6381260000000 1.0
C      1  0.4560220000000  0.5840950000000  0.4859360000000 1.0
C      1  0.4427370000000  0.4431950000000  0.4607920000000 1.0
C      1  0.5058220000000  0.5803580000000  0.4948380000000 1.0
C      1  0.4508280000000  0.5246540000000  0.4982050000000 1.0
C      1  0.4219110000000  0.4586120000000  0.5097470000000 1.0
C      1  0.5405600000000  0.4732050000000  0.5071550000000 1.0
C      1  0.5487030000000  0.5154690000000  0.4274210000000 1.0
C      1  0.4209500000000  0.4933270000000  0.4786670000000 1.0
C      1  0.4852120000000  0.4900200000000  0.4033320000000 1.0
C      1  0.5127660000000  0.4169190000000  0.5148380000000 1.0
C      1  0.4456690000000  0.4934600000000  0.4619020000000 1.0
C      1  0.4984740000000  0.5112020000000  0.5210660000000 1.0
C      1  0.4452830000000  0.5448190000000  0.4528630000000 1.0
C      1  0.4820120000000  0.4676480000000  0.4818500000000 1.0
C      1  0.5363440000000  0.4825240000000  0.6008140000000 1.0
C      1  0.5051190000000  0.4810240000000  0.4724740000000 1.0
C      1  0.5247950000000  0.4905270000000  0.4909050000000 1.0
C      1  0.5914060000000  0.5051490000000  0.5160880000000 1.0
C      1  0.4878790000000  0.4217740000000  0.5239560000000 1.0
C      1  0.5510860000000  0.4874660000000  0.4313420000000 1.0
C      1  0.4145720000000  0.4498830000000  0.4609020000000 1.0
C      1  0.4873740000000  0.5385630000000  0.5634460000000 1.0
C      1  0.5155310000000  0.5406950000000  0.5577550000000 1.0
C      1  0.5493210000000  0.4793470000000  0.5341080000000 1.0
C      1  0.4766240000000  0.5242010000000  0.5848500000000 1.0
C      1  0.5127360000000  0.5828770000000  0.4676090000000 1.0
C      1  0.5606850000000  0.4545160000000  0.4683730000000 1.0
C      1  0.5335030000000  0.5188160000000  0.5640040000000 1.0
C      1  0.5302020000000  0.5343120000000  0.4317390000000 1.0
C      1  0.4439430000000  0.5690300000000  0.4672900000000 1.0
C      1  0.4681080000000  0.4415650000000  0.5199230000000 1.0
END
