TITL C-627110-360-536 0.0776633942058916 125000 -1152.42122335533 0 0 187 (C1) n - 1
REM
REM in /home/nfs/bkarasulu/CARBON/AIRSS/Generating-Clusters/LCBOP/Only-C1/SD-CG/FIRE-CG
REM
REM
REM
REM
REM
REM ./C.cell (11c1c37f851c82e70ff6c80c92926a4b)
REM AIRSS Version 0.9.1 bugfix July 2018 build 013d7b7c2542+ Fri, 06 Jul 2018 19:26:36 +0100
REM compiler GCC version 9.2.1 20190827 (Red Hat 9.2.1-1)
REM options -cpp -mtune=generic -march=x86-64 -g -O0 -fpre-include=/usr/include/finclude/math-vector-fortran.h
REM seed -900186900 -1900689670 1866090457 345115015 -220714424 144375599 1315404592 -446674231 -734304976 -842692419 62271778 2143322173 -806090579 310965971 -259451704 1027723437 -600031074 -670080397 -36154394 -394155697 2037110543 -2006223028 -89547675 815164794 -1430551661 -442852140 2014617044 -906968569 598700095 1831401262 471272328 -1996602133 -1533529055
REM
CELL 1.54180   50.00000   50.00000   50.00000   90.00000   90.00000   90.00000
LATT -1
SFAC C  
C      1  0.4990690000000  0.5606290000000  0.5568450000000 1.0
C      1  0.4953280000000  0.5679680000000  0.3839210000000 1.0
C      1  0.4135470000000  0.3892660000000  0.4212410000000 1.0
C      1  0.4045870000000  0.5084220000000  0.4360120000000 1.0
C      1  0.3832580000000  0.4426330000000  0.5662650000000 1.0
C      1  0.5829500000000  0.4739340000000  0.4071250000000 1.0
C      1  0.5404370000000  0.6103110000000  0.4315420000000 1.0
C      1  0.5445330000000  0.4217940000000  0.4177880000000 1.0
C      1  0.5838400000000  0.4158810000000  0.5219400000000 1.0
C      1  0.4541550000000  0.4806190000000  0.5907410000000 1.0
C      1  0.4863680000000  0.5429970000000  0.3795680000000 1.0
C      1  0.5827460000000  0.5430250000000  0.5921070000000 1.0
C      1  0.5492160000000  0.5375750000000  0.5359040000000 1.0
C      1  0.5336360000000  0.5209300000000  0.3175440000000 1.0
C      1  0.4564470000000  0.5092800000000  0.4587940000000 1.0
C      1  0.5624770000000  0.3999510000000  0.4218060000000 1.0
C      1  0.5671810000000  0.3851890000000  0.4459220000000 1.0
C      1  0.4458100000000  0.3902180000000  0.5210980000000 1.0
C      1  0.6198500000000  0.4565010000000  0.4740000000000 1.0
C      1  0.6050520000000  0.4339990000000  0.5172240000000 1.0
C      1  0.5455890000000  0.4978290000000  0.3854150000000 1.0
C      1  0.4590290000000  0.5541660000000  0.4377070000000 1.0
C      1  0.4944120000000  0.4925950000000  0.5702140000000 1.0
C      1  0.5365700000000  0.5948340000000  0.5569900000000 1.0
C      1  0.5414890000000  0.4384590000000  0.4407450000000 1.0
C      1  0.5597660000000  0.4377140000000  0.4865350000000 1.0
C      1  0.4647360000000  0.3975040000000  0.5390440000000 1.0
C      1  0.4360030000000  0.4202300000000  0.4596060000000 1.0
C      1  0.5526790000000  0.4608440000000  0.5013240000000 1.0
C      1  0.4577650000000  0.5990570000000  0.5613750000000 1.0
C      1  0.5100200000000  0.5868270000000  0.5512320000000 1.0
C      1  0.4804220000000  0.5134720000000  0.4740770000000 1.0
C      1  0.5905070000000  0.4741490000000  0.5491700000000 1.0
C      1  0.5166890000000  0.3804310000000  0.4587160000000 1.0
C      1  0.5024580000000  0.5020510000000  0.5199030000000 1.0
C      1  0.5428370000000  0.3738240000000  0.4554680000000 1.0
C      1  0.4605390000000  0.4342030000000  0.4519410000000 1.0
C      1  0.4959910000000  0.5987390000000  0.5293400000000 1.0
C      1  0.5860300000000  0.5810680000000  0.5448930000000 1.0
C      1  0.6152660000000  0.4313720000000  0.4894840000000 1.0
C      1  0.3611670000000  0.5078520000000  0.5284600000000 1.0
C      1  0.5295660000000  0.5730860000000  0.5050320000000 1.0
C      1  0.4827690000000  0.5312380000000  0.6031530000000 1.0
C      1  0.3732540000000  0.4813780000000  0.4721140000000 1.0
C      1  0.6035370000000  0.5353840000000  0.5766930000000 1.0
C      1  0.4449980000000  0.5492980000000  0.5518390000000 1.0
C      1  0.4934040000000  0.4122070000000  0.6135270000000 1.0
C      1  0.4714130000000  0.4567270000000  0.5911770000000 1.0
C      1  0.4108410000000  0.4871280000000  0.5013130000000 1.0
C      1  0.4243940000000  0.4040450000000  0.4397620000000 1.0
C      1  0.5467110000000  0.4547630000000  0.5276230000000 1.0
C      1  0.6074370000000  0.4561670000000  0.4480700000000 1.0
C      1  0.3264850000000  0.5819210000000  0.5185790000000 1.0
C      1  0.5433700000000  0.4540410000000  0.5553760000000 1.0
C      1  0.5054370000000  0.5882520000000  0.5045270000000 1.0
C      1  0.4724420000000  0.5549980000000  0.5489880000000 1.0
C      1  0.5409300000000  0.3963810000000  0.5041860000000 1.0
C      1  0.6127730000000  0.5412320000000  0.5275720000000 1.0
C      1  0.4863060000000  0.5821010000000  0.4829100000000 1.0
C      1  0.5569720000000  0.4867590000000  0.4082450000000 1.0
C      1  0.4013360000000  0.5165860000000  0.5945020000000 1.0
C      1  0.3872280000000  0.5616070000000  0.4853900000000 1.0
C      1  0.5140560000000  0.4589400000000  0.6091390000000 1.0
C      1  0.4222590000000  0.4211000000000  0.4850880000000 1.0
C      1  0.4329190000000  0.4697060000000  0.5730740000000 1.0
C      1  0.5441780000000  0.5459410000000  0.5631210000000 1.0
C      1  0.5012640000000  0.5245750000000  0.4307040000000 1.0
C      1  0.5514140000000  0.5867020000000  0.4946570000000 1.0
C      1  0.3692100000000  0.4646180000000  0.5589800000000 1.0
C      1  0.3649120000000  0.5492220000000  0.4990580000000 1.0
C      1  0.4698260000000  0.5582390000000  0.4929980000000 1.0
C      1  0.5147450000000  0.5131090000000  0.5705510000000 1.0
C      1  0.5341280000000  0.5433800000000  0.6096500000000 1.0
C      1  0.4808460000000  0.4779990000000  0.4214820000000 1.0
C      1  0.3446950000000  0.5660940000000  0.5087300000000 1.0
C      1  0.6077510000000  0.5841630000000  0.5024950000000 1.0
C      1  0.4879930000000  0.5502690000000  0.4391970000000 1.0
C      1  0.4303360000000  0.4400000000000  0.5766720000000 1.0
C      1  0.5045180000000  0.5306630000000  0.5132760000000 1.0
C      1  0.5981220000000  0.4770840000000  0.4315380000000 1.0
C      1  0.5173870000000  0.4362950000000  0.3735400000000 1.0
C      1  0.5443640000000  0.4866050000000  0.4947610000000 1.0
C      1  0.4885120000000  0.5051170000000  0.4128950000000 1.0
C      1  0.5987310000000  0.5139960000000  0.4623670000000 1.0
C      1  0.3975370000000  0.5502440000000  0.4614120000000 1.0
C      1  0.4026480000000  0.5828520000000  0.4974450000000 1.0
C      1  0.6063170000000  0.5246390000000  0.5506530000000 1.0
C      1  0.4515920000000  0.6023380000000  0.4561690000000 1.0
C      1  0.4429630000000  0.5331030000000  0.4478870000000 1.0
C      1  0.4732090000000  0.5590140000000  0.5977160000000 1.0
C      1  0.5311760000000  0.4264890000000  0.3939230000000 1.0
C      1  0.6085010000000  0.4592290000000  0.5313130000000 1.0
C      1  0.5195350000000  0.4524230000000  0.4505900000000 1.0
C      1  0.5215390000000  0.4780270000000  0.6300160000000 1.0
C      1  0.4057360000000  0.4467510000000  0.5191910000000 1.0
C      1  0.4335870000000  0.4792320000000  0.5460210000000 1.0
C      1  0.4191620000000  0.4856650000000  0.4384490000000 1.0
C      1  0.4855070000000  0.4219210000000  0.4619890000000 1.0
C      1  0.5288710000000  0.5465220000000  0.5165880000000 1.0
C      1  0.5575210000000  0.6088570000000  0.4522130000000 1.0
C      1  0.5526690000000  0.5563710000000  0.4078140000000 1.0
C      1  0.5162490000000  0.5404050000000  0.5652550000000 1.0
C      1  0.4251840000000  0.4070350000000  0.5118570000000 1.0
C      1  0.6275400000000  0.4752550000000  0.5174030000000 1.0
C      1  0.4300160000000  0.5845070000000  0.5049140000000 1.0
C      1  0.5456270000000  0.5557240000000  0.4335340000000 1.0
C      1  0.3601730000000  0.5033410000000  0.4807240000000 1.0
C      1  0.6247050000000  0.4803760000000  0.4894800000000 1.0
C      1  0.5459420000000  0.5212740000000  0.3699700000000 1.0
C      1  0.4452120000000  0.4837730000000  0.4496860000000 1.0
C      1  0.4959870000000  0.4489670000000  0.4975820000000 1.0
C      1  0.5583800000000  0.5101880000000  0.4895100000000 1.0
C      1  0.4983780000000  0.5706900000000  0.4571510000000 1.0
C      1  0.4296870000000  0.5938620000000  0.5608410000000 1.0
C      1  0.4159550000000  0.4725800000000  0.5254150000000 1.0
C      1  0.6208790000000  0.5270890000000  0.5039600000000 1.0
C      1  0.4744210000000  0.4236400000000  0.5434340000000 1.0
C      1  0.4393340000000  0.5224680000000  0.5563450000000 1.0
C      1  0.5522640000000  0.5448520000000  0.3838030000000 1.0
C      1  0.5143630000000  0.4048990000000  0.4996140000000 1.0
C      1  0.5024870000000  0.4297270000000  0.5428210000000 1.0
C      1  0.5002190000000  0.4634980000000  0.5823180000000 1.0
C      1  0.5164100000000  0.4908440000000  0.4959690000000 1.0
C      1  0.4431400000000  0.5593780000000  0.5011720000000 1.0
C      1  0.4826520000000  0.5175590000000  0.3880330000000 1.0
C      1  0.5098010000000  0.5289120000000  0.6162660000000 1.0
C      1  0.5402540000000  0.5211100000000  0.3427500000000 1.0
C      1  0.4141560000000  0.5328950000000  0.4466640000000 1.0
C      1  0.4824270000000  0.4957250000000  0.5415950000000 1.0
C      1  0.6084880000000  0.4063420000000  0.4756240000000 1.0
C      1  0.5247070000000  0.5137080000000  0.4481550000000 1.0
C      1  0.5066500000000  0.5009570000000  0.4707790000000 1.0
C      1  0.4907190000000  0.4647560000000  0.3383370000000 1.0
C      1  0.4648560000000  0.6036020000000  0.4814880000000 1.0
C      1  0.5882010000000  0.5028660000000  0.5447320000000 1.0
C      1  0.3963220000000  0.5602330000000  0.5521860000000 1.0
C      1  0.5007600000000  0.4455430000000  0.4699250000000 1.0
C      1  0.5398020000000  0.5390310000000  0.4555650000000 1.0
C      1  0.5909270000000  0.3903220000000  0.4617460000000 1.0
C      1  0.5951610000000  0.5862910000000  0.4772230000000 1.0
C      1  0.4497890000000  0.5812110000000  0.4390620000000 1.0
C      1  0.4554510000000  0.4325030000000  0.5899650000000 1.0
C      1  0.5301770000000  0.4614620000000  0.6520640000000 1.0
C      1  0.6170860000000  0.5072060000000  0.4833050000000 1.0
C      1  0.5883460000000  0.4356630000000  0.4467840000000 1.0
C      1  0.4694150000000  0.5836010000000  0.5845760000000 1.0
C      1  0.5549300000000  0.5461320000000  0.5896820000000 1.0
C      1  0.4606100000000  0.4443530000000  0.5294200000000 1.0
C      1  0.5604210000000  0.5341350000000  0.4743900000000 1.0
C      1  0.4122050000000  0.4229740000000  0.5334090000000 1.0
C      1  0.4530250000000  0.5004970000000  0.5430640000000 1.0
C      1  0.4038490000000  0.4433570000000  0.4898620000000 1.0
C      1  0.4726330000000  0.5043970000000  0.5907020000000 1.0
C      1  0.5531060000000  0.4970620000000  0.4355170000000 1.0
C      1  0.4688580000000  0.4110110000000  0.6020750000000 1.0
C      1  0.5079830000000  0.4285480000000  0.5140740000000 1.0
C      1  0.5145370000000  0.5048010000000  0.6302920000000 1.0
C      1  0.4188000000000  0.5175040000000  0.5751380000000 1.0
C      1  0.5687830000000  0.5971610000000  0.4753230000000 1.0
C      1  0.4709630000000  0.4571650000000  0.5078210000000 1.0
C      1  0.4289130000000  0.5361120000000  0.5043910000000 1.0
C      1  0.4225500000000  0.5673490000000  0.5547010000000 1.0
C      1  0.5626560000000  0.4140660000000  0.5033330000000 1.0
C      1  0.4836090000000  0.5343370000000  0.4938100000000 1.0
C      1  0.4083880000000  0.4290120000000  0.5616110000000 1.0
C      1  0.5037870000000  0.4498430000000  0.3552610000000 1.0
C      1  0.5252540000000  0.4347330000000  0.6468850000000 1.0
C      1  0.4629100000000  0.4627160000000  0.4401210000000 1.0
C      1  0.5990340000000  0.5639050000000  0.4606960000000 1.0
C      1  0.4171770000000  0.5134500000000  0.4989500000000 1.0
C      1  0.5642040000000  0.5137870000000  0.5344560000000 1.0
C      1  0.5692740000000  0.4621640000000  0.5651860000000 1.0
C      1  0.5015440000000  0.3994740000000  0.4735320000000 1.0
C      1  0.5631350000000  0.4369000000000  0.4587430000000 1.0
C      1  0.5869180000000  0.5393960000000  0.4651550000000 1.0
C      1  0.5631790000000  0.5924710000000  0.5534020000000 1.0
C      1  0.3970310000000  0.4701580000000  0.4818720000000 1.0
C      1  0.5160380000000  0.4469520000000  0.5618820000000 1.0
C      1  0.5824360000000  0.4970300000000  0.4460540000000 1.0
C      1  0.4510730000000  0.6047250000000  0.5082220000000 1.0
C      1  0.5125600000000  0.4313320000000  0.6210730000000 1.0
C      1  0.3629860000000  0.4873460000000  0.5458660000000 1.0
C      1  0.6038670000000  0.5690320000000  0.5262670000000 1.0
C      1  0.5074780000000  0.5886020000000  0.3960700000000 1.0
C      1  0.4679750000000  0.6049360000000  0.5335800000000 1.0
C      1  0.5228080000000  0.6032570000000  0.4125450000000 1.0
C      1  0.3615230000000  0.5208140000000  0.5030210000000 1.0
END
