TITL C-627108-131-1690 0.00074160402747589 125000 -808.579905733207 0 0 131 (C1) n - 1
REM
REM in /home/nfs/bkarasulu/CARBON/AIRSS/Generating-Clusters/LCBOP/Only-C1/SD-CG/FIRE-CG
REM
REM
REM
REM
REM
REM ./C.cell (11c1c37f851c82e70ff6c80c92926a4b)
REM AIRSS Version 0.9.1 bugfix July 2018 build 013d7b7c2542+ Fri, 06 Jul 2018 19:26:36 +0100
REM compiler GCC version 9.2.1 20190827 (Red Hat 9.2.1-1)
REM options -cpp -mtune=generic -march=x86-64 -g -O0 -fpre-include=/usr/include/finclude/math-vector-fortran.h
REM seed 1954397226 1381287111 1440148739 1322106779 690091186 -657974230 -909377275 -1524063740 1866444576 -1000128397 -2059786023 -506946141 589656997 726726401 -1089180280 1249308625 1782119859 1406385975 -552124078 326948649 -2087869617 -353736989 1680479823 -2028381466 1769322718 1591329252 -295365696 -2133195039 -955664895 -1785746730 1402880698 20950559 -2008565475
REM
CELL 1.54180   50.00000   50.00000   50.00000   90.00000   90.00000   90.00000
LATT -1
SFAC C  
C      1  0.4522860000000  0.6011710000000  0.5364510000000 1.0
C      1  0.5654660000000  0.6006790000000  0.5282300000000 1.0
C      1  0.4432410000000  0.4875780000000  0.5012000000000 1.0
C      1  0.4109230000000  0.5215850000000  0.4483910000000 1.0
C      1  0.5543540000000  0.5856750000000  0.5069260000000 1.0
C      1  0.4832060000000  0.3982780000000  0.5306380000000 1.0
C      1  0.5255290000000  0.5887120000000  0.5034870000000 1.0
C      1  0.4821830000000  0.5161330000000  0.5212220000000 1.0
C      1  0.5852140000000  0.5090350000000  0.5513640000000 1.0
C      1  0.4668660000000  0.4161210000000  0.4430830000000 1.0
C      1  0.5491740000000  0.4687260000000  0.5999020000000 1.0
C      1  0.4777490000000  0.5619040000000  0.5534880000000 1.0
C      1  0.5407410000000  0.5393570000000  0.4333550000000 1.0
C      1  0.4330120000000  0.5700820000000  0.5003850000000 1.0
C      1  0.4873400000000  0.5032990000000  0.5990180000000 1.0
C      1  0.5545200000000  0.5472720000000  0.3767120000000 1.0
C      1  0.4778430000000  0.4758090000000  0.6033400000000 1.0
C      1  0.4739500000000  0.4300280000000  0.5907720000000 1.0
C      1  0.5511420000000  0.5229520000000  0.3913140000000 1.0
C      1  0.5210640000000  0.4575810000000  0.4103590000000 1.0
C      1  0.4086790000000  0.5572820000000  0.4933610000000 1.0
C      1  0.4982850000000  0.5176440000000  0.3836960000000 1.0
C      1  0.4442360000000  0.3991930000000  0.5606150000000 1.0
C      1  0.5226130000000  0.4308100000000  0.5250090000000 1.0
C      1  0.4939960000000  0.4725800000000  0.5345620000000 1.0
C      1  0.4036500000000  0.4495960000000  0.4286650000000 1.0
C      1  0.5005650000000  0.4511630000000  0.4883830000000 1.0
C      1  0.5453690000000  0.4878610000000  0.5358040000000 1.0
C      1  0.5277300000000  0.5094640000000  0.5447580000000 1.0
C      1  0.4004940000000  0.5304260000000  0.4967610000000 1.0
C      1  0.5244320000000  0.4210480000000  0.4561800000000 1.0
C      1  0.4535500000000  0.4384080000000  0.5015510000000 1.0
C      1  0.4791700000000  0.5798370000000  0.4840260000000 1.0
C      1  0.4178350000000  0.5196500000000  0.5452530000000 1.0
C      1  0.5807710000000  0.5388770000000  0.5143680000000 1.0
C      1  0.5478990000000  0.4008790000000  0.5011610000000 1.0
C      1  0.4338590000000  0.5403890000000  0.5559840000000 1.0
C      1  0.4514480000000  0.5051150000000  0.3936650000000 1.0
C      1  0.5065740000000  0.4069750000000  0.5190160000000 1.0
C      1  0.5555730000000  0.5179990000000  0.4835430000000 1.0
C      1  0.5439970000000  0.4425010000000  0.4171660000000 1.0
C      1  0.4570060000000  0.5605190000000  0.4867650000000 1.0
C      1  0.5595170000000  0.5239700000000  0.4189860000000 1.0
C      1  0.5258400000000  0.5104360000000  0.3852800000000 1.0
C      1  0.5819630000000  0.5148400000000  0.4958350000000 1.0
C      1  0.4592460000000  0.4078480000000  0.5826050000000 1.0
C      1  0.5608980000000  0.4952200000000  0.5978610000000 1.0
C      1  0.5194930000000  0.3948230000000  0.4954450000000 1.0
C      1  0.5265640000000  0.4274840000000  0.5889880000000 1.0
C      1  0.4203460000000  0.4893100000000  0.4844630000000 1.0
C      1  0.4514040000000  0.4638290000000  0.5137800000000 1.0
C      1  0.5710890000000  0.4863030000000  0.5471550000000 1.0
C      1  0.5380020000000  0.4192140000000  0.4320460000000 1.0
C      1  0.5387050000000  0.5557930000000  0.5665050000000 1.0
C      1  0.4768350000000  0.4348180000000  0.4860460000000 1.0
C      1  0.5080430000000  0.4019350000000  0.4700460000000 1.0
C      1  0.4576070000000  0.5303980000000  0.4810440000000 1.0
C      1  0.4538940000000  0.4641070000000  0.5624160000000 1.0
C      1  0.4366630000000  0.5248840000000  0.4364520000000 1.0
C      1  0.5879540000000  0.4898910000000  0.4529500000000 1.0
C      1  0.4806900000000  0.4128810000000  0.4678580000000 1.0
C      1  0.5664260000000  0.4398360000000  0.5617050000000 1.0
C      1  0.5005270000000  0.4592840000000  0.6131710000000 1.0
C      1  0.4561430000000  0.4028680000000  0.5347280000000 1.0
C      1  0.4565710000000  0.4423900000000  0.4368390000000 1.0
C      1  0.5235030000000  0.4753620000000  0.6129220000000 1.0
C      1  0.5694740000000  0.4531750000000  0.4219380000000 1.0
C      1  0.4576870000000  0.6518690000000  0.5183400000000 1.0
C      1  0.4543600000000  0.6274470000000  0.5280350000000 1.0
C      1  0.4468750000000  0.5283120000000  0.4099490000000 1.0
C      1  0.4407370000000  0.4166120000000  0.5144600000000 1.0
C      1  0.5080110000000  0.5859630000000  0.4806470000000 1.0
C      1  0.4615850000000  0.5406140000000  0.5652000000000 1.0
C      1  0.5356920000000  0.4783030000000  0.5107950000000 1.0
C      1  0.5156890000000  0.5039570000000  0.6069180000000 1.0
C      1  0.5023640000000  0.5324600000000  0.4840930000000 1.0
C      1  0.5668750000000  0.5609710000000  0.4998460000000 1.0
C      1  0.5118190000000  0.5822770000000  0.5270770000000 1.0
C      1  0.4060780000000  0.5122450000000  0.4752350000000 1.0
C      1  0.4596020000000  0.5111910000000  0.5037890000000 1.0
C      1  0.5417520000000  0.5151820000000  0.6015940000000 1.0
C      1  0.4732880000000  0.4657930000000  0.4350240000000 1.0
C      1  0.4238490000000  0.5657570000000  0.5475370000000 1.0
C      1  0.5187110000000  0.5706130000000  0.4596220000000 1.0
C      1  0.5921000000000  0.4909810000000  0.4825680000000 1.0
C      1  0.5486390000000  0.5805160000000  0.5700480000000 1.0
C      1  0.5198840000000  0.4469130000000  0.4676140000000 1.0
C      1  0.4567710000000  0.5162900000000  0.4551900000000 1.0
C      1  0.4128290000000  0.4117760000000  0.5157890000000 1.0
C      1  0.5011500000000  0.4332740000000  0.6002340000000 1.0
C      1  0.4017340000000  0.5199620000000  0.5233650000000 1.0
C      1  0.4290700000000  0.4452860000000  0.4324440000000 1.0
C      1  0.5556790000000  0.5468100000000  0.4773890000000 1.0
C      1  0.4612190000000  0.6761890000000  0.5084090000000 1.0
C      1  0.4997170000000  0.5007480000000  0.5378860000000 1.0
C      1  0.4012270000000  0.4014040000000  0.5381510000000 1.0
C      1  0.5086470000000  0.5652380000000  0.3798340000000 1.0
C      1  0.5507090000000  0.4233010000000  0.5195430000000 1.0
C      1  0.4962310000000  0.5595560000000  0.5316170000000 1.0
C      1  0.5447720000000  0.5587450000000  0.4543830000000 1.0
C      1  0.5139020000000  0.5286820000000  0.4369870000000 1.0
C      1  0.5855000000000  0.4647900000000  0.4400300000000 1.0
C      1  0.5117240000000  0.5051320000000  0.4771610000000 1.0
C      1  0.4962800000000  0.4640010000000  0.4185060000000 1.0
C      1  0.5942020000000  0.4470230000000  0.5190580000000 1.0
C      1  0.5614940000000  0.5985790000000  0.5548140000000 1.0
C      1  0.5723270000000  0.5321290000000  0.5409520000000 1.0
C      1  0.5494230000000  0.4445540000000  0.5841380000000 1.0
C      1  0.4663880000000  0.4660160000000  0.5376660000000 1.0
C      1  0.5358540000000  0.4981330000000  0.4896110000000 1.0
C      1  0.4688790000000  0.5890880000000  0.5562480000000 1.0
C      1  0.5348950000000  0.5657430000000  0.3734660000000 1.0
C      1  0.4905100000000  0.5455270000000  0.3885580000000 1.0
C      1  0.5440040000000  0.5336270000000  0.5499700000000 1.0
C      1  0.5127760000000  0.4580950000000  0.5151480000000 1.0
C      1  0.4626990000000  0.4569680000000  0.5877540000000 1.0
C      1  0.4336680000000  0.5821680000000  0.5264330000000 1.0
C      1  0.4656590000000  0.5489280000000  0.4025570000000 1.0
C      1  0.4161700000000  0.3950550000000  0.5600300000000 1.0
C      1  0.4958230000000  0.5392010000000  0.5117090000000 1.0
C      1  0.5935690000000  0.4672100000000  0.4986700000000 1.0
C      1  0.4646960000000  0.7001070000000  0.4986370000000 1.0
C      1  0.4758330000000  0.5002150000000  0.3823330000000 1.0
C      1  0.4668210000000  0.4899270000000  0.4491120000000 1.0
C      1  0.4636290000000  0.3952240000000  0.4257440000000 1.0
C      1  0.6188730000000  0.4365140000000  0.5254230000000 1.0
C      1  0.5713750000000  0.4364600000000  0.5335140000000 1.0
C      1  0.5793970000000  0.5111280000000  0.4351550000000 1.0
C      1  0.5118530000000  0.5028380000000  0.4486350000000 1.0
C      1  0.4729170000000  0.5227970000000  0.5843440000000 1.0
C      1  0.5025730000000  0.5464990000000  0.4580160000000 1.0
END
