TITL C-627107-135-1648 -9079.90231777596 125000 -1210.64837148281 0 0 198 (C1) n - 1
REM
REM in /home/nfs/bkarasulu/CARBON/AIRSS/Generating-Clusters/LCBOP/Only-C1/SD-CG/FIRE-CG
REM
REM
REM
REM
REM
REM ./C.cell (11c1c37f851c82e70ff6c80c92926a4b)
REM AIRSS Version 0.9.1 bugfix July 2018 build 013d7b7c2542+ Fri, 06 Jul 2018 19:26:36 +0100
REM compiler GCC version 9.2.1 20190827 (Red Hat 9.2.1-1)
REM options -cpp -mtune=generic -march=x86-64 -g -O0 -fpre-include=/usr/include/finclude/math-vector-fortran.h
REM seed 204850853 1368953867 -488517736 -528013509 184224530 -60071213 1236128498 7533966 -1983541658 1537951505 2079107475 -1119844960 -647616214 -1973137741 416854826 1487204888 258479450 1972307851 -864948122 1839930664 -265972828 -363585194 -1616119417 -24465477 -522379151 -1137455689 1928249991 592785283 -559666976 -1764932631 1924033676 -1787995444 679399268
REM
CELL 1.54180   50.00000   50.00000   50.00000   90.00000   90.00000   90.00000
LATT -1
SFAC C  
C      1  0.5875860000000  0.4997090000000  0.5647320000000 1.0
C      1  0.5963880000000  0.4024560000000  0.3257440000000 1.0
C      1  0.5241120000000  0.4895290000000  0.5654300000000 1.0
C      1  0.4953100000000  0.5859150000000  0.4522010000000 1.0
C      1  0.4789040000000  0.5090510000000  0.5654360000000 1.0
C      1  0.4365970000000  0.3783550000000  0.4536040000000 1.0
C      1  0.4145790000000  0.5239920000000  0.4330550000000 1.0
C      1  0.5902540000000  0.4159890000000  0.3471660000000 1.0
C      1  0.6256530000000  0.5026790000000  0.4704960000000 1.0
C      1  0.5078420000000  0.5495310000000  0.6259530000000 1.0
C      1  0.5730880000000  0.5469800000000  0.4130580000000 1.0
C      1  0.5703730000000  0.4895150000000  0.5857490000000 1.0
C      1  0.5987750000000  0.4387480000000  0.6375550000000 1.0
C      1  0.4704960000000  0.5795110000000  0.4642320000000 1.0
C      1  0.5103590000000  0.4675690000000  0.4531780000000 1.0
C      1  0.6193250000000  0.4952530000000  0.5274830000000 1.0
C      1  0.5276060000000  0.4546400000000  0.5091820000000 1.0
C      1  0.4633090000000  0.4430130000000  0.5362710000000 1.0
C      1  0.5500720000000  0.3765770000000  0.4417810000000 1.0
C      1  0.5852630000000  0.4303150000000  0.6169190000000 1.0
C      1  0.5686030000000  0.5712980000000  0.4556150000000 1.0
C      1  0.4363950000000  0.4585430000000  0.5995940000000 1.0
C      1  0.4768620000000  0.5197280000000  0.3841930000000 1.0
C      1  0.4549350000000  0.3792350000000  0.5039200000000 1.0
C      1  0.4536220000000  0.4972810000000  0.5699400000000 1.0
C      1  0.5730930000000  0.5371810000000  0.5966420000000 1.0
C      1  0.5591990000000  0.5524140000000  0.4367810000000 1.0
C      1  0.4135040000000  0.4758890000000  0.5965470000000 1.0
C      1  0.5066060000000  0.4174130000000  0.5268770000000 1.0
C      1  0.4996140000000  0.4938810000000  0.5778910000000 1.0
C      1  0.5689840000000  0.5988080000000  0.5435400000000 1.0
C      1  0.5233260000000  0.4800190000000  0.4980120000000 1.0
C      1  0.5711840000000  0.4235210000000  0.5955310000000 1.0
C      1  0.6031660000000  0.5614770000000  0.5552470000000 1.0
C      1  0.5525820000000  0.4423650000000  0.5042270000000 1.0
C      1  0.6239680000000  0.5224310000000  0.5180850000000 1.0
C      1  0.4264830000000  0.5581600000000  0.4705610000000 1.0
C      1  0.4617720000000  0.4490810000000  0.5086980000000 1.0
C      1  0.5707090000000  0.4426380000000  0.5290050000000 1.0
C      1  0.5749820000000  0.4493210000000  0.4192470000000 1.0
C      1  0.4810660000000  0.5576960000000  0.5397500000000 1.0
C      1  0.4910460000000  0.5624180000000  0.5133310000000 1.0
C      1  0.5124720000000  0.6535490000000  0.4370470000000 1.0
C      1  0.4816670000000  0.3694740000000  0.4978830000000 1.0
C      1  0.4473830000000  0.5268700000000  0.5322990000000 1.0
C      1  0.4659570000000  0.5842730000000  0.3700380000000 1.0
C      1  0.6114270000000  0.4793290000000  0.4802430000000 1.0
C      1  0.5029640000000  0.3871540000000  0.4907590000000 1.0
C      1  0.5253380000000  0.5921190000000  0.4895190000000 1.0
C      1  0.4290530000000  0.5109800000000  0.5722370000000 1.0
C      1  0.4628180000000  0.4945780000000  0.4280240000000 1.0
C      1  0.4394800000000  0.4417590000000  0.4578600000000 1.0
C      1  0.4666700000000  0.4513560000000  0.3893320000000 1.0
C      1  0.3919500000000  0.4687560000000  0.5795140000000 1.0
C      1  0.4604520000000  0.4765250000000  0.5022950000000 1.0
C      1  0.5374830000000  0.5351520000000  0.4439200000000 1.0
C      1  0.6166110000000  0.6085470000000  0.5490390000000 1.0
C      1  0.3761800000000  0.4953320000000  0.5401050000000 1.0
C      1  0.5072070000000  0.4935820000000  0.5172690000000 1.0
C      1  0.5265690000000  0.4157700000000  0.5722000000000 1.0
C      1  0.3745400000000  0.5140090000000  0.5208920000000 1.0
C      1  0.4194880000000  0.5979760000000  0.3894080000000 1.0
C      1  0.3801610000000  0.5318560000000  0.4997590000000 1.0
C      1  0.5485900000000  0.4879410000000  0.4563130000000 1.0
C      1  0.5224950000000  0.4031740000000  0.5454420000000 1.0
C      1  0.4956240000000  0.4971030000000  0.3895370000000 1.0
C      1  0.4905800000000  0.4674850000000  0.3905920000000 1.0
C      1  0.4335320000000  0.5450330000000  0.6320400000000 1.0
C      1  0.5103990000000  0.4453210000000  0.5295330000000 1.0
C      1  0.4248140000000  0.5283220000000  0.5503390000000 1.0
C      1  0.3886880000000  0.5882500000000  0.4590330000000 1.0
C      1  0.4409830000000  0.5927690000000  0.3744980000000 1.0
C      1  0.5009700000000  0.6013900000000  0.4288990000000 1.0
C      1  0.4778660000000  0.5206850000000  0.4936740000000 1.0
C      1  0.4026570000000  0.5998110000000  0.4099980000000 1.0
C      1  0.4356030000000  0.5324190000000  0.4159200000000 1.0
C      1  0.4505340000000  0.3956680000000  0.5281070000000 1.0
C      1  0.6169200000000  0.5447730000000  0.5353940000000 1.0
C      1  0.3863780000000  0.5224950000000  0.4736660000000 1.0
C      1  0.6011230000000  0.5063070000000  0.4013890000000 1.0
C      1  0.4479610000000  0.5198130000000  0.3922480000000 1.0
C      1  0.5067840000000  0.6285760000000  0.4322380000000 1.0
C      1  0.5075400000000  0.4297830000000  0.5881960000000 1.0
C      1  0.5368510000000  0.5099710000000  0.6167720000000 1.0
C      1  0.4327620000000  0.5123840000000  0.4845610000000 1.0
C      1  0.4225420000000  0.4310380000000  0.4376630000000 1.0
C      1  0.5018510000000  0.3877990000000  0.4070410000000 1.0
C      1  0.4982680000000  0.5217210000000  0.4731070000000 1.0
C      1  0.5361880000000  0.5068980000000  0.4338790000000 1.0
C      1  0.5602530000000  0.5106810000000  0.4949940000000 1.0
C      1  0.4167560000000  0.5286420000000  0.4644070000000 1.0
C      1  0.4382130000000  0.3783850000000  0.4806780000000 1.0
C      1  0.4992580000000  0.4949570000000  0.4589700000000 1.0
C      1  0.4442860000000  0.5594340000000  0.4965930000000 1.0
C      1  0.4532090000000  0.5792980000000  0.5740300000000 1.0
C      1  0.5557590000000  0.4198470000000  0.5727990000000 1.0
C      1  0.4529310000000  0.5516670000000  0.4283700000000 1.0
C      1  0.4290710000000  0.5467220000000  0.6590790000000 1.0
C      1  0.5095270000000  0.3761920000000  0.3850000000000 1.0
C      1  0.4399020000000  0.4848790000000  0.4842750000000 1.0
C      1  0.4642880000000  0.4289120000000  0.4648030000000 1.0
C      1  0.5844390000000  0.4291070000000  0.3694530000000 1.0
C      1  0.5431080000000  0.5635520000000  0.5711750000000 1.0
C      1  0.4977690000000  0.4770770000000  0.6015480000000 1.0
C      1  0.4402300000000  0.3729360000000  0.6023220000000 1.0
C      1  0.4866720000000  0.5463110000000  0.3923300000000 1.0
C      1  0.4982540000000  0.6102960000000  0.5822350000000 1.0
C      1  0.4808220000000  0.4959580000000  0.5087150000000 1.0
C      1  0.5480100000000  0.3841250000000  0.5081980000000 1.0
C      1  0.5176520000000  0.4885770000000  0.6196940000000 1.0
C      1  0.5794740000000  0.4404590000000  0.3928590000000 1.0
C      1  0.5577690000000  0.5359010000000  0.5454080000000 1.0
C      1  0.5490100000000  0.4740940000000  0.5729290000000 1.0
C      1  0.4387450000000  0.3887450000000  0.4284710000000 1.0
C      1  0.5486470000000  0.3965740000000  0.5333040000000 1.0
C      1  0.4877530000000  0.4496360000000  0.5963910000000 1.0
C      1  0.4617530000000  0.5822420000000  0.6012750000000 1.0
C      1  0.5277090000000  0.6078280000000  0.5141550000000 1.0
C      1  0.5513360000000  0.4224260000000  0.4567280000000 1.0
C      1  0.4512730000000  0.4307700000000  0.3986990000000 1.0
C      1  0.4498740000000  0.5647990000000  0.6199060000000 1.0
C      1  0.5552640000000  0.5580340000000  0.5287190000000 1.0
C      1  0.5942450000000  0.4680230000000  0.4603120000000 1.0
C      1  0.3572810000000  0.4520700000000  0.5503600000000 1.0
C      1  0.4837640000000  0.6003380000000  0.6033420000000 1.0
C      1  0.4053270000000  0.5657950000000  0.5262750000000 1.0
C      1  0.4215860000000  0.5235980000000  0.6178050000000 1.0
C      1  0.5161310000000  0.5737740000000  0.4682090000000 1.0
C      1  0.5980700000000  0.4513050000000  0.5198250000000 1.0
C      1  0.5666750000000  0.4659240000000  0.4645540000000 1.0
C      1  0.4746000000000  0.5805450000000  0.5546110000000 1.0
C      1  0.3879850000000  0.5145170000000  0.4278020000000 1.0
C      1  0.4461050000000  0.3949240000000  0.5896310000000 1.0
C      1  0.5759600000000  0.5318820000000  0.4962700000000 1.0
C      1  0.5662260000000  0.4170470000000  0.5452770000000 1.0
C      1  0.5873620000000  0.5291360000000  0.3992860000000 1.0
C      1  0.4882420000000  0.4544450000000  0.5446240000000 1.0
C      1  0.5496030000000  0.4393860000000  0.4325590000000 1.0
C      1  0.4297650000000  0.5765930000000  0.5158070000000 1.0
C      1  0.5285860000000  0.5378500000000  0.6128880000000 1.0
C      1  0.5256070000000  0.4975760000000  0.5380880000000 1.0
C      1  0.5502440000000  0.5783760000000  0.5493390000000 1.0
C      1  0.3913470000000  0.5972660000000  0.4340160000000 1.0
C      1  0.5405890000000  0.4960580000000  0.4826410000000 1.0
C      1  0.3955340000000  0.4346640000000  0.4370060000000 1.0
C      1  0.5043880000000  0.6148180000000  0.5307930000000 1.0
C      1  0.5702830000000  0.5116110000000  0.5448670000000 1.0
C      1  0.3754040000000  0.4724350000000  0.5568240000000 1.0
C      1  0.5009850000000  0.5907830000000  0.4025540000000 1.0
C      1  0.4125340000000  0.5541960000000  0.5515060000000 1.0
C      1  0.4737030000000  0.4296330000000  0.4914090000000 1.0
C      1  0.6113090000000  0.4741580000000  0.5088060000000 1.0
C      1  0.4528810000000  0.4183340000000  0.5758900000000 1.0
C      1  0.5112970000000  0.5031250000000  0.4148860000000 1.0
C      1  0.3995790000000  0.5711920000000  0.4783980000000 1.0
C      1  0.5642470000000  0.5094530000000  0.6050130000000 1.0
C      1  0.5113740000000  0.4542580000000  0.4052740000000 1.0
C      1  0.6107950000000  0.4899000000000  0.4219410000000 1.0
C      1  0.5690490000000  0.5579820000000  0.5037560000000 1.0
C      1  0.4474310000000  0.5677630000000  0.4508150000000 1.0
C      1  0.5237280000000  0.4530500000000  0.4307300000000 1.0
C      1  0.4365980000000  0.4154260000000  0.4182030000000 1.0
C      1  0.5588890000000  0.4411580000000  0.4769290000000 1.0
C      1  0.5173840000000  0.5437570000000  0.4636200000000 1.0
C      1  0.4721490000000  0.5708260000000  0.4923210000000 1.0
C      1  0.6304180000000  0.5227760000000  0.4901640000000 1.0
C      1  0.6127320000000  0.4925380000000  0.5549180000000 1.0
C      1  0.4265010000000  0.5720550000000  0.5686930000000 1.0
C      1  0.4591030000000  0.4426250000000  0.5915510000000 1.0
C      1  0.5962790000000  0.5899750000000  0.5491660000000 1.0
C      1  0.3891400000000  0.5590260000000  0.5034920000000 1.0
C      1  0.4406770000000  0.4832700000000  0.4369520000000 1.0
C      1  0.5587870000000  0.4659430000000  0.5456490000000 1.0
C      1  0.4944370000000  0.4121600000000  0.5018000000000 1.0
C      1  0.5938590000000  0.5490010000000  0.5802030000000 1.0
C      1  0.3724470000000  0.5135690000000  0.4504650000000 1.0
C      1  0.5312010000000  0.3862300000000  0.4852130000000 1.0
C      1  0.4940600000000  0.6021880000000  0.5550660000000 1.0
C      1  0.4883420000000  0.5736480000000  0.3834660000000 1.0
C      1  0.4176530000000  0.5047290000000  0.5974660000000 1.0
C      1  0.4538400000000  0.4182520000000  0.5469230000000 1.0
C      1  0.5961070000000  0.4668850000000  0.4314180000000 1.0
C      1  0.4898940000000  0.6367120000000  0.5218760000000 1.0
C      1  0.3409710000000  0.4328110000000  0.5438580000000 1.0
C      1  0.4888300000000  0.5014780000000  0.4334930000000 1.0
C      1  0.5541860000000  0.6148490000000  0.5244940000000 1.0
C      1  0.5716730000000  0.5757920000000  0.4820800000000 1.0
C      1  0.5472560000000  0.5509950000000  0.5953640000000 1.0
C      1  0.5543140000000  0.4919350000000  0.5322470000000 1.0
C      1  0.5436070000000  0.3952960000000  0.4608010000000 1.0
C      1  0.5171780000000  0.5540270000000  0.5114060000000 1.0
C      1  0.4934320000000  0.4014280000000  0.4281720000000 1.0
C      1  0.4496110000000  0.5301800000000  0.5023760000000 1.0
C      1  0.6272150000000  0.5027280000000  0.4420820000000 1.0
C      1  0.4809110000000  0.4169560000000  0.4456810000000 1.0
C      1  0.4796260000000  0.5493130000000  0.4201150000000 1.0
C      1  0.4366750000000  0.4695980000000  0.4609130000000 1.0
C      1  0.4732230000000  0.5310100000000  0.5466860000000 1.0
END
