TITL C-627108-131-1029 2426.93797231562 125000 -1018.29761136454 0 0 166 (C1) n - 1
REM
REM in /home/nfs/bkarasulu/CARBON/AIRSS/Generating-Clusters/LCBOP/Only-C1/SD-CG/FIRE-CG
REM
REM
REM
REM
REM
REM ./C.cell (11c1c37f851c82e70ff6c80c92926a4b)
REM AIRSS Version 0.9.1 bugfix July 2018 build 013d7b7c2542+ Fri, 06 Jul 2018 19:26:36 +0100
REM compiler GCC version 9.2.1 20190827 (Red Hat 9.2.1-1)
REM options -cpp -mtune=generic -march=x86-64 -g -O0 -fpre-include=/usr/include/finclude/math-vector-fortran.h
REM seed 809629502 -1082047462 -782046116 1558585734 -1827682091 971834902 -239183549 2129335627 1907254292 -1137396436 1380126213 1321414066 -380357195 542109058 57554560 950596786 -1632707491 1331524306 358372259 -906616961 1332408726 -1337413974 1031426443 -1657929721 -356850638 1687553375 -609176716 -264087265 -1243822211 -735130682 -1200389008 1941476780 1507232905
REM
CELL 1.54180   50.00000   50.00000   50.00000   90.00000   90.00000   90.00000
LATT -1
SFAC C  
C      1  0.4514360000000  0.6001650000000  0.5173800000000 1.0
C      1  0.4403460000000  0.4482980000000  0.4823790000000 1.0
C      1  0.5322340000000  0.4105530000000  0.4579660000000 1.0
C      1  0.4878830000000  0.5183580000000  0.4490030000000 1.0
C      1  0.6018900000000  0.4681100000000  0.4494830000000 1.0
C      1  0.4994800000000  0.4043930000000  0.4466180000000 1.0
C      1  0.4968650000000  0.4969600000000  0.3901930000000 1.0
C      1  0.4897490000000  0.6209260000000  0.4706250000000 1.0
C      1  0.5819750000000  0.5802600000000  0.5314330000000 1.0
C      1  0.5819640000000  0.5323200000000  0.4846170000000 1.0
C      1  0.5284520000000  0.4391150000000  0.6246400000000 1.0
C      1  0.5052490000000  0.5683670000000  0.5507310000000 1.0
C      1  0.5053130000000  0.4079520000000  0.5953840000000 1.0
C      1  0.5682990000000  0.4751530000000  0.5108470000000 1.0
C      1  0.5648090000000  0.5915730000000  0.4870430000000 1.0
C      1  0.4593170000000  0.4070530000000  0.3932700000000 1.0
C      1  0.5823350000000  0.5755410000000  0.4399610000000 1.0
C      1  0.6260630000000  0.5008490000000  0.4752220000000 1.0
C      1  0.5027270000000  0.4599900000000  0.4579580000000 1.0
C      1  0.4431220000000  0.5440720000000  0.4083420000000 1.0
C      1  0.4536940000000  0.3970420000000  0.4861940000000 1.0
C      1  0.5694660000000  0.5663660000000  0.6018740000000 1.0
C      1  0.3968360000000  0.5065330000000  0.4179020000000 1.0
C      1  0.5001370000000  0.5028470000000  0.6320750000000 1.0
C      1  0.5370330000000  0.3990930000000  0.5602820000000 1.0
C      1  0.5403240000000  0.6062350000000  0.4822040000000 1.0
C      1  0.4346110000000  0.5735910000000  0.4463400000000 1.0
C      1  0.4553930000000  0.5556840000000  0.3857670000000 1.0
C      1  0.3828870000000  0.5300650000000  0.5207840000000 1.0
C      1  0.4647170000000  0.5374550000000  0.5147380000000 1.0
C      1  0.4726130000000  0.4126040000000  0.5615630000000 1.0
C      1  0.5255170000000  0.5097830000000  0.5943700000000 1.0
C      1  0.5419490000000  0.4763050000000  0.4188610000000 1.0
C      1  0.5014000000000  0.5265300000000  0.4275780000000 1.0
C      1  0.4447110000000  0.5037570000000  0.4411840000000 1.0
C      1  0.5997000000000  0.5589540000000  0.5245550000000 1.0
C      1  0.5158090000000  0.3876640000000  0.5771850000000 1.0
C      1  0.5292800000000  0.4715380000000  0.5393570000000 1.0
C      1  0.4836000000000  0.5249380000000  0.6229140000000 1.0
C      1  0.4740810000000  0.5115820000000  0.5094790000000 1.0
C      1  0.3944360000000  0.4290410000000  0.5225990000000 1.0
C      1  0.5334480000000  0.5235640000000  0.4843090000000 1.0
C      1  0.5154520000000  0.4860200000000  0.5836210000000 1.0
C      1  0.4243050000000  0.6644090000000  0.4111460000000 1.0
C      1  0.5007540000000  0.3997630000000  0.4955530000000 1.0
C      1  0.4382570000000  0.4649590000000  0.5046490000000 1.0
C      1  0.4138500000000  0.4862070000000  0.4004900000000 1.0
C      1  0.4794890000000  0.4761100000000  0.3899150000000 1.0
C      1  0.4790700000000  0.4433630000000  0.5247210000000 1.0
C      1  0.4809610000000  0.4200010000000  0.5879610000000 1.0
C      1  0.5885890000000  0.4941190000000  0.4507500000000 1.0
C      1  0.5177790000000  0.4855010000000  0.4606020000000 1.0
C      1  0.5301450000000  0.4699590000000  0.5668680000000 1.0
C      1  0.4529840000000  0.4775840000000  0.5483290000000 1.0
C      1  0.5608230000000  0.5780680000000  0.5119120000000 1.0
C      1  0.4797760000000  0.5689080000000  0.3902710000000 1.0
C      1  0.4357600000000  0.5406770000000  0.5155950000000 1.0
C      1  0.3970990000000  0.4413520000000  0.5465500000000 1.0
C      1  0.4857880000000  0.4185670000000  0.5376800000000 1.0
C      1  0.4919860000000  0.4745200000000  0.6296880000000 1.0
C      1  0.5405510000000  0.4879310000000  0.4442440000000 1.0
C      1  0.5474350000000  0.5286630000000  0.6318700000000 1.0
C      1  0.4692750000000  0.4979080000000  0.4536160000000 1.0
C      1  0.5627760000000  0.4907500000000  0.4595880000000 1.0
C      1  0.4333930000000  0.6412540000000  0.4189480000000 1.0
C      1  0.5594130000000  0.4336590000000  0.5236040000000 1.0
C      1  0.4703900000000  0.4286170000000  0.4063600000000 1.0
C      1  0.5814210000000  0.5861710000000  0.4647870000000 1.0
C      1  0.4988280000000  0.5985970000000  0.4570380000000 1.0
C      1  0.4440930000000  0.4133120000000  0.5588310000000 1.0
C      1  0.4427110000000  0.6178480000000  0.4271320000000 1.0
C      1  0.4442320000000  0.5541230000000  0.3609250000000 1.0
C      1  0.4004050000000  0.5358340000000  0.4216580000000 1.0
C      1  0.5742110000000  0.5815110000000  0.5801880000000 1.0
C      1  0.5240900000000  0.4174370000000  0.4866790000000 1.0
C      1  0.5114660000000  0.5182480000000  0.4025910000000 1.0
C      1  0.3828110000000  0.5443100000000  0.4953230000000 1.0
C      1  0.5361930000000  0.5303220000000  0.3959250000000 1.0
C      1  0.6318600000000  0.4479470000000  0.4782880000000 1.0
C      1  0.4990060000000  0.4999800000000  0.5059020000000 1.0
C      1  0.4620820000000  0.4423350000000  0.5956050000000 1.0
C      1  0.4644260000000  0.5970890000000  0.5407930000000 1.0
C      1  0.5448360000000  0.5411970000000  0.5417590000000 1.0
C      1  0.5900610000000  0.4395950000000  0.4551430000000 1.0
C      1  0.4908980000000  0.5404020000000  0.6011720000000 1.0
C      1  0.5096080000000  0.5656410000000  0.5216090000000 1.0
C      1  0.5385230000000  0.5614460000000  0.5199140000000 1.0
C      1  0.5467940000000  0.4113770000000  0.5081970000000 1.0
C      1  0.5138540000000  0.5341310000000  0.5847250000000 1.0
C      1  0.4117810000000  0.5264860000000  0.5302660000000 1.0
C      1  0.6010630000000  0.5145500000000  0.4687260000000 1.0
C      1  0.5924840000000  0.4649460000000  0.5246570000000 1.0
C      1  0.4235420000000  0.4852960000000  0.4457860000000 1.0
C      1  0.6268310000000  0.4733080000000  0.4661370000000 1.0
C      1  0.4079410000000  0.5040490000000  0.4853830000000 1.0
C      1  0.4159210000000  0.4977830000000  0.5332010000000 1.0
C      1  0.5662560000000  0.6400490000000  0.5696200000000 1.0
C      1  0.4916520000000  0.5805880000000  0.4112380000000 1.0
C      1  0.5114530000000  0.4554180000000  0.6376110000000 1.0
C      1  0.5348710000000  0.6235730000000  0.5038840000000 1.0
C      1  0.5149560000000  0.5029410000000  0.4829500000000 1.0
C      1  0.5862730000000  0.5354340000000  0.5142580000000 1.0
C      1  0.5538510000000  0.5408920000000  0.4747370000000 1.0
C      1  0.5567140000000  0.5457110000000  0.4041650000000 1.0
C      1  0.5714790000000  0.4359390000000  0.5779750000000 1.0
C      1  0.5726140000000  0.5612310000000  0.4193150000000 1.0
C      1  0.4834830000000  0.5854380000000  0.5561320000000 1.0
C      1  0.4331210000000  0.4014710000000  0.5066080000000 1.0
C      1  0.5800210000000  0.5034020000000  0.5512740000000 1.0
C      1  0.4970810000000  0.4516390000000  0.5056060000000 1.0
C      1  0.4279640000000  0.5484160000000  0.4884950000000 1.0
C      1  0.5890290000000  0.4357690000000  0.5205540000000 1.0
C      1  0.4762410000000  0.4662480000000  0.6057730000000 1.0
C      1  0.4364630000000  0.3995390000000  0.5353090000000 1.0
C      1  0.5071490000000  0.4463570000000  0.4314900000000 1.0
C      1  0.4610660000000  0.4558850000000  0.3986850000000 1.0
C      1  0.5908110000000  0.4767510000000  0.5511920000000 1.0
C      1  0.4322960000000  0.4594120000000  0.4368560000000 1.0
C      1  0.6095190000000  0.4302530000000  0.4764790000000 1.0
C      1  0.5267600000000  0.4548740000000  0.4134110000000 1.0
C      1  0.3957610000000  0.4924150000000  0.4440150000000 1.0
C      1  0.5702020000000  0.4066800000000  0.4880290000000 1.0
C      1  0.3639200000000  0.4936390000000  0.4904210000000 1.0
C      1  0.5310790000000  0.3984870000000  0.5320000000000 1.0
C      1  0.4818410000000  0.5896350000000  0.4359390000000 1.0
C      1  0.5105050000000  0.4441420000000  0.4826260000000 1.0
C      1  0.4482100000000  0.5180790000000  0.4171290000000 1.0
C      1  0.4423380000000  0.5931180000000  0.4929860000000 1.0
C      1  0.5950950000000  0.4189110000000  0.4980100000000 1.0
C      1  0.4714960000000  0.4903120000000  0.5638600000000 1.0
C      1  0.5686910000000  0.5248350000000  0.5360480000000 1.0
C      1  0.5229870000000  0.5476360000000  0.5618220000000 1.0
C      1  0.4076440000000  0.4145880000000  0.5036430000000 1.0
C      1  0.5478760000000  0.4593240000000  0.5235440000000 1.0
C      1  0.5619650000000  0.4857210000000  0.4867820000000 1.0
C      1  0.4742310000000  0.4697900000000  0.4575720000000 1.0
C      1  0.4203060000000  0.4875310000000  0.5058800000000 1.0
C      1  0.5744840000000  0.5944800000000  0.5549170000000 1.0
C      1  0.4250650000000  0.4802360000000  0.5539230000000 1.0
C      1  0.5616120000000  0.6201760000000  0.5512550000000 1.0
C      1  0.5445960000000  0.6256810000000  0.5290670000000 1.0
C      1  0.5279770000000  0.5100730000000  0.6233840000000 1.0
C      1  0.5119260000000  0.4899130000000  0.5281820000000 1.0
C      1  0.4853610000000  0.5569070000000  0.5097530000000 1.0
C      1  0.3846780000000  0.4931480000000  0.4703890000000 1.0
C      1  0.4160660000000  0.4543760000000  0.5636050000000 1.0
C      1  0.4344190000000  0.5722080000000  0.4752740000000 1.0
C      1  0.4808790000000  0.3974120000000  0.4755480000000 1.0
C      1  0.4228680000000  0.5551570000000  0.4260410000000 1.0
C      1  0.4875640000000  0.4819160000000  0.5844940000000 1.0
C      1  0.5613420000000  0.5490490000000  0.6207930000000 1.0
C      1  0.4568660000000  0.4605680000000  0.5263220000000 1.0
C      1  0.5028410000000  0.4001590000000  0.5241470000000 1.0
C      1  0.4513190000000  0.4524890000000  0.4570580000000 1.0
C      1  0.4343670000000  0.4640810000000  0.4079410000000 1.0
C      1  0.3654590000000  0.5069570000000  0.5148940000000 1.0
C      1  0.5382110000000  0.5629460000000  0.4620660000000 1.0
C      1  0.4368650000000  0.4372180000000  0.5762740000000 1.0
C      1  0.4906380000000  0.4236850000000  0.4266960000000 1.0
C      1  0.5293210000000  0.4233310000000  0.6016120000000 1.0
C      1  0.5857420000000  0.4579240000000  0.5717900000000 1.0
C      1  0.5631130000000  0.4173390000000  0.4598690000000 1.0
C      1  0.5245500000000  0.5886680000000  0.4650090000000 1.0
C      1  0.4056830000000  0.5332200000000  0.4817040000000 1.0
C      1  0.4531260000000  0.5936380000000  0.4365870000000 1.0
C      1  0.5485660000000  0.4196530000000  0.5793980000000 1.0
END
