TITL C-627108-131-1773 979.734911581145 125000 -1084.3356387717 0 0 175 (C1) n - 1
REM
REM in /home/nfs/bkarasulu/CARBON/AIRSS/Generating-Clusters/LCBOP/Only-C1/SD-CG/FIRE-CG
REM
REM
REM
REM
REM
REM ./C.cell (11c1c37f851c82e70ff6c80c92926a4b)
REM AIRSS Version 0.9.1 bugfix July 2018 build 013d7b7c2542+ Fri, 06 Jul 2018 19:26:36 +0100
REM compiler GCC version 9.2.1 20190827 (Red Hat 9.2.1-1)
REM options -cpp -mtune=generic -march=x86-64 -g -O0 -fpre-include=/usr/include/finclude/math-vector-fortran.h
REM seed -1579436657 1789847740 1272817775 -529135697 529203445 -84508441 469632331 -1785947051 1927093822 -1072777167 -2089856301 -867536715 926780282 206529149 -1831185576 141504651 -392855648 -693786082 -402354013 -413294461 -1214342904 -670458193 1653230471 1555345730 -212258326 -1338556855 1739103528 -466699921 -2118396020 -317192183 -1709465335 -1101087273 -1598460423
REM
CELL 1.54180   50.00000   50.00000   50.00000   90.00000   90.00000   90.00000
LATT -1
SFAC C  
C      1  0.5093860000000  0.5620800000000  0.4718530000000 1.0
C      1  0.4881640000000  0.5392880000000  0.6110960000000 1.0
C      1  0.4705360000000  0.4681310000000  0.4910720000000 1.0
C      1  0.5140560000000  0.5934750000000  0.5322860000000 1.0
C      1  0.4166760000000  0.5588130000000  0.4856480000000 1.0
C      1  0.5572530000000  0.5392520000000  0.5212080000000 1.0
C      1  0.4880490000000  0.5611000000000  0.3929750000000 1.0
C      1  0.5811690000000  0.5374750000000  0.5858260000000 1.0
C      1  0.5246730000000  0.5004820000000  0.5246210000000 1.0
C      1  0.4665770000000  0.4431570000000  0.5101490000000 1.0
C      1  0.5841500000000  0.4823560000000  0.4497660000000 1.0
C      1  0.5079520000000  0.4604930000000  0.5479390000000 1.0
C      1  0.4170240000000  0.4282900000000  0.4735190000000 1.0
C      1  0.4471610000000  0.5398170000000  0.5874410000000 1.0
C      1  0.4532060000000  0.5110280000000  0.5397960000000 1.0
C      1  0.5632100000000  0.5478900000000  0.4139600000000 1.0
C      1  0.5791980000000  0.5770300000000  0.4946500000000 1.0
C      1  0.5280720000000  0.5137170000000  0.6245470000000 1.0
C      1  0.4807850000000  0.4699760000000  0.5447370000000 1.0
C      1  0.4262630000000  0.4095160000000  0.4939400000000 1.0
C      1  0.5556440000000  0.4230940000000  0.5006650000000 1.0
C      1  0.5919310000000  0.5575060000000  0.4770480000000 1.0
C      1  0.5565580000000  0.5889550000000  0.4817820000000 1.0
C      1  0.5485400000000  0.5164310000000  0.4468290000000 1.0
C      1  0.5607570000000  0.4997980000000  0.3954780000000 1.0
C      1  0.5960650000000  0.5024700000000  0.4985740000000 1.0
C      1  0.4740390000000  0.5308630000000  0.5883510000000 1.0
C      1  0.4554090000000  0.5312570000000  0.4926680000000 1.0
C      1  0.5163830000000  0.5057060000000  0.5716830000000 1.0
C      1  0.3906440000000  0.4929390000000  0.5135840000000 1.0
C      1  0.5838060000000  0.4631630000000  0.5284620000000 1.0
C      1  0.4109950000000  0.5148850000000  0.4742640000000 1.0
C      1  0.5390240000000  0.4995450000000  0.4977650000000 1.0
C      1  0.4338420000000  0.4629600000000  0.5431310000000 1.0
C      1  0.4712800000000  0.4548040000000  0.4615870000000 1.0
C      1  0.4577230000000  0.5589550000000  0.5431800000000 1.0
C      1  0.5805650000000  0.5240740000000  0.5612110000000 1.0
C      1  0.4669140000000  0.5411440000000  0.3919300000000 1.0
C      1  0.4816490000000  0.5160610000000  0.5407140000000 1.0
C      1  0.5837950000000  0.4837360000000  0.4793650000000 1.0
C      1  0.4099800000000  0.4559680000000  0.4800760000000 1.0
C      1  0.4986370000000  0.4549470000000  0.4060340000000 1.0
C      1  0.5166680000000  0.4282100000000  0.5790410000000 1.0
C      1  0.5013430000000  0.4712730000000  0.6332700000000 1.0
C      1  0.4318310000000  0.5812820000000  0.4765600000000 1.0
C      1  0.5817760000000  0.5841250000000  0.5219300000000 1.0
C      1  0.4982560000000  0.4264980000000  0.4098360000000 1.0
C      1  0.4921720000000  0.4111970000000  0.5747320000000 1.0
C      1  0.5432260000000  0.5390570000000  0.4325380000000 1.0
C      1  0.4291370000000  0.5593980000000  0.5832790000000 1.0
C      1  0.4840710000000  0.3918680000000  0.5530980000000 1.0
C      1  0.5543130000000  0.6165570000000  0.4775360000000 1.0
C      1  0.4574030000000  0.4907810000000  0.3974330000000 1.0
C      1  0.5331680000000  0.4374760000000  0.5101080000000 1.0
C      1  0.4086490000000  0.5414420000000  0.4647510000000 1.0
C      1  0.4603160000000  0.4293890000000  0.4546980000000 1.0
C      1  0.5099510000000  0.4342590000000  0.4954210000000 1.0
C      1  0.5736190000000  0.4348240000000  0.4376490000000 1.0
C      1  0.5151840000000  0.4969750000000  0.4781170000000 1.0
C      1  0.4914050000000  0.5116430000000  0.4202370000000 1.0
C      1  0.4358020000000  0.5113320000000  0.4906760000000 1.0
C      1  0.4450870000000  0.5502260000000  0.4087630000000 1.0
C      1  0.5872680000000  0.5679970000000  0.4491070000000 1.0
C      1  0.4538200000000  0.4823560000000  0.5449910000000 1.0
C      1  0.4620110000000  0.6153000000000  0.4858220000000 1.0
C      1  0.4728290000000  0.3910260000000  0.4794780000000 1.0
C      1  0.5939700000000  0.4910430000000  0.5266620000000 1.0
C      1  0.6050910000000  0.4202760000000  0.5375380000000 1.0
C      1  0.5580310000000  0.5287940000000  0.3916520000000 1.0
C      1  0.5751640000000  0.5083710000000  0.4436370000000 1.0
C      1  0.5189220000000  0.3660970000000  0.5265370000000 1.0
C      1  0.5393600000000  0.6059570000000  0.5309510000000 1.0
C      1  0.4394440000000  0.6014980000000  0.4964530000000 1.0
C      1  0.5454900000000  0.4259950000000  0.5797280000000 1.0
C      1  0.4489780000000  0.3904860000000  0.4953000000000 1.0
C      1  0.5440670000000  0.4601040000000  0.4683290000000 1.0
C      1  0.4176310000000  0.3967410000000  0.5647830000000 1.0
C      1  0.4911290000000  0.4064860000000  0.4271960000000 1.0
C      1  0.5685140000000  0.4142170000000  0.4547800000000 1.0
C      1  0.4817310000000  0.5821150000000  0.4125790000000 1.0
C      1  0.4302630000000  0.4740950000000  0.4690020000000 1.0
C      1  0.4046880000000  0.4146260000000  0.5800990000000 1.0
C      1  0.5566840000000  0.5270130000000  0.5465460000000 1.0
C      1  0.4895680000000  0.6159920000000  0.4947000000000 1.0
C      1  0.4918730000000  0.4900650000000  0.4943290000000 1.0
C      1  0.5643820000000  0.4457690000000  0.5705540000000 1.0
C      1  0.4137270000000  0.4597980000000  0.5622670000000 1.0
C      1  0.5561950000000  0.5809520000000  0.5654330000000 1.0
C      1  0.5325710000000  0.6316100000000  0.4732420000000 1.0
C      1  0.4222480000000  0.4476830000000  0.4265680000000 1.0
C      1  0.4254230000000  0.4192350000000  0.5214500000000 1.0
C      1  0.4208140000000  0.5957330000000  0.5467870000000 1.0
C      1  0.4162320000000  0.5410900000000  0.5169800000000 1.0
C      1  0.5688010000000  0.5736970000000  0.4262210000000 1.0
C      1  0.4924430000000  0.3947440000000  0.5002570000000 1.0
C      1  0.5753190000000  0.5084660000000  0.6401740000000 1.0
C      1  0.4805420000000  0.5683060000000  0.5548190000000 1.0
C      1  0.5134790000000  0.5505790000000  0.3978280000000 1.0
C      1  0.3969440000000  0.5191510000000  0.5189170000000 1.0
C      1  0.4731590000000  0.4305430000000  0.6184630000000 1.0
C      1  0.3938050000000  0.4691360000000  0.5001500000000 1.0
C      1  0.4563100000000  0.5154700000000  0.4503420000000 1.0
C      1  0.4927640000000  0.6132620000000  0.4479400000000 1.0
C      1  0.4933960000000  0.5680350000000  0.4943700000000 1.0
C      1  0.5224100000000  0.4720840000000  0.4120520000000 1.0
C      1  0.5341840000000  0.5532670000000  0.5977570000000 1.0
C      1  0.5078090000000  0.5769700000000  0.5557750000000 1.0
C      1  0.5597110000000  0.4561450000000  0.5438800000000 1.0
C      1  0.5563370000000  0.5197900000000  0.6244330000000 1.0
C      1  0.4665440000000  0.4710060000000  0.4389420000000 1.0
C      1  0.6177670000000  0.4441050000000  0.4982560000000 1.0
C      1  0.4026760000000  0.4413540000000  0.5782420000000 1.0
C      1  0.5181300000000  0.5485510000000  0.4264130000000 1.0
C      1  0.4649020000000  0.6088020000000  0.4568080000000 1.0
C      1  0.4843360000000  0.4505840000000  0.6322710000000 1.0
C      1  0.4410950000000  0.4425280000000  0.5247560000000 1.0
C      1  0.5625870000000  0.5930240000000  0.5408120000000 1.0
C      1  0.6020890000000  0.4422150000000  0.5213510000000 1.0
C      1  0.3932990000000  0.4977890000000  0.4597640000000 1.0
C      1  0.4319870000000  0.3988400000000  0.5410810000000 1.0
C      1  0.4461810000000  0.4885990000000  0.4482680000000 1.0
C      1  0.5382510000000  0.5917680000000  0.4250360000000 1.0
C      1  0.5329040000000  0.5385810000000  0.3807790000000 1.0
C      1  0.4079080000000  0.5411840000000  0.4362980000000 1.0
C      1  0.5853020000000  0.4600090000000  0.5834000000000 1.0
C      1  0.5122140000000  0.4573570000000  0.5764620000000 1.0
C      1  0.4247940000000  0.5310100000000  0.4155650000000 1.0
C      1  0.4297820000000  0.4971480000000  0.4067050000000 1.0
C      1  0.5120340000000  0.4941420000000  0.4276300000000 1.0
C      1  0.5036710000000  0.5972580000000  0.4266030000000 1.0
C      1  0.5567710000000  0.4045500000000  0.4790760000000 1.0
C      1  0.5166220000000  0.3795160000000  0.5018670000000 1.0
C      1  0.5251180000000  0.5008260000000  0.4516880000000 1.0
C      1  0.4980860000000  0.5925460000000  0.5088010000000 1.0
C      1  0.4996800000000  0.5480440000000  0.4487010000000 1.0
C      1  0.5511130000000  0.5266600000000  0.4980370000000 1.0
C      1  0.5604200000000  0.5405510000000  0.6044900000000 1.0
C      1  0.4202400000000  0.5802210000000  0.5687320000000 1.0
C      1  0.5168030000000  0.4826120000000  0.5892850000000 1.0
C      1  0.4746120000000  0.5139710000000  0.3968730000000 1.0
C      1  0.5524820000000  0.4748390000000  0.4097540000000 1.0
C      1  0.5961580000000  0.5014670000000  0.5539100000000 1.0
C      1  0.5383160000000  0.3831700000000  0.4835590000000 1.0
C      1  0.4565810000000  0.3888050000000  0.5318000000000 1.0
C      1  0.4740420000000  0.4150540000000  0.5965130000000 1.0
C      1  0.4722040000000  0.5508520000000  0.4981310000000 1.0
C      1  0.4809190000000  0.5270670000000  0.4428560000000 1.0
C      1  0.4399720000000  0.5373210000000  0.5347380000000 1.0
C      1  0.6340700000000  0.4430190000000  0.4779470000000 1.0
C      1  0.4965250000000  0.5033910000000  0.5201020000000 1.0
C      1  0.5992310000000  0.4817080000000  0.5746070000000 1.0
C      1  0.5168410000000  0.4884290000000  0.6173370000000 1.0
C      1  0.4813380000000  0.4085370000000  0.4553590000000 1.0
C      1  0.5722160000000  0.4628000000000  0.4305410000000 1.0
C      1  0.5034660000000  0.3718070000000  0.5478800000000 1.0
C      1  0.4283410000000  0.6031410000000  0.5221230000000 1.0
C      1  0.5565540000000  0.4778140000000  0.4864390000000 1.0
C      1  0.5346790000000  0.5094160000000  0.5498580000000 1.0
C      1  0.5992690000000  0.5307040000000  0.4882120000000 1.0
C      1  0.5271770000000  0.4443860000000  0.4545970000000 1.0
C      1  0.4472470000000  0.5860980000000  0.4501460000000 1.0
C      1  0.5059280000000  0.6238690000000  0.4716250000000 1.0
C      1  0.4444200000000  0.4844160000000  0.4922050000000 1.0
C      1  0.4135200000000  0.4752200000000  0.4192020000000 1.0
C      1  0.4908840000000  0.5188740000000  0.5677050000000 1.0
C      1  0.5307770000000  0.5702930000000  0.5745110000000 1.0
C      1  0.5329450000000  0.4532840000000  0.5332780000000 1.0
C      1  0.4725480000000  0.4687630000000  0.4109690000000 1.0
C      1  0.5087880000000  0.4290380000000  0.4679700000000 1.0
C      1  0.5155500000000  0.5382160000000  0.6143350000000 1.0
C      1  0.4878890000000  0.4230200000000  0.5085690000000 1.0
C      1  0.4322150000000  0.4298400000000  0.4482360000000 1.0
C      1  0.5355520000000  0.5721680000000  0.4735680000000 1.0
C      1  0.3924730000000  0.4850610000000  0.4359380000000 1.0
C      1  0.4543170000000  0.5741600000000  0.4245400000000 1.0
END
