TITL C-627110-360-239 -1.221418556998e-07 125000 -117.033586441268 0 0 20 (C1) n - 1
REM
REM in /home/nfs/bkarasulu/CARBON/AIRSS/Generating-Clusters/LCBOP/Only-C1/SD-CG/FIRE-CG
REM
REM
REM
REM
REM
REM ./C.cell (11c1c37f851c82e70ff6c80c92926a4b)
REM AIRSS Version 0.9.1 bugfix July 2018 build 013d7b7c2542+ Fri, 06 Jul 2018 19:26:36 +0100
REM compiler GCC version 9.2.1 20190827 (Red Hat 9.2.1-1)
REM options -cpp -mtune=generic -march=x86-64 -g -O0 -fpre-include=/usr/include/finclude/math-vector-fortran.h
REM seed 1908200798 477391728 1802111337 233495466 -15363822 1263179131 699684784 260226036 1975946604 815105388 915509387 -552528576 293771989 306978713 -978189440 -1190534752 -1255859504 -2110115006 -479811752 -816451515 -731839604 414981254 -1302663471 454803812 1670242528 -219368920 -647417927 2089795854 924801491 -911438497 -557470050 -400186129 -254664859
REM
CELL 1.54180   50.00000   50.00000   50.00000   90.00000   90.00000   90.00000
LATT -1
SFAC C  
C      1  0.4893250000000  0.4540570000000  0.4997860000000 1.0
C      1  0.4906590000000  0.4357100000000  0.4805930000000 1.0
C      1  0.4780720000000  0.5321090000000  0.5487710000000 1.0
C      1  0.4944060000000  0.5063250000000  0.5104120000000 1.0
C      1  0.5399380000000  0.5537290000000  0.5562290000000 1.0
C      1  0.5461060000000  0.5452340000000  0.5316280000000 1.0
C      1  0.5361610000000  0.5323990000000  0.5105160000000 1.0
C      1  0.4297470000000  0.5342970000000  0.4948090000000 1.0
C      1  0.5178320000000  0.5530190000000  0.5713830000000 1.0
C      1  0.5198580000000  0.5124710000000  0.4693510000000 1.0
C      1  0.4511740000000  0.5287710000000  0.5085760000000 1.0
C      1  0.5072850000000  0.4481760000000  0.4377480000000 1.0
C      1  0.4922260000000  0.4027800000000  0.4451580000000 1.0
C      1  0.4965920000000  0.4281240000000  0.4542260000000 1.0
C      1  0.5197800000000  0.4968480000000  0.4478580000000 1.0
C      1  0.5167200000000  0.5177960000000  0.4966650000000 1.0
C      1  0.4930090000000  0.5437830000000  0.5675120000000 1.0
C      1  0.4912090000000  0.4784740000000  0.5100660000000 1.0
C      1  0.5154830000000  0.4734380000000  0.4359870000000 1.0
C      1  0.4744150000000  0.5224600000000  0.5227270000000 1.0
END
