TITL C-627106-156-1767 21361.3600639092 125000 -1184.34276191981 0 0 194 (C1) n - 1
REM
REM in /home/nfs/bkarasulu/CARBON/AIRSS/Generating-Clusters/LCBOP/Only-C1/SD-CG/FIRE-CG
REM
REM
REM
REM
REM
REM ./C.cell (11c1c37f851c82e70ff6c80c92926a4b)
REM AIRSS Version 0.9.1 bugfix July 2018 build 013d7b7c2542+ Fri, 06 Jul 2018 19:26:36 +0100
REM compiler GCC version 9.2.1 20190827 (Red Hat 9.2.1-1)
REM options -cpp -mtune=generic -march=x86-64 -g -O0 -fpre-include=/usr/include/finclude/math-vector-fortran.h
REM seed -751419858 1465931743 1912164927 -779785580 1498247008 -370029709 -1242108760 -1034823117 -559797300 -2021465737 74749016 229584604 -1984302539 1802380761 931356274 -1486378055 1353442377 -2128427833 299385284 1875467527 36559967 1400682851 1041227583 306538740 1972893276 -1612284959 -1436879905 863572277 -1264128057 -2028807187 5457107 335410626 -1857155449
REM
CELL 1.54180   50.00000   50.00000   50.00000   90.00000   90.00000   90.00000
LATT -1
SFAC C  
C      1  0.5065070000000  0.4073280000000  0.4204920000000 1.0
C      1  0.3915800000000  0.5005020000000  0.4600000000000 1.0
C      1  0.5057570000000  0.5291580000000  0.5710500000000 1.0
C      1  0.4880350000000  0.5729040000000  0.5986500000000 1.0
C      1  0.5125440000000  0.4362080000000  0.4645400000000 1.0
C      1  0.6050910000000  0.4723470000000  0.4435070000000 1.0
C      1  0.5737000000000  0.4182740000000  0.5042200000000 1.0
C      1  0.5494260000000  0.4263930000000  0.5437560000000 1.0
C      1  0.4098380000000  0.5050980000000  0.5060060000000 1.0
C      1  0.5260250000000  0.4889970000000  0.4959040000000 1.0
C      1  0.4277950000000  0.4686170000000  0.4757780000000 1.0
C      1  0.3979540000000  0.5437650000000  0.5355080000000 1.0
C      1  0.4310650000000  0.3969930000000  0.4414170000000 1.0
C      1  0.3983870000000  0.4909500000000  0.4335730000000 1.0
C      1  0.4965200000000  0.5719690000000  0.4147800000000 1.0
C      1  0.4973050000000  0.6000610000000  0.5427110000000 1.0
C      1  0.5395630000000  0.5850080000000  0.5036210000000 1.0
C      1  0.4623220000000  0.4380850000000  0.3769230000000 1.0
C      1  0.5681330000000  0.5428740000000  0.5521260000000 1.0
C      1  0.4804400000000  0.3929900000000  0.5367200000000 1.0
C      1  0.5663800000000  0.4392600000000  0.5630830000000 1.0
C      1  0.4186320000000  0.4185500000000  0.4524390000000 1.0
C      1  0.5211380000000  0.3976650000000  0.4937790000000 1.0
C      1  0.4055600000000  0.5628450000000  0.4319480000000 1.0
C      1  0.4729830000000  0.4392050000000  0.4655690000000 1.0
C      1  0.4730750000000  0.4867330000000  0.5242510000000 1.0
C      1  0.6285960000000  0.5162450000000  0.4751800000000 1.0
C      1  0.5149810000000  0.4754130000000  0.6148430000000 1.0
C      1  0.4780350000000  0.4784100000000  0.4959130000000 1.0
C      1  0.4777850000000  0.4042960000000  0.4282530000000 1.0
C      1  0.5477310000000  0.5591810000000  0.4933220000000 1.0
C      1  0.4793730000000  0.4611410000000  0.4487620000000 1.0
C      1  0.5200320000000  0.4570800000000  0.5631950000000 1.0
C      1  0.5083770000000  0.5291730000000  0.4590830000000 1.0
C      1  0.4288240000000  0.4395330000000  0.4693110000000 1.0
C      1  0.4406810000000  0.5312360000000  0.4797230000000 1.0
C      1  0.5531700000000  0.4699550000000  0.4515290000000 1.0
C      1  0.5908080000000  0.4458160000000  0.5472570000000 1.0
C      1  0.4980680000000  0.4975230000000  0.5376070000000 1.0
C      1  0.4732990000000  0.5500730000000  0.5956290000000 1.0
C      1  0.5135600000000  0.4862470000000  0.5588460000000 1.0
C      1  0.5126220000000  0.4188200000000  0.5955950000000 1.0
C      1  0.4416070000000  0.4787110000000  0.5622850000000 1.0
C      1  0.4869720000000  0.6188300000000  0.5238980000000 1.0
C      1  0.5158440000000  0.5938020000000  0.4905730000000 1.0
C      1  0.4372850000000  0.4986420000000  0.6122710000000 1.0
C      1  0.5081460000000  0.4587850000000  0.4487040000000 1.0
C      1  0.4773140000000  0.5262380000000  0.5795300000000 1.0
C      1  0.5357630000000  0.4315820000000  0.3884970000000 1.0
C      1  0.4692460000000  0.6230030000000  0.5009570000000 1.0
C      1  0.5738030000000  0.5040460000000  0.4125440000000 1.0
C      1  0.5435730000000  0.5623730000000  0.4655560000000 1.0
C      1  0.4825600000000  0.5283140000000  0.5063120000000 1.0
C      1  0.4886720000000  0.4819420000000  0.6182000000000 1.0
C      1  0.4065040000000  0.5692520000000  0.5779960000000 1.0
C      1  0.4565950000000  0.5054860000000  0.5698870000000 1.0
C      1  0.5216940000000  0.5665520000000  0.4258210000000 1.0
C      1  0.4170960000000  0.5598000000000  0.5215030000000 1.0
C      1  0.5726300000000  0.5354450000000  0.6746860000000 1.0
C      1  0.5831440000000  0.5312170000000  0.4213350000000 1.0
C      1  0.5983200000000  0.4858760000000  0.5763630000000 1.0
C      1  0.4621120000000  0.4749810000000  0.4063950000000 1.0
C      1  0.5876000000000  0.4778870000000  0.4196320000000 1.0
C      1  0.5411510000000  0.5871550000000  0.5522960000000 1.0
C      1  0.4423660000000  0.5963770000000  0.5548690000000 1.0
C      1  0.5544030000000  0.4200320000000  0.4497310000000 1.0
C      1  0.5579630000000  0.5128920000000  0.5614090000000 1.0
C      1  0.4876490000000  0.4272940000000  0.3776880000000 1.0
C      1  0.5769310000000  0.4431850000000  0.3662300000000 1.0
C      1  0.5971290000000  0.5766690000000  0.4801040000000 1.0
C      1  0.4689590000000  0.5694280000000  0.4845950000000 1.0
C      1  0.3888160000000  0.5020680000000  0.5541040000000 1.0
C      1  0.4541050000000  0.4774380000000  0.4817750000000 1.0
C      1  0.4490800000000  0.4476820000000  0.4029310000000 1.0
C      1  0.4194830000000  0.4510140000000  0.4150060000000 1.0
C      1  0.4274700000000  0.6005810000000  0.4868890000000 1.0
C      1  0.5063840000000  0.5904070000000  0.5887160000000 1.0
C      1  0.5618380000000  0.4427430000000  0.3890560000000 1.0
C      1  0.5311750000000  0.3921100000000  0.5195490000000 1.0
C      1  0.5266720000000  0.5165540000000  0.5051150000000 1.0
C      1  0.4706360000000  0.4597130000000  0.5356620000000 1.0
C      1  0.5509810000000  0.4750720000000  0.4995430000000 1.0
C      1  0.4571600000000  0.5498620000000  0.4129210000000 1.0
C      1  0.4294130000000  0.4212380000000  0.5233870000000 1.0
C      1  0.5467860000000  0.4546560000000  0.5806080000000 1.0
C      1  0.4939010000000  0.5757360000000  0.4914710000000 1.0
C      1  0.5101430000000  0.4209470000000  0.3943950000000 1.0
C      1  0.4609830000000  0.4565690000000  0.5620310000000 1.0
C      1  0.5051400000000  0.4708580000000  0.4963570000000 1.0
C      1  0.5925530000000  0.4393710000000  0.5159710000000 1.0
C      1  0.4868200000000  0.5262310000000  0.4773890000000 1.0
C      1  0.4357690000000  0.6147210000000  0.5340670000000 1.0
C      1  0.6088710000000  0.4578070000000  0.4983950000000 1.0
C      1  0.5863990000000  0.5509770000000  0.5220320000000 1.0
C      1  0.4220840000000  0.5733390000000  0.4965340000000 1.0
C      1  0.5747210000000  0.5530470000000  0.6943940000000 1.0
C      1  0.5118080000000  0.4443520000000  0.5118080000000 1.0
C      1  0.4753110000000  0.5900900000000  0.4292290000000 1.0
C      1  0.4775840000000  0.3758270000000  0.4875230000000 1.0
C      1  0.4655100000000  0.6076990000000  0.4524260000000 1.0
C      1  0.4527230000000  0.4286100000000  0.4807880000000 1.0
C      1  0.4006630000000  0.4621040000000  0.4341730000000 1.0
C      1  0.3990770000000  0.5387480000000  0.4204620000000 1.0
C      1  0.3994050000000  0.5452870000000  0.5652450000000 1.0
C      1  0.4741030000000  0.4324100000000  0.5705030000000 1.0
C      1  0.4070680000000  0.5110170000000  0.4136500000000 1.0
C      1  0.5960670000000  0.5418280000000  0.4468400000000 1.0
C      1  0.5672750000000  0.4150020000000  0.4757500000000 1.0
C      1  0.4001530000000  0.5180930000000  0.5762300000000 1.0
C      1  0.4365490000000  0.4106490000000  0.5490580000000 1.0
C      1  0.5748780000000  0.5000870000000  0.5837240000000 1.0
C      1  0.4854700000000  0.4393470000000  0.5238960000000 1.0
C      1  0.4804340000000  0.6209410000000  0.4738520000000 1.0
C      1  0.5700210000000  0.5189470000000  0.6541130000000 1.0
C      1  0.4621880000000  0.5203920000000  0.4653270000000 1.0
C      1  0.5313730000000  0.4061610000000  0.4367920000000 1.0
C      1  0.5314900000000  0.4490560000000  0.5350820000000 1.0
C      1  0.5450070000000  0.5046760000000  0.4005090000000 1.0
C      1  0.5179330000000  0.5098750000000  0.3947810000000 1.0
C      1  0.6306120000000  0.4983430000000  0.5285110000000 1.0
C      1  0.5886280000000  0.5702400000000  0.4532770000000 1.0
C      1  0.5616310000000  0.5752950000000  0.4473600000000 1.0
C      1  0.4594840000000  0.5131620000000  0.5178110000000 1.0
C      1  0.5173210000000  0.4253750000000  0.4891050000000 1.0
C      1  0.4636440000000  0.3705380000000  0.4638240000000 1.0
C      1  0.4619630000000  0.4272550000000  0.4210500000000 1.0
C      1  0.5528430000000  0.5146960000000  0.4536480000000 1.0
C      1  0.4125960000000  0.4459290000000  0.5205000000000 1.0
C      1  0.3712590000000  0.4814900000000  0.5577100000000 1.0
C      1  0.5087820000000  0.6165960000000  0.4753320000000 1.0
C      1  0.5683110000000  0.4925770000000  0.4626620000000 1.0
C      1  0.5503740000000  0.5324340000000  0.5034490000000 1.0
C      1  0.5722080000000  0.4533210000000  0.4131850000000 1.0
C      1  0.5174030000000  0.5989400000000  0.5636050000000 1.0
C      1  0.5059340000000  0.5252050000000  0.5244180000000 1.0
C      1  0.4673250000000  0.3911650000000  0.5098610000000 1.0
C      1  0.4644550000000  0.4084070000000  0.5565860000000 1.0
C      1  0.5418240000000  0.4717810000000  0.6041770000000 1.0
C      1  0.4360720000000  0.6008080000000  0.4584250000000 1.0
C      1  0.4477800000000  0.5258320000000  0.4222600000000 1.0
C      1  0.6167080000000  0.5351830000000  0.5635680000000 1.0
C      1  0.5665520000000  0.5043520000000  0.6322850000000 1.0
C      1  0.4268200000000  0.5812790000000  0.4376540000000 1.0
C      1  0.3931550000000  0.4470470000000  0.4947200000000 1.0
C      1  0.5261290000000  0.4792670000000  0.4469320000000 1.0
C      1  0.3703430000000  0.5171090000000  0.4645410000000 1.0
C      1  0.5605690000000  0.4458230000000  0.4384690000000 1.0
C      1  0.5494650000000  0.5969930000000  0.5270560000000 1.0
C      1  0.5724350000000  0.4916110000000  0.4902010000000 1.0
C      1  0.4416260000000  0.6169570000000  0.5062380000000 1.0
C      1  0.4486770000000  0.4125400000000  0.5034290000000 1.0
C      1  0.5679990000000  0.5522410000000  0.4073750000000 1.0
C      1  0.5633660000000  0.4971100000000  0.5358780000000 1.0
C      1  0.6242040000000  0.4774340000000  0.5128390000000 1.0
C      1  0.4232520000000  0.5901110000000  0.5747880000000 1.0
C      1  0.6070390000000  0.5328080000000  0.4737760000000 1.0
C      1  0.4865790000000  0.5731660000000  0.5432830000000 1.0
C      1  0.4505670000000  0.5751910000000  0.4224930000000 1.0
C      1  0.4206380000000  0.4676080000000  0.5414830000000 1.0
C      1  0.5765880000000  0.5707500000000  0.7134410000000 1.0
C      1  0.5514950000000  0.4714050000000  0.5279830000000 1.0
C      1  0.5993520000000  0.5523520000000  0.4961680000000 1.0
C      1  0.5017370000000  0.4359250000000  0.5770060000000 1.0
C      1  0.4597920000000  0.4985540000000  0.3903590000000 1.0
C      1  0.5613560000000  0.4923560000000  0.6077850000000 1.0
C      1  0.6086410000000  0.4614400000000  0.4689670000000 1.0
C      1  0.6062300000000  0.4651810000000  0.5609820000000 1.0
C      1  0.4429020000000  0.5587170000000  0.4829710000000 1.0
C      1  0.4598250000000  0.5085140000000  0.4410020000000 1.0
C      1  0.5924990000000  0.5459210000000  0.5702490000000 1.0
C      1  0.4354940000000  0.5169650000000  0.5038400000000 1.0
C      1  0.3871250000000  0.4505960000000  0.4655280000000 1.0
C      1  0.4623670000000  0.4893520000000  0.6182420000000 1.0
C      1  0.5247400000000  0.5078960000000  0.4504170000000 1.0
C      1  0.4673990000000  0.4816240000000  0.4338560000000 1.0
C      1  0.4587470000000  0.5737150000000  0.5466890000000 1.0
C      1  0.5708230000000  0.5123160000000  0.5105950000000 1.0
C      1  0.5405860000000  0.5582920000000  0.5517060000000 1.0
C      1  0.4068990000000  0.4892120000000  0.4816070000000 1.0
C      1  0.3945450000000  0.5149820000000  0.5282760000000 1.0
C      1  0.4837840000000  0.5477600000000  0.4020770000000 1.0
C      1  0.4422910000000  0.5549470000000  0.5347610000000 1.0
C      1  0.5503600000000  0.5702830000000  0.4206360000000 1.0
C      1  0.6290000000000  0.5182590000000  0.5465240000000 1.0
C      1  0.5052790000000  0.3775580000000  0.4833290000000 1.0
C      1  0.5098600000000  0.5470640000000  0.5459550000000 1.0
C      1  0.4346100000000  0.5107250000000  0.4018620000000 1.0
C      1  0.5198330000000  0.5540800000000  0.4521800000000 1.0
C      1  0.4160440000000  0.5086170000000  0.5981080000000 1.0
C      1  0.5089600000000  0.3875360000000  0.5378170000000 1.0
C      1  0.4580930000000  0.3869190000000  0.4417370000000 1.0
C      1  0.4895980000000  0.5195390000000  0.3930080000000 1.0
C      1  0.5275560000000  0.5094120000000  0.5700470000000 1.0
C      1  0.5548170000000  0.4073630000000  0.5242020000000 1.0
END
