TITL C-627111-6168-383 0.0372786882172874 125000 -162.639839387473 0 0 28 (C1) n - 1
REM
REM in /home/nfs/bkarasulu/CARBON/AIRSS/Generating-Clusters/LCBOP/Only-C1/SD-CG/FIRE-CG
REM
REM
REM
REM
REM
REM ./C.cell (11c1c37f851c82e70ff6c80c92926a4b)
REM AIRSS Version 0.9.1 bugfix July 2018 build 013d7b7c2542+ Fri, 06 Jul 2018 19:26:36 +0100
REM compiler GCC version 9.2.1 20190827 (Red Hat 9.2.1-1)
REM options -cpp -mtune=generic -march=x86-64 -g -O0 -fpre-include=/usr/include/finclude/math-vector-fortran.h
REM seed -827290837 -2097160325 69646513 1662041964 -407970881 -2039258772 -550513614 997806873 1868996531 -1352655495 -1040922408 1448539588 -1388727387 -1010812176 2031134699 1841914723 1062737730 -837356533 -2029729351 -1198355934 189189216 1948190747 1633216461 505286394 1652711586 750705126 1528766145 -1497135181 1117737093 -129848952 -583782368 1157864634 33403495
REM
CELL 1.54180   50.00000   50.00000   50.00000   90.00000   90.00000   90.00000
LATT -1
SFAC C  
C      1  0.4826800000000  0.5042160000000  0.5349960000000 1.0
C      1  0.5197000000000  0.5161670000000  0.3962670000000 1.0
C      1  0.5505710000000  0.4572760000000  0.6151050000000 1.0
C      1  0.4344770000000  0.5344520000000  0.5343350000000 1.0
C      1  0.5234270000000  0.4626660000000  0.4926350000000 1.0
C      1  0.5311310000000  0.4706990000000  0.5397800000000 1.0
C      1  0.4667740000000  0.4900340000000  0.6071260000000 1.0
C      1  0.5125580000000  0.5316590000000  0.4184790000000 1.0
C      1  0.5187880000000  0.4777160000000  0.5157260000000 1.0
C      1  0.5076840000000  0.5358420000000  0.4442360000000 1.0
C      1  0.5216780000000  0.5475350000000  0.3222480000000 1.0
C      1  0.4668060000000  0.5064450000000  0.5578330000000 1.0
C      1  0.4268940000000  0.5237430000000  0.5807090000000 1.0
C      1  0.5453900000000  0.4611800000000  0.5898560000000 1.0
C      1  0.5297550000000  0.4569310000000  0.4410910000000 1.0
C      1  0.5294740000000  0.4686630000000  0.4172740000000 1.0
C      1  0.5015080000000  0.5003150000000  0.5147530000000 1.0
C      1  0.4264630000000  0.5154910000000  0.6063130000000 1.0
C      1  0.4424990000000  0.5218090000000  0.5572520000000 1.0
C      1  0.4747080000000  0.4935490000000  0.5816600000000 1.0
C      1  0.5394010000000  0.4654500000000  0.5643910000000 1.0
C      1  0.5203860000000  0.5270280000000  0.3706310000000 1.0
C      1  0.5047970000000  0.5307230000000  0.4701120000000 1.0
C      1  0.4445920000000  0.4999470000000  0.6189840000000 1.0
C      1  0.5032750000000  0.5184860000000  0.4935850000000 1.0
C      1  0.5261210000000  0.4893080000000  0.4009020000000 1.0
C      1  0.5210370000000  0.5373640000000  0.3462440000000 1.0
C      1  0.5274250000000  0.4553070000000  0.4674760000000 1.0
END
