TITL C-627106-156-1988 1.19646097987383e-07 125000 -317.065957872336 0 0 53 (C1) n - 1
REM
REM in /home/nfs/bkarasulu/CARBON/AIRSS/Generating-Clusters/LCBOP/Only-C1/SD-CG/FIRE-CG
REM
REM
REM
REM
REM
REM ./C.cell (11c1c37f851c82e70ff6c80c92926a4b)
REM AIRSS Version 0.9.1 bugfix July 2018 build 013d7b7c2542+ Fri, 06 Jul 2018 19:26:36 +0100
REM compiler GCC version 9.2.1 20190827 (Red Hat 9.2.1-1)
REM options -cpp -mtune=generic -march=x86-64 -g -O0 -fpre-include=/usr/include/finclude/math-vector-fortran.h
REM seed -1118565799 2123356472 509365779 424383280 805773985 -799874692 1653513307 -965566174 1306214362 648520984 -603224219 369681160 -41301441 -1582120910 -916903023 2031816998 -1327763481 1463040034 1042094039 -1363119394 1340613253 -1937121578 -3498929 143924316 -741439030 -2013105140 -950727446 194593630 690805091 951800674 -967313349 1677395019 435828605
REM
CELL 1.54180   50.00000   50.00000   50.00000   90.00000   90.00000   90.00000
LATT -1
SFAC C  
C      1  0.4940180000000  0.4290540000000  0.4807440000000 1.0
C      1  0.5237040000000  0.4529220000000  0.4451180000000 1.0
C      1  0.4574860000000  0.4076050000000  0.5687030000000 1.0
C      1  0.5718630000000  0.5855280000000  0.5007330000000 1.0
C      1  0.4965640000000  0.4790000000000  0.5632010000000 1.0
C      1  0.5094060000000  0.4365010000000  0.4603870000000 1.0
C      1  0.5443990000000  0.4466040000000  0.5130600000000 1.0
C      1  0.5726460000000  0.5101250000000  0.5708090000000 1.0
C      1  0.4481690000000  0.5177330000000  0.4775090000000 1.0
C      1  0.4888050000000  0.5012900000000  0.4067950000000 1.0
C      1  0.4313230000000  0.5416750000000  0.5388580000000 1.0
C      1  0.4941880000000  0.5391240000000  0.4359440000000 1.0
C      1  0.4421270000000  0.5033750000000  0.4541360000000 1.0
C      1  0.4024660000000  0.5304920000000  0.5829810000000 1.0
C      1  0.4684510000000  0.4399280000000  0.5269320000000 1.0
C      1  0.4401960000000  0.5766970000000  0.5033400000000 1.0
C      1  0.5701260000000  0.5595530000000  0.4995510000000 1.0
C      1  0.5560160000000  0.4237630000000  0.5083060000000 1.0
C      1  0.4475570000000  0.4935150000000  0.4300070000000 1.0
C      1  0.4959360000000  0.5246480000000  0.5252760000000 1.0
C      1  0.4807350000000  0.4301250000000  0.5037230000000 1.0
C      1  0.5592440000000  0.5034180000000  0.5935130000000 1.0
C      1  0.4755590000000  0.4860580000000  0.5458870000000 1.0
C      1  0.4425330000000  0.5070180000000  0.5033780000000 1.0
C      1  0.5314690000000  0.4769970000000  0.4368060000000 1.0
C      1  0.5699440000000  0.5163220000000  0.5212130000000 1.0
C      1  0.4732230000000  0.5139150000000  0.5381860000000 1.0
C      1  0.4625160000000  0.4228590000000  0.5481800000000 1.0
C      1  0.5241280000000  0.4818090000000  0.5677530000000 1.0
C      1  0.4305720000000  0.5667710000000  0.5262610000000 1.0
C      1  0.5271880000000  0.5046440000000  0.4382250000000 1.0
C      1  0.5347540000000  0.4715710000000  0.5204420000000 1.0
C      1  0.5358740000000  0.4895360000000  0.5923930000000 1.0
C      1  0.5093680000000  0.5143150000000  0.5028820000000 1.0
C      1  0.5418780000000  0.4836250000000  0.5450060000000 1.0
C      1  0.5614050000000  0.5201850000000  0.4723210000000 1.0
C      1  0.4642340000000  0.5415140000000  0.4746060000000 1.0
C      1  0.4538960000000  0.5661620000000  0.4829520000000 1.0
C      1  0.5056650000000  0.5164490000000  0.4232360000000 1.0
C      1  0.5826330000000  0.5102500000000  0.4570560000000 1.0
C      1  0.4162120000000  0.5362860000000  0.5616120000000 1.0
C      1  0.5672100000000  0.5317740000000  0.4978600000000 1.0
C      1  0.4480480000000  0.5220650000000  0.5272930000000 1.0
C      1  0.4632980000000  0.4893620000000  0.4070590000000 1.0
C      1  0.6021540000000  0.5003820000000  0.4428910000000 1.0
C      1  0.5632340000000  0.5030840000000  0.5449800000000 1.0
C      1  0.5123170000000  0.5274540000000  0.4782150000000 1.0
C      1  0.4449470000000  0.4791680000000  0.5086860000000 1.0
C      1  0.5348160000000  0.5187610000000  0.4622480000000 1.0
C      1  0.4620070000000  0.4674630000000  0.5283690000000 1.0
C      1  0.4543080000000  0.4744350000000  0.3860610000000 1.0
C      1  0.4904450000000  0.5393340000000  0.4640450000000 1.0
C      1  0.5187390000000  0.4877570000000  0.5042760000000 1.0
END
