TITL C-627111-6168-682 1.40223299210695 125000 -633.296556783017 0 0 106 (C1) n - 1
REM
REM in /home/nfs/bkarasulu/CARBON/AIRSS/Generating-Clusters/LCBOP/Only-C1/SD-CG/FIRE-CG
REM
REM
REM
REM
REM
REM ./C.cell (11c1c37f851c82e70ff6c80c92926a4b)
REM AIRSS Version 0.9.1 bugfix July 2018 build 013d7b7c2542+ Fri, 06 Jul 2018 19:26:36 +0100
REM compiler GCC version 9.2.1 20190827 (Red Hat 9.2.1-1)
REM options -cpp -mtune=generic -march=x86-64 -g -O0 -fpre-include=/usr/include/finclude/math-vector-fortran.h
REM seed 1835396178 -99040940 1147701725 -471619507 1856632584 -1924566684 1615393348 -1737903188 -481359250 1012479656 -1066430601 620153267 1672862627 585954638 1675888423 1853463534 700221659 -927303379 -980441925 -1706658005 1630793469 1158429145 -1264098578 101511672 -1729540681 -1095287294 119987963 752083927 693838422 224252492 2019723799 1048932705 -402938734
REM
CELL 1.54180   50.00000   50.00000   50.00000   90.00000   90.00000   90.00000
LATT -1
SFAC C  
C      1  0.5727370000000  0.4598510000000  0.4327470000000 1.0
C      1  0.4950440000000  0.5850250000000  0.5375880000000 1.0
C      1  0.4941480000000  0.4968080000000  0.4548310000000 1.0
C      1  0.5627290000000  0.4357770000000  0.4222550000000 1.0
C      1  0.5854740000000  0.5933620000000  0.5633450000000 1.0
C      1  0.3486080000000  0.4662200000000  0.4459340000000 1.0
C      1  0.5322040000000  0.3994390000000  0.4760160000000 1.0
C      1  0.3732820000000  0.5502690000000  0.5019610000000 1.0
C      1  0.4849420000000  0.5720580000000  0.4357780000000 1.0
C      1  0.5327520000000  0.4766990000000  0.4944440000000 1.0
C      1  0.4987660000000  0.5321710000000  0.5109610000000 1.0
C      1  0.3969470000000  0.4644450000000  0.4664950000000 1.0
C      1  0.5969790000000  0.5432260000000  0.4813780000000 1.0
C      1  0.5946440000000  0.5050910000000  0.4528200000000 1.0
C      1  0.5782550000000  0.4207390000000  0.4054590000000 1.0
C      1  0.5288040000000  0.4342750000000  0.5214960000000 1.0
C      1  0.3932200000000  0.5346470000000  0.4898320000000 1.0
C      1  0.4575130000000  0.4752790000000  0.5802290000000 1.0
C      1  0.5854120000000  0.4817650000000  0.4409040000000 1.0
C      1  0.6202710000000  0.5429420000000  0.4648420000000 1.0
C      1  0.4648790000000  0.4213550000000  0.5576910000000 1.0
C      1  0.5360040000000  0.5013500000000  0.4813960000000 1.0
C      1  0.5530470000000  0.4484560000000  0.5678910000000 1.0
C      1  0.4543020000000  0.4719250000000  0.4200310000000 1.0
C      1  0.4520150000000  0.5722990000000  0.4872420000000 1.0
C      1  0.4953010000000  0.4498000000000  0.4361500000000 1.0
C      1  0.4924270000000  0.4686140000000  0.4575790000000 1.0
C      1  0.4941130000000  0.5403070000000  0.3939700000000 1.0
C      1  0.4454680000000  0.4692890000000  0.4674340000000 1.0
C      1  0.5764380000000  0.4352080000000  0.5280320000000 1.0
C      1  0.4764930000000  0.5087320000000  0.5574740000000 1.0
C      1  0.4592490000000  0.5337170000000  0.4583190000000 1.0
C      1  0.4790830000000  0.5265110000000  0.5970030000000 1.0
C      1  0.4675580000000  0.5079710000000  0.4506030000000 1.0
C      1  0.5135680000000  0.5421740000000  0.4132210000000 1.0
C      1  0.4827990000000  0.4617870000000  0.5778560000000 1.0
C      1  0.4124030000000  0.4991220000000  0.5265030000000 1.0
C      1  0.4439040000000  0.4378620000000  0.5476520000000 1.0
C      1  0.5119410000000  0.4177920000000  0.5371240000000 1.0
C      1  0.5629120000000  0.5809420000000  0.5571460000000 1.0
C      1  0.4714410000000  0.4601090000000  0.4753140000000 1.0
C      1  0.3726630000000  0.4654120000000  0.4559510000000 1.0
C      1  0.5592750000000  0.5181620000000  0.5512940000000 1.0
C      1  0.5816520000000  0.5552110000000  0.5023850000000 1.0
C      1  0.5166690000000  0.5118250000000  0.4631140000000 1.0
C      1  0.4346720000000  0.4285280000000  0.5216930000000 1.0
C      1  0.5086090000000  0.5204150000000  0.5888220000000 1.0
C      1  0.5079090000000  0.5543690000000  0.4386140000000 1.0
C      1  0.5636820000000  0.4960280000000  0.5711540000000 1.0
C      1  0.6598890000000  0.5792310000000  0.4658090000000 1.0
C      1  0.5401550000000  0.5662130000000  0.5502190000000 1.0
C      1  0.4692870000000  0.5511700000000  0.4795510000000 1.0
C      1  0.6406370000000  0.5616720000000  0.4653920000000 1.0
C      1  0.5582780000000  0.5107580000000  0.5970540000000 1.0
C      1  0.4895520000000  0.4129750000000  0.5510240000000 1.0
C      1  0.4653320000000  0.3944020000000  0.4948340000000 1.0
C      1  0.4626410000000  0.5261190000000  0.5397280000000 1.0
C      1  0.4694890000000  0.5751810000000  0.5382460000000 1.0
C      1  0.4217020000000  0.4826200000000  0.5455640000000 1.0
C      1  0.4214630000000  0.4602060000000  0.4791570000000 1.0
C      1  0.4425640000000  0.5492660000000  0.4401030000000 1.0
C      1  0.4686060000000  0.5498630000000  0.3972370000000 1.0
C      1  0.4846940000000  0.4110140000000  0.4819850000000 1.0
C      1  0.5430230000000  0.4729590000000  0.5748630000000 1.0
C      1  0.5138010000000  0.5759920000000  0.5572130000000 1.0
C      1  0.4610000000000  0.5620310000000  0.4220040000000 1.0
C      1  0.6079430000000  0.6052690000000  0.5690860000000 1.0
C      1  0.6378210000000  0.5128800000000  0.4288130000000 1.0
C      1  0.5080360000000  0.4095920000000  0.4649410000000 1.0
C      1  0.4279390000000  0.5768930000000  0.4753010000000 1.0
C      1  0.3988590000000  0.5400290000000  0.4620900000000 1.0
C      1  0.4058650000000  0.5150510000000  0.5058860000000 1.0
C      1  0.4743610000000  0.5167670000000  0.5148900000000 1.0
C      1  0.4487830000000  0.4865040000000  0.4442720000000 1.0
C      1  0.4196500000000  0.5584380000000  0.4550590000000 1.0
C      1  0.4624400000000  0.5520230000000  0.5537070000000 1.0
C      1  0.3551280000000  0.5653280000000  0.5130400000000 1.0
C      1  0.5769700000000  0.4507020000000  0.5516080000000 1.0
C      1  0.4752120000000  0.4544450000000  0.4163740000000 1.0
C      1  0.4965800000000  0.5470260000000  0.4867120000000 1.0
C      1  0.5330810000000  0.5196800000000  0.6024920000000 1.0
C      1  0.4795560000000  0.4886200000000  0.5147090000000 1.0
C      1  0.5051560000000  0.5162280000000  0.5590140000000 1.0
C      1  0.5809870000000  0.5192530000000  0.4734920000000 1.0
C      1  0.3840400000000  0.5279490000000  0.4424700000000 1.0
C      1  0.4994200000000  0.5689920000000  0.5812650000000 1.0
C      1  0.4752880000000  0.5523160000000  0.5814670000000 1.0
C      1  0.5862820000000  0.4780390000000  0.5587160000000 1.0
C      1  0.4386380000000  0.4646050000000  0.5597160000000 1.0
C      1  0.5369100000000  0.4270520000000  0.4289530000000 1.0
C      1  0.5570680000000  0.5183670000000  0.4889270000000 1.0
C      1  0.5157640000000  0.5283380000000  0.5343000000000 1.0
C      1  0.5117600000000  0.4271300000000  0.4416820000000 1.0
C      1  0.5203100000000  0.4602820000000  0.5134090000000 1.0
C      1  0.4222910000000  0.4456490000000  0.5032130000000 1.0
C      1  0.4778380000000  0.4374320000000  0.4892450000000 1.0
C      1  0.4977620000000  0.4706280000000  0.5272860000000 1.0
C      1  0.5438150000000  0.5391110000000  0.5357330000000 1.0
C      1  0.4649610000000  0.5038480000000  0.5833710000000 1.0
C      1  0.5122590000000  0.5403040000000  0.4634460000000 1.0
C      1  0.4453510000000  0.4039010000000  0.5110070000000 1.0
C      1  0.5577800000000  0.5399530000000  0.5090330000000 1.0
C      1  0.5545240000000  0.4246420000000  0.5134120000000 1.0
C      1  0.6191100000000  0.5197380000000  0.4473070000000 1.0
C      1  0.4963560000000  0.4635450000000  0.5545630000000 1.0
C      1  0.5527850000000  0.4064160000000  0.4920330000000 1.0
END
