TITL C-627106-156-108 1.83703408303762e-08 125000 -839.29577224579 0 0 138 (C1) n - 1
REM
REM in /home/nfs/bkarasulu/CARBON/AIRSS/Generating-Clusters/LCBOP/Only-C1/SD-CG/FIRE-CG
REM
REM
REM
REM
REM
REM ./C.cell (11c1c37f851c82e70ff6c80c92926a4b)
REM AIRSS Version 0.9.1 bugfix July 2018 build 013d7b7c2542+ Fri, 06 Jul 2018 19:26:36 +0100
REM compiler GCC version 9.2.1 20190827 (Red Hat 9.2.1-1)
REM options -cpp -mtune=generic -march=x86-64 -g -O0 -fpre-include=/usr/include/finclude/math-vector-fortran.h
REM seed -59555144 2074557433 -1767763699 -49745333 1036079156 2010133650 -118768469 661648602 -1916859541 1789659237 1112089819 -1807797672 1377870839 1599978955 669426657 1458807451 -2029018050 -1757081914 1497091297 -832904907 -161642373 1845934348 -1751759237 1642518276 1978146512 681527849 -524536234 -32221109 -2107422565 -1652673358 -1081018577 -1469039127 -535435147
REM
CELL 1.54180   50.00000   50.00000   50.00000   90.00000   90.00000   90.00000
LATT -1
SFAC C  
C      1  0.5746720000000  0.4482850000000  0.4957710000000 1.0
C      1  0.6028820000000  0.5066470000000  0.4431860000000 1.0
C      1  0.5966370000000  0.5338220000000  0.5391710000000 1.0
C      1  0.4164290000000  0.5212600000000  0.3940000000000 1.0
C      1  0.4289900000000  0.4353990000000  0.5215560000000 1.0
C      1  0.3947980000000  0.5603880000000  0.5395210000000 1.0
C      1  0.5891660000000  0.5506610000000  0.4900550000000 1.0
C      1  0.4022010000000  0.4399590000000  0.5104250000000 1.0
C      1  0.4268670000000  0.4506110000000  0.5482050000000 1.0
C      1  0.4997300000000  0.4460010000000  0.5021060000000 1.0
C      1  0.4656310000000  0.4365520000000  0.4148300000000 1.0
C      1  0.4289600000000  0.4761910000000  0.4134210000000 1.0
C      1  0.5681700000000  0.4014600000000  0.4953470000000 1.0
C      1  0.4583930000000  0.4119400000000  0.4040670000000 1.0
C      1  0.5245390000000  0.4501260000000  0.5820160000000 1.0
C      1  0.4456620000000  0.5193730000000  0.5273820000000 1.0
C      1  0.5739330000000  0.5589120000000  0.4422650000000 1.0
C      1  0.5525420000000  0.4264230000000  0.4561650000000 1.0
C      1  0.4489920000000  0.4895390000000  0.5334310000000 1.0
C      1  0.4539280000000  0.4611590000000  0.4061810000000 1.0
C      1  0.4619510000000  0.5377920000000  0.5400120000000 1.0
C      1  0.3987090000000  0.5362840000000  0.3821910000000 1.0
C      1  0.4525430000000  0.5190090000000  0.4771980000000 1.0
C      1  0.4731840000000  0.4776190000000  0.5485190000000 1.0
C      1  0.5078090000000  0.4033720000000  0.4744700000000 1.0
C      1  0.3850000000000  0.5350550000000  0.5411260000000 1.0
C      1  0.5278080000000  0.4114990000000  0.5255530000000 1.0
C      1  0.4973670000000  0.5228710000000  0.4723850000000 1.0
C      1  0.3965760000000  0.4834000000000  0.4551010000000 1.0
C      1  0.5841460000000  0.4914860000000  0.4590840000000 1.0
C      1  0.4861950000000  0.5676650000000  0.4937320000000 1.0
C      1  0.4087220000000  0.4735740000000  0.4330340000000 1.0
C      1  0.5691000000000  0.5511590000000  0.5814600000000 1.0
C      1  0.5118330000000  0.4895770000000  0.4418970000000 1.0
C      1  0.5375880000000  0.5098760000000  0.5054270000000 1.0
C      1  0.4873320000000  0.5488730000000  0.5377410000000 1.0
C      1  0.5264960000000  0.5629790000000  0.4295870000000 1.0
C      1  0.4551390000000  0.4991180000000  0.5908730000000 1.0
C      1  0.4227660000000  0.4914600000000  0.4953930000000 1.0
C      1  0.5216690000000  0.5496640000000  0.5939780000000 1.0
C      1  0.4348140000000  0.5040010000000  0.4054680000000 1.0
C      1  0.4433170000000  0.5280410000000  0.4524330000000 1.0
C      1  0.5577600000000  0.5681060000000  0.5363460000000 1.0
C      1  0.4772870000000  0.4640610000000  0.6275910000000 1.0
C      1  0.5946680000000  0.4618400000000  0.5109330000000 1.0
C      1  0.5235110000000  0.4529190000000  0.4841580000000 1.0
C      1  0.4895560000000  0.5724390000000  0.5216840000000 1.0
C      1  0.4701110000000  0.4497160000000  0.5569580000000 1.0
C      1  0.4519270000000  0.4602370000000  0.6186430000000 1.0
C      1  0.5512770000000  0.5474690000000  0.4280730000000 1.0
C      1  0.5909240000000  0.5399770000000  0.5669890000000 1.0
C      1  0.4738780000000  0.5193410000000  0.5946550000000 1.0
C      1  0.5639170000000  0.4926620000000  0.6125550000000 1.0
C      1  0.5126310000000  0.4990510000000  0.5120400000000 1.0
C      1  0.4669520000000  0.4950910000000  0.4876040000000 1.0
C      1  0.5594820000000  0.4783240000000  0.4533470000000 1.0
C      1  0.5551820000000  0.5721410000000  0.5668240000000 1.0
C      1  0.4455790000000  0.4707980000000  0.5928520000000 1.0
C      1  0.4848210000000  0.3934820000000  0.4851420000000 1.0
C      1  0.5115940000000  0.5358080000000  0.5444110000000 1.0
C      1  0.5656480000000  0.4877460000000  0.5646150000000 1.0
C      1  0.4101030000000  0.5395070000000  0.4936330000000 1.0
C      1  0.4450520000000  0.4508640000000  0.5707200000000 1.0
C      1  0.5058670000000  0.4712040000000  0.5851090000000 1.0
C      1  0.4731360000000  0.4488310000000  0.4607450000000 1.0
C      1  0.5861580000000  0.5020860000000  0.4850240000000 1.0
C      1  0.5961540000000  0.5542930000000  0.4608700000000 1.0
C      1  0.4954510000000  0.5123910000000  0.4460880000000 1.0
C      1  0.4190890000000  0.5672060000000  0.4970360000000 1.0
C      1  0.5318340000000  0.5525930000000  0.4813240000000 1.0
C      1  0.3844180000000  0.5119830000000  0.5242500000000 1.0
C      1  0.4518510000000  0.3885810000000  0.3945470000000 1.0
C      1  0.4526420000000  0.4270460000000  0.5039800000000 1.0
C      1  0.6115000000000  0.5322150000000  0.4491800000000 1.0
C      1  0.5422890000000  0.5773320000000  0.4768120000000 1.0
C      1  0.5874220000000  0.5545380000000  0.5201050000000 1.0
C      1  0.5904190000000  0.4844630000000  0.5510830000000 1.0
C      1  0.5480550000000  0.4570670000000  0.5018030000000 1.0
C      1  0.5992540000000  0.5055690000000  0.5324920000000 1.0
C      1  0.5737110000000  0.5267410000000  0.4869860000000 1.0
C      1  0.4933160000000  0.5025250000000  0.4927740000000 1.0
C      1  0.5136550000000  0.5035930000000  0.5466830000000 1.0
C      1  0.5461370000000  0.5286770000000  0.4861040000000 1.0
C      1  0.4384560000000  0.5775970000000  0.4767210000000 1.0
C      1  0.5439890000000  0.4407140000000  0.4311180000000 1.0
C      1  0.5502030000000  0.4510900000000  0.5900620000000 1.0
C      1  0.4616230000000  0.3998790000000  0.4983980000000 1.0
C      1  0.4484350000000  0.4795470000000  0.5037960000000 1.0
C      1  0.5494550000000  0.3994320000000  0.5149790000000 1.0
C      1  0.4827990000000  0.6146010000000  0.4433270000000 1.0
C      1  0.5515150000000  0.5181820000000  0.5296410000000 1.0
C      1  0.4799230000000  0.5228640000000  0.4237460000000 1.0
C      1  0.5296200000000  0.4762900000000  0.4620850000000 1.0
C      1  0.5723790000000  0.4245300000000  0.4786110000000 1.0
C      1  0.5558410000000  0.5179300000000  0.6161040000000 1.0
C      1  0.4090460000000  0.5760390000000  0.5222160000000 1.0
C      1  0.4820550000000  0.5504990000000  0.4197350000000 1.0
C      1  0.3856850000000  0.4609790000000  0.5175850000000 1.0
C      1  0.4879580000000  0.4310410000000  0.5469710000000 1.0
C      1  0.5536660000000  0.5203450000000  0.4160380000000 1.0
C      1  0.3876860000000  0.5191390000000  0.4954320000000 1.0
C      1  0.5440860000000  0.5003530000000  0.5507920000000 1.0
C      1  0.5491340000000  0.5393850000000  0.5996000000000 1.0
C      1  0.4965210000000  0.5351760000000  0.5966340000000 1.0
C      1  0.5575130000000  0.4674140000000  0.4259400000000 1.0
C      1  0.4206820000000  0.4792620000000  0.5429140000000 1.0
C      1  0.5472810000000  0.4916820000000  0.4114870000000 1.0
C      1  0.5390700000000  0.5442220000000  0.5346480000000 1.0
C      1  0.4732630000000  0.4814170000000  0.3978340000000 1.0
C      1  0.5192370000000  0.4869850000000  0.4139850000000 1.0
C      1  0.5270580000000  0.5737220000000  0.5770220000000 1.0
C      1  0.4635180000000  0.5073430000000  0.4064640000000 1.0
C      1  0.4277710000000  0.5731670000000  0.4503910000000 1.0
C      1  0.4831180000000  0.5879230000000  0.4504010000000 1.0
C      1  0.4967800000000  0.4863400000000  0.5618910000000 1.0
C      1  0.4683550000000  0.5799770000000  0.4751340000000 1.0
C      1  0.4740460000000  0.4427120000000  0.4892110000000 1.0
C      1  0.5503800000000  0.5929250000000  0.5225600000000 1.0
C      1  0.4982830000000  0.5692530000000  0.4332710000000 1.0
C      1  0.5259910000000  0.6047180000000  0.5216530000000 1.0
C      1  0.5059810000000  0.4296160000000  0.5254620000000 1.0
C      1  0.3980790000000  0.4954480000000  0.4804620000000 1.0
C      1  0.4325760000000  0.5213260000000  0.4991590000000 1.0
C      1  0.5986080000000  0.4907400000000  0.5069760000000 1.0
C      1  0.4560030000000  0.4698220000000  0.4554460000000 1.0
C      1  0.5039940000000  0.5485890000000  0.4815820000000 1.0
C      1  0.5007750000000  0.4791840000000  0.3947660000000 1.0
C      1  0.4306020000000  0.5483150000000  0.4400730000000 1.0
C      1  0.5081800000000  0.5896830000000  0.5631580000000 1.0
C      1  0.4856840000000  0.4386080000000  0.4360640000000 1.0
C      1  0.3942870000000  0.4850940000000  0.5315140000000 1.0
C      1  0.5265530000000  0.4245140000000  0.4705840000000 1.0
C      1  0.5967270000000  0.4583780000000  0.5397870000000 1.0
C      1  0.6037230000000  0.4357940000000  0.5530560000000 1.0
C      1  0.5141280000000  0.4377380000000  0.4278450000000 1.0
C      1  0.5037520000000  0.5934420000000  0.5350010000000 1.0
C      1  0.4970670000000  0.4736330000000  0.6119060000000 1.0
C      1  0.5634520000000  0.4758100000000  0.5902360000000 1.0
END
