TITL C-627108-131-698 0.219331503433614 125000 -586.223685433813 0 0 99 (C1) n - 1
REM
REM in /home/nfs/bkarasulu/CARBON/AIRSS/Generating-Clusters/LCBOP/Only-C1/SD-CG/FIRE-CG
REM
REM
REM
REM
REM
REM ./C.cell (11c1c37f851c82e70ff6c80c92926a4b)
REM AIRSS Version 0.9.1 bugfix July 2018 build 013d7b7c2542+ Fri, 06 Jul 2018 19:26:36 +0100
REM compiler GCC version 9.2.1 20190827 (Red Hat 9.2.1-1)
REM options -cpp -mtune=generic -march=x86-64 -g -O0 -fpre-include=/usr/include/finclude/math-vector-fortran.h
REM seed -1076116783 -1544052846 1697460613 1626659268 1542624957 -2092616783 176485063 -626947397 -1499999591 -2054200010 1868056447 2082843994 -1973517513 -978754329 -1991090727 430532204 983374057 -1921347397 -84033273 -887198216 -815782858 172442721 -1609599204 295091580 -1052695 -744223723 -1318864205 -1859377686 -998084618 1486427412 -674885552 820495476 -106288245
REM
CELL 1.54180   50.00000   50.00000   50.00000   90.00000   90.00000   90.00000
LATT -1
SFAC C  
C      1  0.4954540000000  0.4848720000000  0.5131630000000 1.0
C      1  0.4379510000000  0.5272750000000  0.5323220000000 1.0
C      1  0.6044580000000  0.5862030000000  0.4536330000000 1.0
C      1  0.5303990000000  0.3780170000000  0.6274730000000 1.0
C      1  0.4660950000000  0.4994660000000  0.5784400000000 1.0
C      1  0.5609950000000  0.4278240000000  0.4352670000000 1.0
C      1  0.5388370000000  0.4418980000000  0.4318500000000 1.0
C      1  0.4896120000000  0.5508850000000  0.4374480000000 1.0
C      1  0.4740460000000  0.5544500000000  0.4144280000000 1.0
C      1  0.4602090000000  0.4621380000000  0.5492020000000 1.0
C      1  0.5701410000000  0.5202910000000  0.5277130000000 1.0
C      1  0.4306550000000  0.5445070000000  0.4474600000000 1.0
C      1  0.4767680000000  0.4158510000000  0.5416190000000 1.0
C      1  0.4963840000000  0.5935180000000  0.4585080000000 1.0
C      1  0.5460580000000  0.5249720000000  0.5389810000000 1.0
C      1  0.5521960000000  0.4028130000000  0.5865570000000 1.0
C      1  0.5352400000000  0.4967100000000  0.3929560000000 1.0
C      1  0.4880040000000  0.4788950000000  0.4041350000000 1.0
C      1  0.4608670000000  0.4383190000000  0.5343500000000 1.0
C      1  0.4741980000000  0.4631430000000  0.4471890000000 1.0
C      1  0.5605230000000  0.5561870000000  0.4446780000000 1.0
C      1  0.4844290000000  0.6175080000000  0.6222580000000 1.0
C      1  0.4022430000000  0.5208840000000  0.5647070000000 1.0
C      1  0.5634950000000  0.3923300000000  0.4870140000000 1.0
C      1  0.4589980000000  0.5085700000000  0.5313300000000 1.0
C      1  0.5172400000000  0.3939840000000  0.5120680000000 1.0
C      1  0.4990210000000  0.4658340000000  0.4920650000000 1.0
C      1  0.3630530000000  0.4887900000000  0.5802580000000 1.0
C      1  0.3825720000000  0.5050050000000  0.5726020000000 1.0
C      1  0.4239930000000  0.5356350000000  0.5553260000000 1.0
C      1  0.5182050000000  0.5189620000000  0.5371420000000 1.0
C      1  0.4274520000000  0.5196060000000  0.4600420000000 1.0
C      1  0.4917080000000  0.5247600000000  0.4491330000000 1.0
C      1  0.5402830000000  0.3884080000000  0.4997300000000 1.0
C      1  0.5537610000000  0.5031370000000  0.4349490000000 1.0
C      1  0.4341700000000  0.5391360000000  0.5069920000000 1.0
C      1  0.4949820000000  0.4612030000000  0.4275400000000 1.0
C      1  0.4614990000000  0.5923400000000  0.5883290000000 1.0
C      1  0.5832010000000  0.5718400000000  0.4490430000000 1.0
C      1  0.5427820000000  0.4447620000000  0.5033670000000 1.0
C      1  0.5963490000000  0.4928960000000  0.4908370000000 1.0
C      1  0.4304680000000  0.4757560000000  0.4794690000000 1.0
C      1  0.4548450000000  0.5762290000000  0.4788020000000 1.0
C      1  0.5614890000000  0.4153380000000  0.5651340000000 1.0
C      1  0.5005230000000  0.5344200000000  0.5161610000000 1.0
C      1  0.5816990000000  0.4282630000000  0.4542700000000 1.0
C      1  0.4322370000000  0.5589050000000  0.5683990000000 1.0
C      1  0.4845220000000  0.6049310000000  0.5979710000000 1.0
C      1  0.4521740000000  0.4797150000000  0.4360690000000 1.0
C      1  0.5202160000000  0.4723870000000  0.5548160000000 1.0
C      1  0.5291200000000  0.4909380000000  0.4424160000000 1.0
C      1  0.5627150000000  0.5282700000000  0.4430160000000 1.0
C      1  0.4817830000000  0.5587320000000  0.5150920000000 1.0
C      1  0.5079210000000  0.5000560000000  0.4037000000000 1.0
C      1  0.5902660000000  0.4481460000000  0.5044320000000 1.0
C      1  0.4501430000000  0.4568580000000  0.4875850000000 1.0
C      1  0.5080010000000  0.5081970000000  0.4328180000000 1.0
C      1  0.4966360000000  0.4054890000000  0.5245410000000 1.0
C      1  0.4762150000000  0.4594310000000  0.4752950000000 1.0
C      1  0.5370070000000  0.5157780000000  0.4856150000000 1.0
C      1  0.5667330000000  0.4396390000000  0.5172230000000 1.0
C      1  0.5077950000000  0.6043360000000  0.5824400000000 1.0
C      1  0.5602840000000  0.4937520000000  0.4082740000000 1.0
C      1  0.5964740000000  0.4656580000000  0.4829600000000 1.0
C      1  0.5276990000000  0.4639150000000  0.4897890000000 1.0
C      1  0.4916280000000  0.5845830000000  0.5060840000000 1.0
C      1  0.5669120000000  0.4276890000000  0.5423360000000 1.0
C      1  0.5970300000000  0.4681620000000  0.4316700000000 1.0
C      1  0.4725850000000  0.4037360000000  0.5664820000000 1.0
C      1  0.5401520000000  0.4891280000000  0.4856540000000 1.0
C      1  0.5947220000000  0.4541380000000  0.4565070000000 1.0
C      1  0.4802370000000  0.5105660000000  0.5070480000000 1.0
C      1  0.5077040000000  0.5716890000000  0.4448130000000 1.0
C      1  0.4547860000000  0.5578010000000  0.5013640000000 1.0
C      1  0.5116980000000  0.4905090000000  0.5363790000000 1.0
C      1  0.4345750000000  0.4916000000000  0.4545340000000 1.0
C      1  0.4586290000000  0.5645690000000  0.5796570000000 1.0
C      1  0.3438570000000  0.4728320000000  0.5877750000000 1.0
C      1  0.5281740000000  0.6003730000000  0.5659740000000 1.0
C      1  0.5220440000000  0.4633660000000  0.4363870000000 1.0
C      1  0.5413310000000  0.3903130000000  0.6072500000000 1.0
C      1  0.4397160000000  0.5683780000000  0.4564480000000 1.0
C      1  0.4794700000000  0.5919490000000  0.4807490000000 1.0
C      1  0.4692110000000  0.3929470000000  0.5899630000000 1.0
C      1  0.4625510000000  0.5570580000000  0.3911810000000 1.0
C      1  0.5871600000000  0.5100800000000  0.5095080000000 1.0
C      1  0.4352160000000  0.6033860000000  0.5827740000000 1.0
C      1  0.5215000000000  0.5362030000000  0.4938490000000 1.0
C      1  0.4164470000000  0.4940330000000  0.4967040000000 1.0
C      1  0.4600170000000  0.4850950000000  0.4088740000000 1.0
C      1  0.5352830000000  0.5681730000000  0.4421710000000 1.0
C      1  0.5473880000000  0.5953000000000  0.5490980000000 1.0
C      1  0.4616580000000  0.4899380000000  0.5530720000000 1.0
C      1  0.4209110000000  0.5216870000000  0.4887490000000 1.0
C      1  0.4804200000000  0.5164260000000  0.4750990000000 1.0
C      1  0.4480560000000  0.4395940000000  0.5094020000000 1.0
C      1  0.4185230000000  0.5843110000000  0.5714800000000 1.0
C      1  0.5808050000000  0.4069350000000  0.4726150000000 1.0
C      1  0.5841140000000  0.4784900000000  0.4099570000000 1.0
END
