TITL C-627108-131-1708 4.87998868248738e-07 125000 -1174.57218205794 0 0 192 (C1) n - 1
REM
REM in /home/nfs/bkarasulu/CARBON/AIRSS/Generating-Clusters/LCBOP/Only-C1/SD-CG/FIRE-CG
REM
REM
REM
REM
REM
REM ./C.cell (11c1c37f851c82e70ff6c80c92926a4b)
REM AIRSS Version 0.9.1 bugfix July 2018 build 013d7b7c2542+ Fri, 06 Jul 2018 19:26:36 +0100
REM compiler GCC version 9.2.1 20190827 (Red Hat 9.2.1-1)
REM options -cpp -mtune=generic -march=x86-64 -g -O0 -fpre-include=/usr/include/finclude/math-vector-fortran.h
REM seed 632070142 -103643795 -672105279 -1633103211 -1946739037 -1166280765 1117007621 -724924493 2101165680 3709602 -865022817 739738547 -776827923 -1051391703 -2118233102 540787474 342935912 -356594027 1200165444 692668290 749496446 1005220777 -1332631965 258477672 1795252434 -1891378854 -88036506 477721742 -338876628 -1492082581 1096421416 -1393754295 133434917
REM
CELL 1.54180   50.00000   50.00000   50.00000   90.00000   90.00000   90.00000
LATT -1
SFAC C  
C      1  0.6250590000000  0.4974600000000  0.5234000000000 1.0
C      1  0.5905730000000  0.4639910000000  0.5287610000000 1.0
C      1  0.3706810000000  0.5066180000000  0.5711900000000 1.0
C      1  0.6017680000000  0.5135390000000  0.3966460000000 1.0
C      1  0.4450990000000  0.5830040000000  0.5647050000000 1.0
C      1  0.5911670000000  0.4736640000000  0.5004890000000 1.0
C      1  0.4986030000000  0.4131470000000  0.4885500000000 1.0
C      1  0.5061710000000  0.6062600000000  0.5747010000000 1.0
C      1  0.4044610000000  0.4361430000000  0.4650190000000 1.0
C      1  0.4983640000000  0.4436630000000  0.5409260000000 1.0
C      1  0.6068880000000  0.4405640000000  0.5295940000000 1.0
C      1  0.4588890000000  0.5154050000000  0.5308500000000 1.0
C      1  0.5076220000000  0.4446740000000  0.3928330000000 1.0
C      1  0.4740520000000  0.4981160000000  0.5461440000000 1.0
C      1  0.5360490000000  0.4849580000000  0.5836470000000 1.0
C      1  0.4024290000000  0.4215410000000  0.4905740000000 1.0
C      1  0.6110970000000  0.5643250000000  0.5444250000000 1.0
C      1  0.4120760000000  0.4756330000000  0.6055890000000 1.0
C      1  0.5677530000000  0.5657380000000  0.4993220000000 1.0
C      1  0.5039090000000  0.4711780000000  0.4349970000000 1.0
C      1  0.4930680000000  0.5465660000000  0.6054220000000 1.0
C      1  0.5454860000000  0.4795760000000  0.4055200000000 1.0
C      1  0.4808850000000  0.5356800000000  0.4472440000000 1.0
C      1  0.4799520000000  0.5273780000000  0.4773750000000 1.0
C      1  0.5224850000000  0.5184720000000  0.4388870000000 1.0
C      1  0.4866710000000  0.4887270000000  0.6477300000000 1.0
C      1  0.5627550000000  0.4000200000000  0.5246430000000 1.0
C      1  0.5097070000000  0.4063030000000  0.5803900000000 1.0
C      1  0.5818270000000  0.5574720000000  0.4353770000000 1.0
C      1  0.5593770000000  0.5289940000000  0.5902110000000 1.0
C      1  0.5027730000000  0.5200940000000  0.6124430000000 1.0
C      1  0.4116420000000  0.5653000000000  0.5329180000000 1.0
C      1  0.6113120000000  0.5187230000000  0.4833480000000 1.0
C      1  0.5196560000000  0.4196250000000  0.3872260000000 1.0
C      1  0.4169590000000  0.4555270000000  0.5558230000000 1.0
C      1  0.5687410000000  0.5828200000000  0.4392250000000 1.0
C      1  0.5219990000000  0.4616370000000  0.4115440000000 1.0
C      1  0.5805780000000  0.5874920000000  0.4867890000000 1.0
C      1  0.4939920000000  0.4814970000000  0.4988550000000 1.0
C      1  0.5262270000000  0.4492680000000  0.5466640000000 1.0
C      1  0.4465900000000  0.3968360000000  0.4899800000000 1.0
C      1  0.6226920000000  0.5419350000000  0.4973580000000 1.0
C      1  0.5363150000000  0.5018000000000  0.3889780000000 1.0
C      1  0.4427390000000  0.4715710000000  0.4558060000000 1.0
C      1  0.5115170000000  0.4034980000000  0.3660940000000 1.0
C      1  0.4710650000000  0.4444630000000  0.5428490000000 1.0
C      1  0.6050550000000  0.4237970000000  0.5057160000000 1.0
C      1  0.6230270000000  0.4341030000000  0.5512670000000 1.0
C      1  0.4110100000000  0.5249730000000  0.6016450000000 1.0
C      1  0.4385120000000  0.5033370000000  0.5162270000000 1.0
C      1  0.4943120000000  0.3745960000000  0.5431120000000 1.0
C      1  0.5856560000000  0.4590870000000  0.4359810000000 1.0
C      1  0.4145070000000  0.5467620000000  0.3991670000000 1.0
C      1  0.4618390000000  0.5815880000000  0.5884140000000 1.0
C      1  0.4174940000000  0.5661320000000  0.4484400000000 1.0
C      1  0.5425860000000  0.5877730000000  0.4265600000000 1.0
C      1  0.5646500000000  0.5496250000000  0.5692380000000 1.0
C      1  0.4807380000000  0.4843520000000  0.4220400000000 1.0
C      1  0.5371850000000  0.4110140000000  0.5715790000000 1.0
C      1  0.3772300000000  0.5016640000000  0.5452420000000 1.0
C      1  0.6226490000000  0.5575590000000  0.5202080000000 1.0
C      1  0.4990070000000  0.5515910000000  0.5590700000000 1.0
C      1  0.4672960000000  0.5389030000000  0.3891300000000 1.0
C      1  0.5096460000000  0.5259740000000  0.5519870000000 1.0
C      1  0.5424330000000  0.4719250000000  0.5023010000000 1.0
C      1  0.5876600000000  0.3763860000000  0.4932900000000 1.0
C      1  0.5860390000000  0.5291020000000  0.4396630000000 1.0
C      1  0.5056880000000  0.5625100000000  0.4026360000000 1.0
C      1  0.5320370000000  0.5552590000000  0.4680190000000 1.0
C      1  0.5449890000000  0.4817830000000  0.4562990000000 1.0
C      1  0.4842010000000  0.5892090000000  0.4555160000000 1.0
C      1  0.4562290000000  0.5170400000000  0.4028540000000 1.0
C      1  0.5733870000000  0.4816500000000  0.4197760000000 1.0
C      1  0.3778140000000  0.5221010000000  0.5241030000000 1.0
C      1  0.5153720000000  0.4624070000000  0.4940390000000 1.0
C      1  0.4178540000000  0.5403690000000  0.4884430000000 1.0
C      1  0.4989950000000  0.5008430000000  0.5570490000000 1.0
C      1  0.4230290000000  0.5418820000000  0.5801720000000 1.0
C      1  0.3897480000000  0.5262120000000  0.4318510000000 1.0
C      1  0.4281570000000  0.5815880000000  0.5061920000000 1.0
C      1  0.5287210000000  0.5452800000000  0.4418730000000 1.0
C      1  0.4554980000000  0.4858830000000  0.5638530000000 1.0
C      1  0.4430340000000  0.4737100000000  0.5138090000000 1.0
C      1  0.4424160000000  0.4921090000000  0.3958480000000 1.0
C      1  0.5702010000000  0.4621350000000  0.6083760000000 1.0
C      1  0.5399170000000  0.5652260000000  0.4928830000000 1.0
C      1  0.6113220000000  0.4354900000000  0.4785930000000 1.0
C      1  0.5561730000000  0.4203780000000  0.4246070000000 1.0
C      1  0.5881300000000  0.5209440000000  0.4669110000000 1.0
C      1  0.4978060000000  0.3476780000000  0.5034700000000 1.0
C      1  0.4955330000000  0.5674080000000  0.5122190000000 1.0
C      1  0.4680330000000  0.5108240000000  0.4302610000000 1.0
C      1  0.5226300000000  0.5748230000000  0.5131150000000 1.0
C      1  0.5078210000000  0.5589900000000  0.5847670000000 1.0
C      1  0.5077350000000  0.4808650000000  0.5753960000000 1.0
C      1  0.5619270000000  0.4909260000000  0.5657070000000 1.0
C      1  0.4961090000000  0.3856230000000  0.5673210000000 1.0
C      1  0.5660470000000  0.4389540000000  0.4428790000000 1.0
C      1  0.5682320000000  0.5993130000000  0.4641630000000 1.0
C      1  0.5678320000000  0.4737530000000  0.5437100000000 1.0
C      1  0.3657120000000  0.4808720000000  0.5066280000000 1.0
C      1  0.3903530000000  0.5472320000000  0.5273030000000 1.0
C      1  0.3975520000000  0.4752460000000  0.4148870000000 1.0
C      1  0.5326410000000  0.5140490000000  0.6000350000000 1.0
C      1  0.5002840000000  0.6083080000000  0.4448700000000 1.0
C      1  0.6127080000000  0.4933280000000  0.4977440000000 1.0
C      1  0.6077110000000  0.4513970000000  0.4553110000000 1.0
C      1  0.5343880000000  0.5780370000000  0.5393270000000 1.0
C      1  0.4806640000000  0.4526260000000  0.3867470000000 1.0
C      1  0.4209720000000  0.4621260000000  0.4976320000000 1.0
C      1  0.5281460000000  0.5640860000000  0.4199940000000 1.0
C      1  0.5438710000000  0.3936640000000  0.4998180000000 1.0
C      1  0.5457240000000  0.5523920000000  0.5473090000000 1.0
C      1  0.5437340000000  0.4649030000000  0.5311170000000 1.0
C      1  0.4197890000000  0.4604800000000  0.4682990000000 1.0
C      1  0.4040000000000  0.4426740000000  0.5109340000000 1.0
C      1  0.5846710000000  0.4856490000000  0.6061130000000 1.0
C      1  0.4810240000000  0.5716530000000  0.4150030000000 1.0
C      1  0.5144750000000  0.3931100000000  0.5024750000000 1.0
C      1  0.3770830000000  0.5054130000000  0.4478950000000 1.0
C      1  0.3686190000000  0.5184460000000  0.4729760000000 1.0
C      1  0.4973100000000  0.5394630000000  0.3862960000000 1.0
C      1  0.4619220000000  0.5421530000000  0.5324500000000 1.0
C      1  0.5499600000000  0.4162970000000  0.4813660000000 1.0
C      1  0.5901120000000  0.3995710000000  0.5108500000000 1.0
C      1  0.4808660000000  0.5026370000000  0.6246940000000 1.0
C      1  0.5910700000000  0.5608850000000  0.5631690000000 1.0
C      1  0.5020220000000  0.3714830000000  0.5163310000000 1.0
C      1  0.4509590000000  0.5342770000000  0.5835920000000 1.0
C      1  0.5165820000000  0.5190450000000  0.3818870000000 1.0
C      1  0.3914750000000  0.5516050000000  0.4464730000000 1.0
C      1  0.5614530000000  0.4389150000000  0.4708590000000 1.0
C      1  0.4610340000000  0.5869000000000  0.5411500000000 1.0
C      1  0.3958250000000  0.4537400000000  0.5358900000000 1.0
C      1  0.4552760000000  0.5055900000000  0.5846970000000 1.0
C      1  0.4141930000000  0.4948000000000  0.4023050000000 1.0
C      1  0.5607410000000  0.3710570000000  0.4878260000000 1.0
C      1  0.4323490000000  0.5175950000000  0.4932190000000 1.0
C      1  0.5776280000000  0.5449050000000  0.5152610000000 1.0
C      1  0.4232680000000  0.5676830000000  0.4792520000000 1.0
C      1  0.5282410000000  0.6081510000000  0.4416000000000 1.0
C      1  0.5066930000000  0.4394020000000  0.4783030000000 1.0
C      1  0.5645360000000  0.5133760000000  0.4801980000000 1.0
C      1  0.4831740000000  0.5541070000000  0.4908610000000 1.0
C      1  0.5310730000000  0.5297010000000  0.5340870000000 1.0
C      1  0.3727120000000  0.5470060000000  0.4680920000000 1.0
C      1  0.3805010000000  0.4800640000000  0.4358440000000 1.0
C      1  0.4043410000000  0.5220510000000  0.4079110000000 1.0
C      1  0.4536680000000  0.5001160000000  0.6127420000000 1.0
C      1  0.4223540000000  0.5648000000000  0.5607170000000 1.0
C      1  0.4481250000000  0.4996880000000  0.4511670000000 1.0
C      1  0.5406450000000  0.4123160000000  0.4044950000000 1.0
C      1  0.4660060000000  0.4602300000000  0.4678140000000 1.0
C      1  0.4518480000000  0.5968020000000  0.5154640000000 1.0
C      1  0.4718710000000  0.6132340000000  0.5023130000000 1.0
C      1  0.6096450000000  0.5121640000000  0.5403800000000 1.0
C      1  0.5672880000000  0.4611500000000  0.4882500000000 1.0
C      1  0.4964130000000  0.4300800000000  0.5904540000000 1.0
C      1  0.4976840000000  0.6209720000000  0.4967550000000 1.0
C      1  0.4529100000000  0.5142930000000  0.4752000000000 1.0
C      1  0.5035320000000  0.3886510000000  0.3462200000000 1.0
C      1  0.6366300000000  0.4289220000000  0.5728810000000 1.0
C      1  0.4993960000000  0.5098750000000  0.4955470000000 1.0
C      1  0.4810230000000  0.5643730000000  0.5380140000000 1.0
C      1  0.4236060000000  0.5004250000000  0.6146830000000 1.0
C      1  0.4660720000000  0.5540630000000  0.5980160000000 1.0
C      1  0.5775850000000  0.5052700000000  0.5863240000000 1.0
C      1  0.4834460000000  0.6005130000000  0.5884510000000 1.0
C      1  0.4450760000000  0.4623640000000  0.5449780000000 1.0
C      1  0.4573490000000  0.5636420000000  0.4021130000000 1.0
C      1  0.5459580000000  0.5019590000000  0.4977010000000 1.0
C      1  0.5219890000000  0.4918100000000  0.4465180000000 1.0
C      1  0.4313530000000  0.5632370000000  0.4157600000000 1.0
C      1  0.4915620000000  0.4520020000000  0.4562070000000 1.0
C      1  0.5866100000000  0.5081890000000  0.4191830000000 1.0
C      1  0.4201090000000  0.3997780000000  0.4930460000000 1.0
C      1  0.4713480000000  0.4057460000000  0.4856300000000 1.0
C      1  0.3768490000000  0.4750380000000  0.5330590000000 1.0
C      1  0.4802550000000  0.5644860000000  0.4425810000000 1.0
C      1  0.4650830000000  0.4724120000000  0.3998200000000 1.0
C      1  0.5528710000000  0.3988120000000  0.5511830000000 1.0
C      1  0.3686390000000  0.5086820000000  0.4992160000000 1.0
C      1  0.4683370000000  0.4696790000000  0.4957120000000 1.0
C      1  0.5423530000000  0.6141680000000  0.4666120000000 1.0
C      1  0.5250460000000  0.5176610000000  0.5083600000000 1.0
C      1  0.5251570000000  0.5980800000000  0.5571920000000 1.0
C      1  0.4115660000000  0.4600860000000  0.5834520000000 1.0
C      1  0.5392250000000  0.4393510000000  0.5713410000000 1.0
C      1  0.4954260000000  0.4573290000000  0.5871990000000 1.0
C      1  0.5880070000000  0.5261510000000  0.5316470000000 1.0
C      1  0.5236390000000  0.6215370000000  0.4874830000000 1.0
C      1  0.5461370000000  0.4574130000000  0.5931910000000 1.0
END
