TITL C-627106-156-1367 0.20994050556256 125000 -302.617345654783 0 0 53 (C1) n - 1
REM
REM in /home/nfs/bkarasulu/CARBON/AIRSS/Generating-Clusters/LCBOP/Only-C1/SD-CG/FIRE-CG
REM
REM
REM
REM
REM
REM ./C.cell (11c1c37f851c82e70ff6c80c92926a4b)
REM AIRSS Version 0.9.1 bugfix July 2018 build 013d7b7c2542+ Fri, 06 Jul 2018 19:26:36 +0100
REM compiler GCC version 9.2.1 20190827 (Red Hat 9.2.1-1)
REM options -cpp -mtune=generic -march=x86-64 -g -O0 -fpre-include=/usr/include/finclude/math-vector-fortran.h
REM seed 132990908 -1703184402 -242066846 1429762943 -1262288257 -298945768 345013889 1903006727 -2042131107 36529136 1690654771 -1078492398 1881839897 440992847 427642423 -1929643847 1481002685 -2034159574 591964238 -1201926829 886908446 -1859140446 -1228601203 1914130295 -1746803157 1793796670 -1196208854 1238418694 -1741468405 239926510 -1847682573 1181916748 411627100
REM
CELL 1.54180   50.00000   50.00000   50.00000   90.00000   90.00000   90.00000
LATT -1
SFAC C  
C      1  0.5213030000000  0.4587140000000  0.4625760000000 1.0
C      1  0.4767540000000  0.4655600000000  0.4802630000000 1.0
C      1  0.5009790000000  0.4314030000000  0.5026590000000 1.0
C      1  0.4972470000000  0.5144570000000  0.5158630000000 1.0
C      1  0.6029150000000  0.5435070000000  0.5502130000000 1.0
C      1  0.5487230000000  0.5740020000000  0.6183640000000 1.0
C      1  0.6063430000000  0.5378540000000  0.5982160000000 1.0
C      1  0.5013750000000  0.5291070000000  0.4162400000000 1.0
C      1  0.6093740000000  0.5197470000000  0.5382510000000 1.0
C      1  0.3520230000000  0.4641390000000  0.5201110000000 1.0
C      1  0.4851850000000  0.4900630000000  0.5236060000000 1.0
C      1  0.5440780000000  0.5230170000000  0.5059080000000 1.0
C      1  0.5598340000000  0.4831350000000  0.4778040000000 1.0
C      1  0.4378300000000  0.4501310000000  0.3893690000000 1.0
C      1  0.5638290000000  0.5506680000000  0.5787860000000 1.0
C      1  0.5442800000000  0.5340210000000  0.5678670000000 1.0
C      1  0.4584320000000  0.5220360000000  0.4375820000000 1.0
C      1  0.4652290000000  0.4674320000000  0.4328650000000 1.0
C      1  0.5489290000000  0.4588180000000  0.4689900000000 1.0
C      1  0.3982740000000  0.4735220000000  0.4940800000000 1.0
C      1  0.5230840000000  0.5229010000000  0.5243710000000 1.0
C      1  0.6075910000000  0.5681570000000  0.5368090000000 1.0
C      1  0.4039330000000  0.4984410000000  0.4821990000000 1.0
C      1  0.4518270000000  0.4577810000000  0.4105190000000 1.0
C      1  0.4322510000000  0.4520190000000  0.4670990000000 1.0
C      1  0.5576950000000  0.5068700000000  0.4896430000000 1.0
C      1  0.4476860000000  0.5175500000000  0.4645920000000 1.0
C      1  0.4323440000000  0.4429590000000  0.5139880000000 1.0
C      1  0.5584710000000  0.6209270000000  0.5643750000000 1.0
C      1  0.5913070000000  0.5439140000000  0.5761680000000 1.0
C      1  0.4880720000000  0.4845260000000  0.4307190000000 1.0
C      1  0.5153050000000  0.4943800000000  0.5615930000000 1.0
C      1  0.4576530000000  0.4612620000000  0.4594350000000 1.0
C      1  0.4181400000000  0.4532830000000  0.4916220000000 1.0
C      1  0.4690900000000  0.4735120000000  0.5069140000000 1.0
C      1  0.5641770000000  0.4363000000000  0.4666020000000 1.0
C      1  0.5898990000000  0.5766860000000  0.5177160000000 1.0
C      1  0.4844130000000  0.4354320000000  0.5262490000000 1.0
C      1  0.4978550000000  0.4776370000000  0.5470590000000 1.0
C      1  0.5011370000000  0.4498190000000  0.4805730000000 1.0
C      1  0.4969980000000  0.4492470000000  0.5478390000000 1.0
C      1  0.4239050000000  0.4427900000000  0.3685890000000 1.0
C      1  0.5282200000000  0.5178040000000  0.5521480000000 1.0
C      1  0.4184960000000  0.5144130000000  0.4648020000000 1.0
C      1  0.5570210000000  0.5987650000000  0.5780090000000 1.0
C      1  0.5563790000000  0.5746320000000  0.5921060000000 1.0
C      1  0.4831250000000  0.5124670000000  0.4278840000000 1.0
C      1  0.4341400000000  0.5273160000000  0.4224210000000 1.0
C      1  0.4591750000000  0.4486970000000  0.5197430000000 1.0
C      1  0.3743010000000  0.4688150000000  0.5074230000000 1.0
C      1  0.6296880000000  0.5830190000000  0.5432050000000 1.0
C      1  0.4114640000000  0.5228980000000  0.4378790000000 1.0
C      1  0.5122210000000  0.4734510000000  0.4400940000000 1.0
END
