TITL C-627108-131-2080 308570.286431182 125000 -1186.81403278939 0 0 197 (C1) n - 1
REM
REM in /home/nfs/bkarasulu/CARBON/AIRSS/Generating-Clusters/LCBOP/Only-C1/SD-CG/FIRE-CG
REM
REM
REM
REM
REM
REM ./C.cell (11c1c37f851c82e70ff6c80c92926a4b)
REM AIRSS Version 0.9.1 bugfix July 2018 build 013d7b7c2542+ Fri, 06 Jul 2018 19:26:36 +0100
REM compiler GCC version 9.2.1 20190827 (Red Hat 9.2.1-1)
REM options -cpp -mtune=generic -march=x86-64 -g -O0 -fpre-include=/usr/include/finclude/math-vector-fortran.h
REM seed 752086538 1914945038 -1028748730 165179006 -1479181069 -1151003182 1802187354 92542234 -2021669976 150552698 -196597126 -886864958 -1746482647 -1989205523 1633725804 -431000265 1167933813 -1419847495 1161893833 1679119591 -318304661 784700557 -855807719 71308140 -433487076 -1953179722 76564009 784780009 -374225105 -1276296757 223763350 -1171006146 1329697905
REM
CELL 1.54180   50.00000   50.00000   50.00000   90.00000   90.00000   90.00000
LATT -1
SFAC C  
C      1  0.4109130000000  0.5473470000000  0.4317340000000 1.0
C      1  0.5378720000000  0.3800630000000  0.4119340000000 1.0
C      1  0.5598400000000  0.4832770000000  0.4865530000000 1.0
C      1  0.6135420000000  0.4606200000000  0.5324950000000 1.0
C      1  0.5866040000000  0.3627930000000  0.4727310000000 1.0
C      1  0.4357660000000  0.3734120000000  0.5255380000000 1.0
C      1  0.4929590000000  0.4643620000000  0.5664440000000 1.0
C      1  0.5517630000000  0.4863930000000  0.5941630000000 1.0
C      1  0.4462830000000  0.5329230000000  0.4653670000000 1.0
C      1  0.5449840000000  0.4415100000000  0.5851160000000 1.0
C      1  0.4973940000000  0.4391840000000  0.4346600000000 1.0
C      1  0.5343470000000  0.5479170000000  0.5370020000000 1.0
C      1  0.4436300000000  0.5520620000000  0.5694030000000 1.0
C      1  0.5137400000000  0.4145880000000  0.4905970000000 1.0
C      1  0.3851360000000  0.4830020000000  0.5276750000000 1.0
C      1  0.5764630000000  0.4872970000000  0.4390670000000 1.0
C      1  0.4630400000000  0.6110920000000  0.5145860000000 1.0
C      1  0.5223600000000  0.5492330000000  0.4556110000000 1.0
C      1  0.4712510000000  0.5442680000000  0.6115290000000 1.0
C      1  0.4096170000000  0.4180440000000  0.4748260000000 1.0
C      1  0.5788950000000  0.6297330000000  0.5743650000000 1.0
C      1  0.5981080000000  0.5636050000000  0.4830360000000 1.0
C      1  0.4598850000000  0.5823330000000  0.5176430000000 1.0
C      1  0.6062930000000  0.4881780000000  0.5697390000000 1.0
C      1  0.4768640000000  0.4983050000000  0.5190670000000 1.0
C      1  0.5917800000000  0.5298450000000  0.5212170000000 1.0
C      1  0.5269100000000  0.3848840000000  0.3865270000000 1.0
C      1  0.6138410000000  0.5367060000000  0.4816770000000 1.0
C      1  0.4115250000000  0.4164930000000  0.5865250000000 1.0
C      1  0.5811830000000  0.5564900000000  0.5087150000000 1.0
C      1  0.5411440000000  0.4561450000000  0.4476080000000 1.0
C      1  0.5595050000000  0.6412170000000  0.5599330000000 1.0
C      1  0.4416360000000  0.5027040000000  0.5757290000000 1.0
C      1  0.5271340000000  0.6358990000000  0.4922070000000 1.0
C      1  0.6184560000000  0.5249830000000  0.5094350000000 1.0
C      1  0.4861590000000  0.5689170000000  0.5205590000000 1.0
C      1  0.4189510000000  0.5000230000000  0.4192300000000 1.0
C      1  0.4579070000000  0.4240840000000  0.5760970000000 1.0
C      1  0.4514530000000  0.5536360000000  0.4055140000000 1.0
C      1  0.5210310000000  0.5699760000000  0.5521630000000 1.0
C      1  0.4584620000000  0.6018190000000  0.5637460000000 1.0
C      1  0.4823690000000  0.5212090000000  0.4305430000000 1.0
C      1  0.4060910000000  0.4715300000000  0.4548940000000 1.0
C      1  0.6207430000000  0.4851660000000  0.5449100000000 1.0
C      1  0.4673210000000  0.6030170000000  0.4376670000000 1.0
C      1  0.5923180000000  0.6069160000000  0.5702600000000 1.0
C      1  0.5093970000000  0.6181200000000  0.4528420000000 1.0
C      1  0.4078630000000  0.4290670000000  0.6099300000000 1.0
C      1  0.5348380000000  0.5382870000000  0.5091520000000 1.0
C      1  0.3942180000000  0.5003300000000  0.4593650000000 1.0
C      1  0.4090670000000  0.4902550000000  0.5416640000000 1.0
C      1  0.4861110000000  0.5200120000000  0.6195340000000 1.0
C      1  0.5918510000000  0.5880120000000  0.5514690000000 1.0
C      1  0.5824670000000  0.5773470000000  0.5290090000000 1.0
C      1  0.3825750000000  0.5374970000000  0.5544180000000 1.0
C      1  0.4145550000000  0.5039490000000  0.5659960000000 1.0
C      1  0.4142710000000  0.5738760000000  0.5061820000000 1.0
C      1  0.4822800000000  0.5656930000000  0.5918840000000 1.0
C      1  0.4676770000000  0.4375090000000  0.5350280000000 1.0
C      1  0.3730420000000  0.5290880000000  0.5301310000000 1.0
C      1  0.5363570000000  0.6227710000000  0.5155510000000 1.0
C      1  0.4383070000000  0.4349850000000  0.4427950000000 1.0
C      1  0.5630260000000  0.4484550000000  0.5375750000000 1.0
C      1  0.5116160000000  0.4864230000000  0.5667200000000 1.0
C      1  0.4402640000000  0.5438340000000  0.6131960000000 1.0
C      1  0.5767230000000  0.5052770000000  0.5272550000000 1.0
C      1  0.4733600000000  0.3727610000000  0.3390430000000 1.0
C      1  0.4578060000000  0.5572220000000  0.4740460000000 1.0
C      1  0.3964670000000  0.4455920000000  0.4700140000000 1.0
C      1  0.4571960000000  0.5253440000000  0.5675520000000 1.0
C      1  0.4191640000000  0.4500630000000  0.6221010000000 1.0
C      1  0.4767390000000  0.6232010000000  0.4906230000000 1.0
C      1  0.4435270000000  0.5067890000000  0.4769790000000 1.0
C      1  0.5952820000000  0.5195040000000  0.4666280000000 1.0
C      1  0.3804850000000  0.5067700000000  0.4841060000000 1.0
C      1  0.4850990000000  0.4182290000000  0.4887210000000 1.0
C      1  0.4690030000000  0.4085440000000  0.5964810000000 1.0
C      1  0.5106570000000  0.4708930000000  0.6154780000000 1.0
C      1  0.5996620000000  0.5132070000000  0.5827010000000 1.0
C      1  0.5668610000000  0.5304150000000  0.4696800000000 1.0
C      1  0.5257230000000  0.5966260000000  0.5132150000000 1.0
C      1  0.5424380000000  0.5994780000000  0.4275360000000 1.0
C      1  0.4841430000000  0.5273740000000  0.5601000000000 1.0
C      1  0.4309020000000  0.4182920000000  0.5658490000000 1.0
C      1  0.4405150000000  0.5791620000000  0.4671660000000 1.0
C      1  0.4890160000000  0.4671580000000  0.4291890000000 1.0
C      1  0.5447900000000  0.3898580000000  0.3654970000000 1.0
C      1  0.4162870000000  0.5857800000000  0.4807510000000 1.0
C      1  0.5460410000000  0.5306990000000  0.4473340000000 1.0
C      1  0.4184050000000  0.5007200000000  0.3919740000000 1.0
C      1  0.4862760000000  0.5116650000000  0.4574530000000 1.0
C      1  0.5908150000000  0.4363620000000  0.4973520000000 1.0
C      1  0.4726200000000  0.5253730000000  0.5084240000000 1.0
C      1  0.4872460000000  0.5461860000000  0.5406260000000 1.0
C      1  0.4347830000000  0.4516320000000  0.4927300000000 1.0
C      1  0.4879640000000  0.6002040000000  0.4173360000000 1.0
C      1  0.5236180000000  0.5150510000000  0.4958500000000 1.0
C      1  0.5534680000000  0.5329270000000  0.5989900000000 1.0
C      1  0.4988160000000  0.6421980000000  0.4950380000000 1.0
C      1  0.4830870000000  0.3904860000000  0.6098230000000 1.0
C      1  0.4439660000000  0.5352030000000  0.5129850000000 1.0
C      1  0.4460400000000  0.4860370000000  0.5976510000000 1.0
C      1  0.4960540000000  0.4809830000000  0.5085750000000 1.0
C      1  0.3839470000000  0.4557640000000  0.5189650000000 1.0
C      1  0.5316710000000  0.5288160000000  0.5804960000000 1.0
C      1  0.5602570000000  0.3842170000000  0.5075400000000 1.0
C      1  0.5375480000000  0.4909730000000  0.5016320000000 1.0
C      1  0.5027030000000  0.5127540000000  0.4118720000000 1.0
C      1  0.5887500000000  0.4115980000000  0.3753750000000 1.0
C      1  0.5222820000000  0.4713670000000  0.5149920000000 1.0
C      1  0.5689810000000  0.4003940000000  0.3613910000000 1.0
C      1  0.5563010000000  0.5041690000000  0.5478960000000 1.0
C      1  0.4603830000000  0.4760900000000  0.4394230000000 1.0
C      1  0.4545890000000  0.4801340000000  0.5239830000000 1.0
C      1  0.4702780000000  0.5606780000000  0.3855510000000 1.0
C      1  0.4681080000000  0.4004850000000  0.4489090000000 1.0
C      1  0.5678150000000  0.4477500000000  0.5664050000000 1.0
C      1  0.5452540000000  0.5295440000000  0.5546510000000 1.0
C      1  0.4745060000000  0.4427070000000  0.5616810000000 1.0
C      1  0.3789530000000  0.6178890000000  0.4590880000000 1.0
C      1  0.3781230000000  0.4511950000000  0.4916210000000 1.0
C      1  0.5410600000000  0.5417280000000  0.4007370000000 1.0
C      1  0.5282550000000  0.4206190000000  0.5149540000000 1.0
C      1  0.3967840000000  0.6025350000000  0.4702860000000 1.0
C      1  0.5060390000000  0.5145740000000  0.5730310000000 1.0
C      1  0.5144280000000  0.6059500000000  0.4264320000000 1.0
C      1  0.4296340000000  0.4920470000000  0.5225850000000 1.0
C      1  0.5960460000000  0.4187450000000  0.3999540000000 1.0
C      1  0.4319970000000  0.5666860000000  0.4221490000000 1.0
C      1  0.4673300000000  0.4897130000000  0.4667100000000 1.0
C      1  0.5090930000000  0.5615740000000  0.4770540000000 1.0
C      1  0.5750860000000  0.4750780000000  0.6022500000000 1.0
C      1  0.5945930000000  0.4409500000000  0.4698990000000 1.0
C      1  0.5797970000000  0.4830250000000  0.5078230000000 1.0
C      1  0.4206030000000  0.4177500000000  0.5382290000000 1.0
C      1  0.5141410000000  0.5335850000000  0.3956020000000 1.0
C      1  0.5683140000000  0.3824840000000  0.4807200000000 1.0
C      1  0.5085090000000  0.5854460000000  0.5317540000000 1.0
C      1  0.4603400000000  0.6192610000000  0.5424290000000 1.0
C      1  0.4980890000000  0.4950770000000  0.6204360000000 1.0
C      1  0.5803070000000  0.5279320000000  0.5951970000000 1.0
C      1  0.4624040000000  0.4034950000000  0.4769340000000 1.0
C      1  0.4984280000000  0.3714980000000  0.6189850000000 1.0
C      1  0.5360750000000  0.4471270000000  0.5240890000000 1.0
C      1  0.4853720000000  0.3794140000000  0.3611950000000 1.0
C      1  0.5299580000000  0.4151140000000  0.4666190000000 1.0
C      1  0.4852760000000  0.4710070000000  0.4836210000000 1.0
C      1  0.4599600000000  0.5754910000000  0.5747750000000 1.0
C      1  0.5237190000000  0.5828160000000  0.4888730000000 1.0
C      1  0.5259390000000  0.4510820000000  0.6032190000000 1.0
C      1  0.6077590000000  0.4663170000000  0.4633980000000 1.0
C      1  0.5813470000000  0.4223580000000  0.4521480000000 1.0
C      1  0.5412960000000  0.4865510000000  0.5670150000000 1.0
C      1  0.5225100000000  0.4357740000000  0.4482060000000 1.0
C      1  0.5081960000000  0.5699960000000  0.5786900000000 1.0
C      1  0.5580600000000  0.5447760000000  0.4940710000000 1.0
C      1  0.5871430000000  0.4554670000000  0.5193390000000 1.0
C      1  0.3754850000000  0.5062250000000  0.5126910000000 1.0
C      1  0.4439210000000  0.5867130000000  0.4400770000000 1.0
C      1  0.4301940000000  0.4779020000000  0.4349410000000 1.0
C      1  0.4357420000000  0.4702060000000  0.6164450000000 1.0
C      1  0.4336870000000  0.4051760000000  0.4887800000000 1.0
C      1  0.5323620000000  0.5027570000000  0.4491890000000 1.0
C      1  0.4954970000000  0.5507990000000  0.3824360000000 1.0
C      1  0.5577750000000  0.4017740000000  0.4597640000000 1.0
C      1  0.4989880000000  0.3890170000000  0.3835530000000 1.0
C      1  0.4300520000000  0.3992510000000  0.5175330000000 1.0
C      1  0.5575230000000  0.5448130000000  0.4236400000000 1.0
C      1  0.5347450000000  0.6220070000000  0.4678650000000 1.0
C      1  0.4593930000000  0.5300950000000  0.4184880000000 1.0
C      1  0.4225290000000  0.5459560000000  0.5888830000000 1.0
C      1  0.5560030000000  0.6026800000000  0.4546640000000 1.0
C      1  0.4807890000000  0.6150130000000  0.4620120000000 1.0
C      1  0.5893530000000  0.4653700000000  0.5790700000000 1.0
C      1  0.4781750000000  0.4450990000000  0.4919560000000 1.0
C      1  0.4047690000000  0.5189800000000  0.4370770000000 1.0
C      1  0.4825830000000  0.4149520000000  0.4287770000000 1.0
C      1  0.4855610000000  0.4033370000000  0.4034900000000 1.0
C      1  0.4025810000000  0.5295960000000  0.5733950000000 1.0
C      1  0.4379730000000  0.5632140000000  0.5170110000000 1.0
C      1  0.5456440000000  0.6364040000000  0.5377380000000 1.0
C      1  0.5106980000000  0.4884470000000  0.4238980000000 1.0
C      1  0.3988010000000  0.4353860000000  0.5323550000000 1.0
C      1  0.5443330000000  0.3989220000000  0.5232860000000 1.0
C      1  0.6308960000000  0.5056810000000  0.5268610000000 1.0
C      1  0.4404100000000  0.4469000000000  0.4662760000000 1.0
C      1  0.4299790000000  0.5118880000000  0.5028090000000 1.0
C      1  0.5116610000000  0.5104980000000  0.4697560000000 1.0
C      1  0.5916410000000  0.4208930000000  0.4260350000000 1.0
C      1  0.6024530000000  0.3437380000000  0.4646820000000 1.0
C      1  0.5993630000000  0.4930690000000  0.4550420000000 1.0
C      1  0.4567700000000  0.4518070000000  0.5122310000000 1.0
C      1  0.5504360000000  0.3859500000000  0.4345730000000 1.0
C      1  0.5524690000000  0.4816590000000  0.4557500000000 1.0
C      1  0.5788310000000  0.5802240000000  0.4584910000000 1.0
C      1  0.4844420000000  0.5519880000000  0.4932780000000 1.0
C      1  0.5768650000000  0.5640690000000  0.4329920000000 1.0
END
