TITL C-627113-6568-194 0.0503373684651114 125000 -200.599968371959 0 0 34 (C1) n - 1
REM
REM in /home/nfs/bkarasulu/CARBON/AIRSS/Generating-Clusters/LCBOP/Only-C1/SD-CG/FIRE-CG
REM
REM
REM
REM
REM
REM ./C.cell (11c1c37f851c82e70ff6c80c92926a4b)
REM AIRSS Version 0.9.1 bugfix July 2018 build 013d7b7c2542+ Fri, 06 Jul 2018 19:26:36 +0100
REM compiler GCC version 9.2.1 20190827 (Red Hat 9.2.1-1)
REM options -cpp -mtune=generic -march=x86-64 -g -O0 -fpre-include=/usr/include/finclude/math-vector-fortran.h
REM seed 2119408177 -1215279568 -181352979 -651159128 -1786169442 960459478 -1793395345 -2059256470 486791738 -148691010 -206241653 -1261339104 2138474126 -1802991583 -995980226 1340937611 -560996308 -1104708847 -1733633147 -1828995760 -49120970 -2091239496 1842068625 -98837621 1539972064 -922927191 -557244248 354915597 -2016562341 1181459341 -139325861 -2026367970 2035610938
REM
CELL 1.54180   50.00000   50.00000   50.00000   90.00000   90.00000   90.00000
LATT -1
SFAC C  
C      1  0.4084780000000  0.5054900000000  0.4194590000000 1.0
C      1  0.5890830000000  0.5555100000000  0.5107060000000 1.0
C      1  0.4784700000000  0.4711910000000  0.4889010000000 1.0
C      1  0.5725350000000  0.4846670000000  0.5363480000000 1.0
C      1  0.4948120000000  0.4899880000000  0.5024880000000 1.0
C      1  0.4857270000000  0.4622260000000  0.4634470000000 1.0
C      1  0.5498000000000  0.5283200000000  0.4924050000000 1.0
C      1  0.5482830000000  0.4820850000000  0.5504970000000 1.0
C      1  0.4731670000000  0.5304580000000  0.4474070000000 1.0
C      1  0.3933930000000  0.4862250000000  0.4298270000000 1.0
C      1  0.3950730000000  0.4544270000000  0.4704470000000 1.0
C      1  0.4101740000000  0.4478930000000  0.4912590000000 1.0
C      1  0.5229130000000  0.4938970000000  0.5473830000000 1.0
C      1  0.4888850000000  0.5251230000000  0.4680730000000 1.0
C      1  0.4304340000000  0.4352980000000  0.5330020000000 1.0
C      1  0.5050190000000  0.4838130000000  0.5280670000000 1.0
C      1  0.5199820000000  0.5378450000000  0.5296040000000 1.0
C      1  0.5156820000000  0.5414730000000  0.6028360000000 1.0
C      1  0.5176190000000  0.5321100000000  0.5785930000000 1.0
C      1  0.4530260000000  0.5294430000000  0.4301660000000 1.0
C      1  0.5200660000000  0.5218730000000  0.5529220000000 1.0
C      1  0.5232150000000  0.5301150000000  0.5025330000000 1.0
C      1  0.6062230000000  0.5222810000000  0.5445590000000 1.0
C      1  0.4300980000000  0.5209220000000  0.4198370000000 1.0
C      1  0.5944290000000  0.4983840000000  0.5474590000000 1.0
C      1  0.5678930000000  0.5496710000000  0.4953580000000 1.0
C      1  0.4919090000000  0.4555160000000  0.4390360000000 1.0
C      1  0.5609270000000  0.5023820000000  0.4903140000000 1.0
C      1  0.5020380000000  0.5151330000000  0.4905460000000 1.0
C      1  0.3887170000000  0.4678270000000  0.4484180000000 1.0
C      1  0.4554130000000  0.4611550000000  0.5010990000000 1.0
C      1  0.4319790000000  0.4479260000000  0.5088090000000 1.0
C      1  0.6040760000000  0.5447140000000  0.5300920000000 1.0
C      1  0.5704640000000  0.4846170000000  0.5081040000000 1.0
END
