TITL C-627108-131-1366 -406963.059948977 125000 -1224.43372494022 0 0 198 (C1) n - 1
REM
REM in /home/nfs/bkarasulu/CARBON/AIRSS/Generating-Clusters/LCBOP/Only-C1/SD-CG/FIRE-CG
REM
REM
REM
REM
REM
REM ./C.cell (11c1c37f851c82e70ff6c80c92926a4b)
REM AIRSS Version 0.9.1 bugfix July 2018 build 013d7b7c2542+ Fri, 06 Jul 2018 19:26:36 +0100
REM compiler GCC version 9.2.1 20190827 (Red Hat 9.2.1-1)
REM options -cpp -mtune=generic -march=x86-64 -g -O0 -fpre-include=/usr/include/finclude/math-vector-fortran.h
REM seed 1467213013 979265209 450250109 -421205198 1159130966 1797696705 -1747662488 358621208 -934520872 -161331533 -47871934 2014236938 463848286 -1045543819 -1561373153 -948372741 806291411 527501494 -1218337927 1539731755 58460231 -1809402848 1250552048 -74450209 1056286891 -585181965 -212881406 -1304614071 232433384 -1654479564 -1392419670 -1199269 -1775482288
REM
CELL 1.54180   50.00000   50.00000   50.00000   90.00000   90.00000   90.00000
LATT -1
SFAC C  
C      1  0.4884220000000  0.3872860000000  0.5068370000000 1.0
C      1  0.4912010000000  0.3087330000000  0.4860280000000 1.0
C      1  0.6085750000000  0.4521820000000  0.5118810000000 1.0
C      1  0.5009100000000  0.5078400000000  0.5606960000000 1.0
C      1  0.4931180000000  0.5646390000000  0.4744580000000 1.0
C      1  0.5492890000000  0.4018070000000  0.5682450000000 1.0
C      1  0.4433840000000  0.4958280000000  0.5567030000000 1.0
C      1  0.5767300000000  0.5590410000000  0.4250580000000 1.0
C      1  0.5516830000000  0.4404970000000  0.5207370000000 1.0
C      1  0.4042740000000  0.5099040000000  0.4654710000000 1.0
C      1  0.5068590000000  0.4244490000000  0.5302500000000 1.0
C      1  0.4444680000000  0.3582060000000  0.4654270000000 1.0
C      1  0.5677350000000  0.5781700000000  0.4662060000000 1.0
C      1  0.4221360000000  0.5979550000000  0.4858340000000 1.0
C      1  0.6019370000000  0.4895140000000  0.4171830000000 1.0
C      1  0.5087570000000  0.5412540000000  0.4672910000000 1.0
C      1  0.5243260000000  0.5634530000000  0.5336520000000 1.0
C      1  0.4791270000000  0.5730570000000  0.5864630000000 1.0
C      1  0.5310640000000  0.5681030000000  0.4343350000000 1.0
C      1  0.5975660000000  0.5171110000000  0.4197640000000 1.0
C      1  0.5875070000000  0.4270010000000  0.4761660000000 1.0
C      1  0.4982360000000  0.4881530000000  0.5195510000000 1.0
C      1  0.5670010000000  0.5512310000000  0.5748620000000 1.0
C      1  0.4085550000000  0.5259220000000  0.5943500000000 1.0
C      1  0.4777060000000  0.5496410000000  0.6060150000000 1.0
C      1  0.5426620000000  0.4411790000000  0.4168590000000 1.0
C      1  0.4138860000000  0.5095170000000  0.4005510000000 1.0
C      1  0.4190350000000  0.5022430000000  0.6080280000000 1.0
C      1  0.5046730000000  0.4603730000000  0.3842580000000 1.0
C      1  0.5855640000000  0.5285790000000  0.5721650000000 1.0
C      1  0.5313810000000  0.4600250000000  0.3973390000000 1.0
C      1  0.6261360000000  0.4825990000000  0.4294710000000 1.0
C      1  0.5027320000000  0.4864150000000  0.3703820000000 1.0
C      1  0.5029850000000  0.5498280000000  0.3988070000000 1.0
C      1  0.6267330000000  0.4854520000000  0.4568850000000 1.0
C      1  0.4703550000000  0.3148190000000  0.4706150000000 1.0
C      1  0.5477450000000  0.5533180000000  0.3821330000000 1.0
C      1  0.5944660000000  0.4275450000000  0.5046910000000 1.0
C      1  0.5391610000000  0.5893300000000  0.4170750000000 1.0
C      1  0.5035200000000  0.5156500000000  0.4706300000000 1.0
C      1  0.4599070000000  0.5094860000000  0.4141430000000 1.0
C      1  0.5885130000000  0.5930790000000  0.5241910000000 1.0
C      1  0.5211630000000  0.3297650000000  0.5229000000000 1.0
C      1  0.4304690000000  0.5450460000000  0.5871290000000 1.0
C      1  0.4839960000000  0.5727190000000  0.3997310000000 1.0
C      1  0.5027540000000  0.4497670000000  0.6027450000000 1.0
C      1  0.4554670000000  0.5725680000000  0.4069040000000 1.0
C      1  0.4959310000000  0.5989620000000  0.4073220000000 1.0
C      1  0.5213920000000  0.3934840000000  0.5667280000000 1.0
C      1  0.4055770000000  0.5821480000000  0.4697180000000 1.0
C      1  0.5435360000000  0.6143360000000  0.5220500000000 1.0
C      1  0.5332030000000  0.5810240000000  0.4942590000000 1.0
C      1  0.5353110000000  0.4574280000000  0.5622930000000 1.0
C      1  0.4789410000000  0.4733900000000  0.5048320000000 1.0
C      1  0.5242390000000  0.5389580000000  0.5174670000000 1.0
C      1  0.5395810000000  0.6297650000000  0.4968370000000 1.0
C      1  0.4272590000000  0.5103940000000  0.4823800000000 1.0
C      1  0.5600150000000  0.5670940000000  0.4928390000000 1.0
C      1  0.5688360000000  0.4063310000000  0.5491790000000 1.0
C      1  0.3914830000000  0.5354210000000  0.4696910000000 1.0
C      1  0.3824520000000  0.4974770000000  0.5230740000000 1.0
C      1  0.4407620000000  0.4601860000000  0.4426900000000 1.0
C      1  0.5092120000000  0.3143880000000  0.5047800000000 1.0
C      1  0.5170230000000  0.4404280000000  0.4740790000000 1.0
C      1  0.5127740000000  0.6292980000000  0.4842880000000 1.0
C      1  0.4689530000000  0.6111520000000  0.5464930000000 1.0
C      1  0.5448810000000  0.5072280000000  0.5874570000000 1.0
C      1  0.6023900000000  0.5469650000000  0.5008980000000 1.0
C      1  0.4883350000000  0.4108340000000  0.4628110000000 1.0
C      1  0.4271660000000  0.4108930000000  0.5814510000000 1.0
C      1  0.4697840000000  0.5981990000000  0.5730860000000 1.0
C      1  0.5248100000000  0.5050080000000  0.4863270000000 1.0
C      1  0.4482250000000  0.5489120000000  0.5355920000000 1.0
C      1  0.5554370000000  0.4629010000000  0.4767550000000 1.0
C      1  0.5518560000000  0.5380540000000  0.5027760000000 1.0
C      1  0.4865810000000  0.4289340000000  0.5883650000000 1.0
C      1  0.4053940000000  0.4398050000000  0.4658310000000 1.0
C      1  0.4498450000000  0.5949510000000  0.4248890000000 1.0
C      1  0.5257420000000  0.4201520000000  0.4265740000000 1.0
C      1  0.5622930000000  0.4637490000000  0.5061890000000 1.0
C      1  0.4740080000000  0.4355900000000  0.4717510000000 1.0
C      1  0.5206840000000  0.3792640000000  0.5411530000000 1.0
C      1  0.5778730000000  0.5015010000000  0.4765530000000 1.0
C      1  0.4889470000000  0.4782180000000  0.6164230000000 1.0
C      1  0.4645720000000  0.4467280000000  0.4463390000000 1.0
C      1  0.4810180000000  0.3887760000000  0.4789330000000 1.0
C      1  0.5519040000000  0.5174750000000  0.4797310000000 1.0
C      1  0.5135910000000  0.5855980000000  0.4742130000000 1.0
C      1  0.4990720000000  0.4167160000000  0.4358870000000 1.0
C      1  0.3780310000000  0.4751090000000  0.5044650000000 1.0
C      1  0.4283580000000  0.5500650000000  0.4401440000000 1.0
C      1  0.4786040000000  0.4452400000000  0.4983660000000 1.0
C      1  0.4500390000000  0.6090390000000  0.5238700000000 1.0
C      1  0.4723260000000  0.3921330000000  0.5534230000000 1.0
C      1  0.5228580000000  0.5361900000000  0.3807270000000 1.0
C      1  0.4476220000000  0.4634210000000  0.5952610000000 1.0
C      1  0.4640680000000  0.6162470000000  0.4975290000000 1.0
C      1  0.3989960000000  0.5386420000000  0.5460210000000 1.0
C      1  0.3991060000000  0.4841790000000  0.5428890000000 1.0
C      1  0.3964540000000  0.4524100000000  0.5096810000000 1.0
C      1  0.4857010000000  0.4657270000000  0.5622120000000 1.0
C      1  0.5174060000000  0.6082590000000  0.4246870000000 1.0
C      1  0.5600730000000  0.5726170000000  0.4016460000000 1.0
C      1  0.4063750000000  0.4315030000000  0.4928860000000 1.0
C      1  0.5830580000000  0.4686540000000  0.4174950000000 1.0
C      1  0.5065590000000  0.5013480000000  0.6149230000000 1.0
C      1  0.5673370000000  0.4490280000000  0.4310220000000 1.0
C      1  0.5794900000000  0.4813430000000  0.5679630000000 1.0
C      1  0.6018630000000  0.5172060000000  0.5486780000000 1.0
C      1  0.5733620000000  0.5047120000000  0.5841900000000 1.0
C      1  0.4523340000000  0.3328140000000  0.4627050000000 1.0
C      1  0.4249360000000  0.5515160000000  0.5519620000000 1.0
C      1  0.4904380000000  0.6270870000000  0.5031300000000 1.0
C      1  0.5262380000000  0.4617040000000  0.5903710000000 1.0
C      1  0.4801810000000  0.4363060000000  0.4243430000000 1.0
C      1  0.3992250000000  0.4964340000000  0.4190430000000 1.0
C      1  0.5294870000000  0.5143890000000  0.5630570000000 1.0
C      1  0.5164750000000  0.5459490000000  0.4238350000000 1.0
C      1  0.4479500000000  0.5084130000000  0.6137610000000 1.0
C      1  0.5253860000000  0.3523080000000  0.5363780000000 1.0
C      1  0.5323490000000  0.5232540000000  0.4326150000000 1.0
C      1  0.5968720000000  0.5405800000000  0.4355940000000 1.0
C      1  0.3818370000000  0.5387010000000  0.4965290000000 1.0
C      1  0.6295310000000  0.4680610000000  0.5010230000000 1.0
C      1  0.4526750000000  0.4393450000000  0.5484470000000 1.0
C      1  0.5719380000000  0.6061030000000  0.4652250000000 1.0
C      1  0.5293750000000  0.5887790000000  0.5214390000000 1.0
C      1  0.5385120000000  0.5565970000000  0.5808470000000 1.0
C      1  0.4986640000000  0.4835030000000  0.5468020000000 1.0
C      1  0.4413010000000  0.4643470000000  0.5358970000000 1.0
C      1  0.5310170000000  0.4963370000000  0.4272770000000 1.0
C      1  0.4139850000000  0.4624900000000  0.4508770000000 1.0
C      1  0.4695910000000  0.5667050000000  0.4571430000000 1.0
C      1  0.5107320000000  0.3968760000000  0.5212220000000 1.0
C      1  0.5869180000000  0.5709970000000  0.5067260000000 1.0
C      1  0.4117420000000  0.4613530000000  0.5324750000000 1.0
C      1  0.5125610000000  0.6108550000000  0.4600770000000 1.0
C      1  0.6090060000000  0.5052580000000  0.4747300000000 1.0
C      1  0.3980160000000  0.5203300000000  0.5688090000000 1.0
C      1  0.5024430000000  0.5324090000000  0.6119170000000 1.0
C      1  0.5146090000000  0.4812180000000  0.4456920000000 1.0
C      1  0.4525500000000  0.3812080000000  0.4788880000000 1.0
C      1  0.4348540000000  0.4874200000000  0.4943360000000 1.0
C      1  0.5943540000000  0.5288160000000  0.5235900000000 1.0
C      1  0.4544470000000  0.5477260000000  0.5072130000000 1.0
C      1  0.6384000000000  0.4653070000000  0.4739300000000 1.0
C      1  0.5268650000000  0.5473940000000  0.6055980000000 1.0
C      1  0.4138340000000  0.4105900000000  0.5354100000000 1.0
C      1  0.5560190000000  0.5592230000000  0.4477100000000 1.0
C      1  0.4902790000000  0.5592180000000  0.5637670000000 1.0
C      1  0.4417560000000  0.3914940000000  0.5039690000000 1.0
C      1  0.4658630000000  0.4476020000000  0.5743880000000 1.0
C      1  0.4642720000000  0.3879760000000  0.5246940000000 1.0
C      1  0.5292350000000  0.4404210000000  0.5389170000000 1.0
C      1  0.4709590000000  0.5424050000000  0.5514850000000 1.0
C      1  0.4483670000000  0.6062140000000  0.4751960000000 1.0
C      1  0.4527720000000  0.5357570000000  0.6044800000000 1.0
C      1  0.4372210000000  0.5506850000000  0.4121320000000 1.0
C      1  0.4912440000000  0.4989350000000  0.4519940000000 1.0
C      1  0.4844130000000  0.4469310000000  0.3986150000000 1.0
C      1  0.3858940000000  0.5267290000000  0.5220620000000 1.0
C      1  0.5970640000000  0.4873240000000  0.5457220000000 1.0
C      1  0.4052920000000  0.5571450000000  0.4563980000000 1.0
C      1  0.4521600000000  0.4768480000000  0.5122270000000 1.0
C      1  0.5613560000000  0.6274400000000  0.4782670000000 1.0
C      1  0.4802150000000  0.4333620000000  0.5248060000000 1.0
C      1  0.5144170000000  0.5106040000000  0.5126890000000 1.0
C      1  0.5484710000000  0.5046600000000  0.5419330000000 1.0
C      1  0.4792120000000  0.5609010000000  0.5009920000000 1.0
C      1  0.6080220000000  0.5365870000000  0.4699300000000 1.0
C      1  0.5283060000000  0.4641490000000  0.4656720000000 1.0
C      1  0.5884150000000  0.4716500000000  0.5213540000000 1.0
C      1  0.4382760000000  0.5237680000000  0.4023760000000 1.0
C      1  0.4239090000000  0.6006640000000  0.5146120000000 1.0
C      1  0.4532100000000  0.5410450000000  0.4565150000000 1.0
C      1  0.4915790000000  0.6252400000000  0.5330300000000 1.0
C      1  0.6223600000000  0.4970090000000  0.5014920000000 1.0
C      1  0.4020070000000  0.4885920000000  0.4462020000000 1.0
C      1  0.5462570000000  0.5334450000000  0.4563000000000 1.0
C      1  0.4311190000000  0.4194470000000  0.5556860000000 1.0
C      1  0.4723630000000  0.5156810000000  0.5598360000000 1.0
C      1  0.4690120000000  0.5124990000000  0.4403430000000 1.0
C      1  0.5303060000000  0.4889780000000  0.6026490000000 1.0
C      1  0.4572780000000  0.5921940000000  0.4521630000000 1.0
C      1  0.4155720000000  0.4993340000000  0.5593960000000 1.0
C      1  0.4201060000000  0.4735920000000  0.5994710000000 1.0
C      1  0.5727730000000  0.4205570000000  0.5245100000000 1.0
C      1  0.5182520000000  0.5614410000000  0.5604530000000 1.0
C      1  0.4624190000000  0.4833650000000  0.6113020000000 1.0
C      1  0.5702960000000  0.6118190000000  0.5315970000000 1.0
C      1  0.5222080000000  0.5061510000000  0.3803460000000 1.0
C      1  0.5659720000000  0.5222320000000  0.5237730000000 1.0
C      1  0.5359810000000  0.4888720000000  0.4007860000000 1.0
C      1  0.5542870000000  0.4772960000000  0.5536820000000 1.0
C      1  0.4193460000000  0.4094260000000  0.5075360000000 1.0
C      1  0.4934960000000  0.4037520000000  0.5732290000000 1.0
C      1  0.4442080000000  0.5330110000000  0.4842400000000 1.0
C      1  0.5721110000000  0.4453860000000  0.4600100000000 1.0
END
