TITL C-627110-360-1743 0.00169021351482424 125000 -178.69563739456 0 0 31 (C1) n - 1
REM
REM in /home/nfs/bkarasulu/CARBON/AIRSS/Generating-Clusters/LCBOP/Only-C1/SD-CG/FIRE-CG
REM
REM
REM
REM
REM
REM ./C.cell (11c1c37f851c82e70ff6c80c92926a4b)
REM AIRSS Version 0.9.1 bugfix July 2018 build 013d7b7c2542+ Fri, 06 Jul 2018 19:26:36 +0100
REM compiler GCC version 9.2.1 20190827 (Red Hat 9.2.1-1)
REM options -cpp -mtune=generic -march=x86-64 -g -O0 -fpre-include=/usr/include/finclude/math-vector-fortran.h
REM seed 575566701 -1575329094 -740377092 1789477259 2064056163 -998204687 2117038140 210036209 282727188 760667476 -1475084493 2102493157 -2081579146 720183748 -1504590277 1187368980 1081842452 845053282 -762151410 -1834028597 -806105607 1538518572 623678175 380747101 -1326147372 -1560800730 49271086 1669151911 304916277 -496937769 -993620096 2090043213 -1567478575
REM
CELL 1.54180   50.00000   50.00000   50.00000   90.00000   90.00000   90.00000
LATT -1
SFAC C  
C      1  0.4114070000000  0.4669950000000  0.5349010000000 1.0
C      1  0.5054370000000  0.5549580000000  0.5183650000000 1.0
C      1  0.5446440000000  0.5278910000000  0.5074110000000 1.0
C      1  0.4901990000000  0.5022300000000  0.5524900000000 1.0
C      1  0.5663420000000  0.4926840000000  0.4816360000000 1.0
C      1  0.4212060000000  0.4371340000000  0.4933890000000 1.0
C      1  0.4648860000000  0.5013540000000  0.5604930000000 1.0
C      1  0.4082370000000  0.5376400000000  0.5827420000000 1.0
C      1  0.4279210000000  0.5330810000000  0.5643310000000 1.0
C      1  0.5666830000000  0.4702840000000  0.4973630000000 1.0
C      1  0.4118900000000  0.4495450000000  0.5149150000000 1.0
C      1  0.4396020000000  0.5542360000000  0.5501100000000 1.0
C      1  0.6113150000000  0.5486890000000  0.4876080000000 1.0
C      1  0.5897360000000  0.5344610000000  0.4909350000000 1.0
C      1  0.5208640000000  0.5317170000000  0.5213220000000 1.0
C      1  0.6108800000000  0.4803800000000  0.4259370000000 1.0
C      1  0.5407650000000  0.4937140000000  0.4396670000000 1.0
C      1  0.4823950000000  0.5669900000000  0.5241350000000 1.0
C      1  0.4199980000000  0.4867390000000  0.5503990000000 1.0
C      1  0.5104940000000  0.5119760000000  0.5383440000000 1.0
C      1  0.5887900000000  0.4849500000000  0.4389850000000 1.0
C      1  0.5031740000000  0.4546830000000  0.4398340000000 1.0
C      1  0.4376330000000  0.4314860000000  0.4733330000000 1.0
C      1  0.5344720000000  0.5178270000000  0.4283650000000 1.0
C      1  0.4374080000000  0.5067000000000  0.5593070000000 1.0
C      1  0.4811620000000  0.4411910000000  0.4458840000000 1.0
C      1  0.4585420000000  0.4330480000000  0.4570840000000 1.0
C      1  0.5654550000000  0.4903780000000  0.4533280000000 1.0
C      1  0.5229980000000  0.4721830000000  0.4380920000000 1.0
C      1  0.4585520000000  0.5662940000000  0.5359100000000 1.0
C      1  0.5669110000000  0.5185650000000  0.4933860000000 1.0
END
