TITL C-627108-131-1705 1.14559508464312 125000 -406.80367883946 0 0 68 (C1) n - 1
REM
REM in /home/nfs/bkarasulu/CARBON/AIRSS/Generating-Clusters/LCBOP/Only-C1/SD-CG/FIRE-CG
REM
REM
REM
REM
REM
REM ./C.cell (11c1c37f851c82e70ff6c80c92926a4b)
REM AIRSS Version 0.9.1 bugfix July 2018 build 013d7b7c2542+ Fri, 06 Jul 2018 19:26:36 +0100
REM compiler GCC version 9.2.1 20190827 (Red Hat 9.2.1-1)
REM options -cpp -mtune=generic -march=x86-64 -g -O0 -fpre-include=/usr/include/finclude/math-vector-fortran.h
REM seed -852437814 742128251 -405960960 79587913 760479717 -1454994240 630972158 -1760705445 262440637 1021047928 -695122619 1795293029 -303062461 -451451264 -1825349893 -783983892 -2060629886 -1083124486 -766006216 -1921993220 -1023608651 1478706574 -897848723 -606483299 1108868795 1573786172 1635608672 -1849298266 660247449 1220171799 322197105 -1618479164 1074241590
REM
CELL 1.54180   50.00000   50.00000   50.00000   90.00000   90.00000   90.00000
LATT -1
SFAC C  
C      1  0.5116750000000  0.4770870000000  0.4704270000000 1.0
C      1  0.3960780000000  0.4984090000000  0.4440520000000 1.0
C      1  0.5176080000000  0.5525880000000  0.4858040000000 1.0
C      1  0.5645330000000  0.5475110000000  0.5091060000000 1.0
C      1  0.3889170000000  0.5020880000000  0.5555660000000 1.0
C      1  0.4639930000000  0.4807810000000  0.4798530000000 1.0
C      1  0.4310170000000  0.5783050000000  0.5340420000000 1.0
C      1  0.5131520000000  0.5497720000000  0.5592510000000 1.0
C      1  0.6213210000000  0.4441590000000  0.5224890000000 1.0
C      1  0.4805380000000  0.5617060000000  0.5246080000000 1.0
C      1  0.5402130000000  0.5413960000000  0.3918590000000 1.0
C      1  0.4560110000000  0.5752210000000  0.5253310000000 1.0
C      1  0.4207650000000  0.5011160000000  0.4884520000000 1.0
C      1  0.6485530000000  0.4570510000000  0.5581360000000 1.0
C      1  0.4472040000000  0.4871170000000  0.5266070000000 1.0
C      1  0.4453750000000  0.4611160000000  0.4358900000000 1.0
C      1  0.5773040000000  0.5519110000000  0.3554980000000 1.0
C      1  0.6133050000000  0.4348370000000  0.4983200000000 1.0
C      1  0.4077480000000  0.5479560000000  0.5680970000000 1.0
C      1  0.4937680000000  0.4010160000000  0.5650670000000 1.0
C      1  0.4345400000000  0.4437730000000  0.5455640000000 1.0
C      1  0.5161840000000  0.4646050000000  0.4442210000000 1.0
C      1  0.6485720000000  0.4465880000000  0.5324180000000 1.0
C      1  0.4477960000000  0.5432230000000  0.4509550000000 1.0
C      1  0.4299790000000  0.5412830000000  0.5841680000000 1.0
C      1  0.4116590000000  0.5691170000000  0.5500300000000 1.0
C      1  0.5369080000000  0.4462630000000  0.4456310000000 1.0
C      1  0.4646420000000  0.5031420000000  0.5415120000000 1.0
C      1  0.5250690000000  0.5401510000000  0.4384560000000 1.0
C      1  0.5761950000000  0.4559110000000  0.5444730000000 1.0
C      1  0.4553500000000  0.4617680000000  0.4607720000000 1.0
C      1  0.5429450000000  0.4181250000000  0.5640930000000 1.0
C      1  0.5115890000000  0.5370590000000  0.4629860000000 1.0
C      1  0.4536930000000  0.4986490000000  0.4071000000000 1.0
C      1  0.4019640000000  0.5032870000000  0.4696790000000 1.0
C      1  0.4718390000000  0.5176040000000  0.4169460000000 1.0
C      1  0.5470070000000  0.4462120000000  0.4714140000000 1.0
C      1  0.5587520000000  0.5466520000000  0.3736840000000 1.0
C      1  0.4545380000000  0.5320160000000  0.5789180000000 1.0
C      1  0.5198880000000  0.4053060000000  0.5667030000000 1.0
C      1  0.5424590000000  0.4727260000000  0.5129360000000 1.0
C      1  0.4478720000000  0.4220400000000  0.5527770000000 1.0
C      1  0.5750150000000  0.5284020000000  0.5243110000000 1.0
C      1  0.4086120000000  0.4887750000000  0.4223630000000 1.0
C      1  0.4954750000000  0.5254930000000  0.4040400000000 1.0
C      1  0.6041630000000  0.4541300000000  0.5445020000000 1.0
C      1  0.4890350000000  0.4935180000000  0.4741980000000 1.0
C      1  0.5440440000000  0.5556960000000  0.4943210000000 1.0
C      1  0.5610260000000  0.4361780000000  0.5571110000000 1.0
C      1  0.4884910000000  0.5456700000000  0.5468700000000 1.0
C      1  0.4351920000000  0.4805030000000  0.4180510000000 1.0
C      1  0.5207770000000  0.5358430000000  0.4109350000000 1.0
C      1  0.4683990000000  0.5267100000000  0.4439290000000 1.0
C      1  0.4889480000000  0.5196090000000  0.4625640000000 1.0
C      1  0.6223260000000  0.4617600000000  0.5659080000000 1.0
C      1  0.5634680000000  0.4774060000000  0.5309540000000 1.0
C      1  0.4447930000000  0.4904090000000  0.4985470000000 1.0
C      1  0.4282840000000  0.4703340000000  0.5399070000000 1.0
C      1  0.5328730000000  0.4657750000000  0.4878800000000 1.0
C      1  0.5573620000000  0.5584030000000  0.5863320000000 1.0
C      1  0.4706410000000  0.5258870000000  0.5567180000000 1.0
C      1  0.5955510000000  0.5570820000000  0.3376100000000 1.0
C      1  0.5353450000000  0.5542360000000  0.5730100000000 1.0
C      1  0.4684180000000  0.4068700000000  0.5599140000000 1.0
C      1  0.3890450000000  0.5276660000000  0.5632340000000 1.0
C      1  0.4969360000000  0.5621680000000  0.5020240000000 1.0
C      1  0.5735180000000  0.5034120000000  0.5331770000000 1.0
C      1  0.4037470000000  0.4814220000000  0.5476980000000 1.0
END
