TITL C-627109-622-713 68506.9516148993 125000 -984.699817184994 0 0 159 (C1) n - 1
REM
REM in /home/nfs/bkarasulu/CARBON/AIRSS/Generating-Clusters/LCBOP/Only-C1/SD-CG/FIRE-CG
REM
REM
REM
REM
REM
REM ./C.cell (11c1c37f851c82e70ff6c80c92926a4b)
REM AIRSS Version 0.9.1 bugfix July 2018 build 013d7b7c2542+ Fri, 06 Jul 2018 19:26:36 +0100
REM compiler GCC version 9.2.1 20190827 (Red Hat 9.2.1-1)
REM options -cpp -mtune=generic -march=x86-64 -g -O0 -fpre-include=/usr/include/finclude/math-vector-fortran.h
REM seed -1347298331 1558082843 -304271606 793157429 900206580 -1342360047 -1459356579 -724908190 -166151352 -1001468075 1933924244 -1723740961 -1506027093 507656181 -1821952593 583305099 992830858 -313667615 2137481021 -1481392679 -1808414133 -474722276 -37794270 -572155048 1043087272 420417384 -1641399249 418727001 1029174045 -1175982148 328730314 1934498321 1124175731
REM
CELL 1.54180   50.00000   50.00000   50.00000   90.00000   90.00000   90.00000
LATT -1
SFAC C  
C      1  0.3916400000000  0.5455250000000  0.5228950000000 1.0
C      1  0.5335950000000  0.4002120000000  0.4722340000000 1.0
C      1  0.5718760000000  0.4967840000000  0.5464950000000 1.0
C      1  0.4418750000000  0.5018250000000  0.5255500000000 1.0
C      1  0.5827460000000  0.4844580000000  0.5693360000000 1.0
C      1  0.5868880000000  0.5268570000000  0.4571800000000 1.0
C      1  0.5378930000000  0.5120220000000  0.4679070000000 1.0
C      1  0.4338710000000  0.5858830000000  0.5860980000000 1.0
C      1  0.5655110000000  0.4330830000000  0.5145190000000 1.0
C      1  0.5727060000000  0.4904520000000  0.4147910000000 1.0
C      1  0.5806570000000  0.5664500000000  0.5085810000000 1.0
C      1  0.5724560000000  0.5525930000000  0.4589670000000 1.0
C      1  0.5390850000000  0.5823230000000  0.5349100000000 1.0
C      1  0.5513050000000  0.4765780000000  0.4023170000000 1.0
C      1  0.4993150000000  0.5558130000000  0.4790470000000 1.0
C      1  0.4114290000000  0.4779270000000  0.5687310000000 1.0
C      1  0.5022170000000  0.5927870000000  0.5101210000000 1.0
C      1  0.5361400000000  0.5300810000000  0.5566260000000 1.0
C      1  0.5568170000000  0.4234720000000  0.5424130000000 1.0
C      1  0.5107790000000  0.5057250000000  0.3910530000000 1.0
C      1  0.5592180000000  0.4137240000000  0.4679960000000 1.0
C      1  0.4263630000000  0.5433000000000  0.5645650000000 1.0
C      1  0.5080140000000  0.5600580000000  0.5914990000000 1.0
C      1  0.4709520000000  0.4385160000000  0.5438940000000 1.0
C      1  0.5039590000000  0.5739690000000  0.4587370000000 1.0
C      1  0.5218100000000  0.4245250000000  0.5116350000000 1.0
C      1  0.5378870000000  0.5585670000000  0.5940200000000 1.0
C      1  0.5537850000000  0.5168590000000  0.5388100000000 1.0
C      1  0.3908560000000  0.4348540000000  0.5797280000000 1.0
C      1  0.4382350000000  0.5213130000000  0.3908660000000 1.0
C      1  0.5645100000000  0.4263170000000  0.4414470000000 1.0
C      1  0.4579460000000  0.4188650000000  0.4337910000000 1.0
C      1  0.5905350000000  0.5487980000000  0.5648410000000 1.0
C      1  0.5168420000000  0.4848270000000  0.5599620000000 1.0
C      1  0.5242310000000  0.5449870000000  0.4272850000000 1.0
C      1  0.6156900000000  0.4844180000000  0.5164650000000 1.0
C      1  0.4981410000000  0.5162600000000  0.6160820000000 1.0
C      1  0.5105370000000  0.4482180000000  0.4391830000000 1.0
C      1  0.5026370000000  0.5657060000000  0.4329410000000 1.0
C      1  0.4945820000000  0.4485970000000  0.4635600000000 1.0
C      1  0.4522710000000  0.5704230000000  0.5154280000000 1.0
C      1  0.4615790000000  0.4845120000000  0.4783760000000 1.0
C      1  0.4739270000000  0.6112690000000  0.4750180000000 1.0
C      1  0.5192080000000  0.5211240000000  0.4473740000000 1.0
C      1  0.4907190000000  0.5138040000000  0.4476540000000 1.0
C      1  0.5978790000000  0.4963840000000  0.4987620000000 1.0
C      1  0.4567020000000  0.5772980000000  0.5439850000000 1.0
C      1  0.5423410000000  0.5130140000000  0.5143210000000 1.0
C      1  0.3956080000000  0.4553420000000  0.5613970000000 1.0
C      1  0.4842350000000  0.4871880000000  0.4367050000000 1.0
C      1  0.4469990000000  0.5066400000000  0.4674440000000 1.0
C      1  0.4761240000000  0.4692280000000  0.3815310000000 1.0
C      1  0.5226850000000  0.3857260000000  0.4504360000000 1.0
C      1  0.5949210000000  0.4926630000000  0.4532720000000 1.0
C      1  0.5752920000000  0.5730170000000  0.5607990000000 1.0
C      1  0.4746100000000  0.5255180000000  0.5742180000000 1.0
C      1  0.4938810000000  0.4475170000000  0.3768230000000 1.0
C      1  0.3962210000000  0.5193270000000  0.5123990000000 1.0
C      1  0.4519860000000  0.4371750000000  0.4145640000000 1.0
C      1  0.4390610000000  0.5688950000000  0.5651780000000 1.0
C      1  0.4195780000000  0.5058810000000  0.4601710000000 1.0
C      1  0.5115930000000  0.4824250000000  0.5335450000000 1.0
C      1  0.4216830000000  0.4423340000000  0.4903800000000 1.0
C      1  0.5105180000000  0.5330710000000  0.4013300000000 1.0
C      1  0.4683290000000  0.5252050000000  0.4621670000000 1.0
C      1  0.5807740000000  0.4565470000000  0.5709600000000 1.0
C      1  0.5004810000000  0.6080170000000  0.4856510000000 1.0
C      1  0.5042370000000  0.4920780000000  0.6266340000000 1.0
C      1  0.4620880000000  0.5445500000000  0.5076940000000 1.0
C      1  0.4676760000000  0.4334380000000  0.5085130000000 1.0
C      1  0.4470680000000  0.5163210000000  0.5742620000000 1.0
C      1  0.4812130000000  0.5428650000000  0.4005380000000 1.0
C      1  0.5882030000000  0.4502580000000  0.4741800000000 1.0
C      1  0.4594150000000  0.4841780000000  0.4209560000000 1.0
C      1  0.5382550000000  0.4705720000000  0.4948810000000 1.0
C      1  0.5050010000000  0.4289870000000  0.3931960000000 1.0
C      1  0.4760600000000  0.4890160000000  0.5011720000000 1.0
C      1  0.5305040000000  0.5903860000000  0.5616180000000 1.0
C      1  0.5543960000000  0.4482240000000  0.3994390000000 1.0
C      1  0.5366940000000  0.5285180000000  0.4920310000000 1.0
C      1  0.3906760000000  0.4133970000000  0.5952700000000 1.0
C      1  0.5246040000000  0.4856120000000  0.4055170000000 1.0
C      1  0.4092220000000  0.4609410000000  0.4734090000000 1.0
C      1  0.5112420000000  0.5405190000000  0.5440820000000 1.0
C      1  0.4660740000000  0.5215570000000  0.3871850000000 1.0
C      1  0.5522950000000  0.5800720000000  0.5788530000000 1.0
C      1  0.5620430000000  0.4352850000000  0.5685770000000 1.0
C      1  0.4867500000000  0.4804120000000  0.5234120000000 1.0
C      1  0.5042050000000  0.5818860000000  0.5712890000000 1.0
C      1  0.5773370000000  0.5306240000000  0.5833620000000 1.0
C      1  0.5178470000000  0.5678440000000  0.5206250000000 1.0
C      1  0.5472560000000  0.4277840000000  0.4185850000000 1.0
C      1  0.5166350000000  0.4243960000000  0.4207580000000 1.0
C      1  0.4076370000000  0.3953830000000  0.4907580000000 1.0
C      1  0.5771240000000  0.4273760000000  0.4886670000000 1.0
C      1  0.5035930000000  0.4007960000000  0.4356710000000 1.0
C      1  0.3925560000000  0.3916020000000  0.6094520000000 1.0
C      1  0.5769380000000  0.5723810000000  0.4808340000000 1.0
C      1  0.3872920000000  0.4960530000000  0.4984780000000 1.0
C      1  0.5122810000000  0.4113510000000  0.4890320000000 1.0
C      1  0.3781940000000  0.4750520000000  0.5164400000000 1.0
C      1  0.5885990000000  0.4741600000000  0.4326880000000 1.0
C      1  0.3923060000000  0.5679420000000  0.5061550000000 1.0
C      1  0.4813970000000  0.5862720000000  0.5551350000000 1.0
C      1  0.6346600000000  0.4726550000000  0.5299220000000 1.0
C      1  0.5434650000000  0.4335350000000  0.5910400000000 1.0
C      1  0.5503620000000  0.5613930000000  0.4421580000000 1.0
C      1  0.5672770000000  0.5772360000000  0.5321670000000 1.0
C      1  0.5298400000000  0.4883350000000  0.5141740000000 1.0
C      1  0.4390000000000  0.5831640000000  0.4923220000000 1.0
C      1  0.4059850000000  0.4207640000000  0.5004430000000 1.0
C      1  0.5194340000000  0.4513440000000  0.5990500000000 1.0
C      1  0.4542780000000  0.5909800000000  0.4682820000000 1.0
C      1  0.5967460000000  0.5430840000000  0.5132280000000 1.0
C      1  0.4768780000000  0.4701020000000  0.4604770000000 1.0
C      1  0.4760500000000  0.5630980000000  0.4219290000000 1.0
C      1  0.5444230000000  0.5934610000000  0.4559850000000 1.0
C      1  0.5291710000000  0.4134730000000  0.5370880000000 1.0
C      1  0.4846160000000  0.5287470000000  0.5472350000000 1.0
C      1  0.4836910000000  0.4980340000000  0.3809410000000 1.0
C      1  0.4012470000000  0.5467790000000  0.5502860000000 1.0
C      1  0.3887640000000  0.4284280000000  0.5213530000000 1.0
C      1  0.5776210000000  0.6220250000000  0.4789290000000 1.0
C      1  0.5842360000000  0.4478510000000  0.4443450000000 1.0
C      1  0.4750390000000  0.5428210000000  0.4827460000000 1.0
C      1  0.4570670000000  0.5766240000000  0.4413670000000 1.0
C      1  0.5523550000000  0.4859510000000  0.4748350000000 1.0
C      1  0.3852640000000  0.4534660000000  0.5341800000000 1.0
C      1  0.4884130000000  0.4261470000000  0.5626350000000 1.0
C      1  0.5206820000000  0.5511650000000  0.4964220000000 1.0
C      1  0.5088660000000  0.4735710000000  0.4259190000000 1.0
C      1  0.4634690000000  0.5234350000000  0.5268640000000 1.0
C      1  0.4026950000000  0.5012880000000  0.5557870000000 1.0
C      1  0.4122710000000  0.5162320000000  0.4350800000000 1.0
C      1  0.4571060000000  0.4626750000000  0.4027530000000 1.0
C      1  0.5753780000000  0.5175580000000  0.4232030000000 1.0
C      1  0.4191330000000  0.5207600000000  0.4096300000000 1.0
C      1  0.5182280000000  0.5974560000000  0.4652640000000 1.0
C      1  0.5873550000000  0.5045120000000  0.5888850000000 1.0
C      1  0.4441350000000  0.4721680000000  0.5250050000000 1.0
C      1  0.4949430000000  0.4376760000000  0.5877640000000 1.0
C      1  0.6040650000000  0.5399880000000  0.5409320000000 1.0
C      1  0.4446890000000  0.4501060000000  0.5050050000000 1.0
C      1  0.5076260000000  0.4075230000000  0.5536420000000 1.0
C      1  0.5123420000000  0.4659650000000  0.6245580000000 1.0
C      1  0.4920210000000  0.5352890000000  0.5955100000000 1.0
C      1  0.4108490000000  0.5824370000000  0.4932590000000 1.0
C      1  0.4150910000000  0.5090300000000  0.5315180000000 1.0
C      1  0.5832140000000  0.4803990000000  0.4786090000000 1.0
C      1  0.5401510000000  0.4451840000000  0.5051860000000 1.0
C      1  0.5970370000000  0.5237150000000  0.4924560000000 1.0
C      1  0.5483760000000  0.5346550000000  0.5825300000000 1.0
C      1  0.4404610000000  0.4815760000000  0.5708040000000 1.0
C      1  0.4863330000000  0.4231330000000  0.4777440000000 1.0
C      1  0.4541540000000  0.4626020000000  0.5515900000000 1.0
C      1  0.4024530000000  0.4883590000000  0.4751230000000 1.0
C      1  0.4785320000000  0.4077340000000  0.4506940000000 1.0
C      1  0.5258180000000  0.4752280000000  0.5823540000000 1.0
C      1  0.5669900000000  0.5979240000000  0.4724710000000 1.0
END
