TITL C-627113-6568-947 -4.34353809668263e-07 125000 -764.237588962782 0 0 126 (C1) n - 1
REM
REM in /home/nfs/bkarasulu/CARBON/AIRSS/Generating-Clusters/LCBOP/Only-C1/SD-CG/FIRE-CG
REM
REM
REM
REM
REM
REM ./C.cell (11c1c37f851c82e70ff6c80c92926a4b)
REM AIRSS Version 0.9.1 bugfix July 2018 build 013d7b7c2542+ Fri, 06 Jul 2018 19:26:36 +0100
REM compiler GCC version 9.2.1 20190827 (Red Hat 9.2.1-1)
REM options -cpp -mtune=generic -march=x86-64 -g -O0 -fpre-include=/usr/include/finclude/math-vector-fortran.h
REM seed -499057467 -1363622792 -1469509038 52334566 -1248412240 1887437467 1723181945 419304396 -490286163 -1721617206 1045438032 1021395843 898268429 -298315831 1255900935 -1807984388 -158103975 227819613 -1027486133 -462781204 -278738413 1014125286 1061289681 -1723125248 997659789 497619078 895846068 -48321101 267051088 204285 733076774 -164503982 1662053596
REM
CELL 1.54180   50.00000   50.00000   50.00000   90.00000   90.00000   90.00000
LATT -1
SFAC C  
C      1  0.5047950000000  0.5363790000000  0.5876740000000 1.0
C      1  0.6181790000000  0.5028320000000  0.5077020000000 1.0
C      1  0.5116380000000  0.4109570000000  0.5023700000000 1.0
C      1  0.5606730000000  0.4815930000000  0.4933430000000 1.0
C      1  0.4456750000000  0.6025190000000  0.4199520000000 1.0
C      1  0.5057190000000  0.4410910000000  0.4638550000000 1.0
C      1  0.4186360000000  0.5458620000000  0.4804250000000 1.0
C      1  0.4844660000000  0.3950990000000  0.4674310000000 1.0
C      1  0.5201800000000  0.5673390000000  0.5127360000000 1.0
C      1  0.4915360000000  0.4529420000000  0.5488120000000 1.0
C      1  0.4451190000000  0.5046780000000  0.5167290000000 1.0
C      1  0.4363730000000  0.4041420000000  0.5053350000000 1.0
C      1  0.5206930000000  0.4885440000000  0.5887190000000 1.0
C      1  0.5708820000000  0.5024680000000  0.4180370000000 1.0
C      1  0.5318000000000  0.4011900000000  0.5695880000000 1.0
C      1  0.4633900000000  0.4100740000000  0.5514900000000 1.0
C      1  0.4628250000000  0.5788760000000  0.4654540000000 1.0
C      1  0.4247220000000  0.4860840000000  0.5212940000000 1.0
C      1  0.5512960000000  0.5405640000000  0.5818090000000 1.0
C      1  0.4312770000000  0.4962580000000  0.4198340000000 1.0
C      1  0.4663290000000  0.4845800000000  0.4836070000000 1.0
C      1  0.5303530000000  0.4198870000000  0.5223980000000 1.0
C      1  0.5811640000000  0.5078500000000  0.4451980000000 1.0
C      1  0.4735220000000  0.4958980000000  0.3895210000000 1.0
C      1  0.4266920000000  0.5006780000000  0.5754030000000 1.0
C      1  0.4712210000000  0.5653060000000  0.5383690000000 1.0
C      1  0.6101900000000  0.4830970000000  0.5238700000000 1.0
C      1  0.4718530000000  0.4986850000000  0.5958310000000 1.0
C      1  0.5058080000000  0.5968470000000  0.5502990000000 1.0
C      1  0.4860390000000  0.4761580000000  0.5035280000000 1.0
C      1  0.5604140000000  0.5269750000000  0.4582820000000 1.0
C      1  0.4319540000000  0.4208090000000  0.4842890000000 1.0
C      1  0.4620130000000  0.4587600000000  0.4431140000000 1.0
C      1  0.4453200000000  0.4984470000000  0.3947750000000 1.0
C      1  0.5781740000000  0.5858370000000  0.4990840000000 1.0
C      1  0.3930900000000  0.5380130000000  0.4815330000000 1.0
C      1  0.5591000000000  0.5497690000000  0.5335140000000 1.0
C      1  0.4921650000000  0.5600030000000  0.5184280000000 1.0
C      1  0.5082750000000  0.4428480000000  0.4347330000000 1.0
C      1  0.4519670000000  0.5441620000000  0.5431960000000 1.0
C      1  0.3863750000000  0.5106100000000  0.4838500000000 1.0
C      1  0.5515850000000  0.4299690000000  0.4564780000000 1.0
C      1  0.5335460000000  0.6108940000000  0.5047160000000 1.0
C      1  0.5652490000000  0.4463900000000  0.5836030000000 1.0
C      1  0.5648600000000  0.4357910000000  0.4822210000000 1.0
C      1  0.4296390000000  0.4403900000000  0.5356210000000 1.0
C      1  0.4893370000000  0.5168670000000  0.5282130000000 1.0
C      1  0.4619880000000  0.5180920000000  0.5349280000000 1.0
C      1  0.4438900000000  0.5341140000000  0.4775730000000 1.0
C      1  0.4972580000000  0.4919600000000  0.4352490000000 1.0
C      1  0.3961240000000  0.4955660000000  0.4612570000000 1.0
C      1  0.4635430000000  0.5500030000000  0.4649080000000 1.0
C      1  0.4711200000000  0.5953820000000  0.4872930000000 1.0
C      1  0.5463820000000  0.4898230000000  0.5745890000000 1.0
C      1  0.5250330000000  0.5758760000000  0.5594360000000 1.0
C      1  0.3824330000000  0.5027690000000  0.5112800000000 1.0
C      1  0.4241240000000  0.5414730000000  0.5501410000000 1.0
C      1  0.6110090000000  0.5157460000000  0.4836360000000 1.0
C      1  0.4353290000000  0.4729020000000  0.5770400000000 1.0
C      1  0.5095790000000  0.6098740000000  0.5226270000000 1.0
C      1  0.5259330000000  0.5540370000000  0.5792290000000 1.0
C      1  0.4018140000000  0.4996170000000  0.5320020000000 1.0
C      1  0.4784940000000  0.5877650000000  0.5542370000000 1.0
C      1  0.4422820000000  0.4144200000000  0.5308580000000 1.0
C      1  0.4756550000000  0.3894260000000  0.4424560000000 1.0
C      1  0.5143440000000  0.5107290000000  0.5387320000000 1.0
C      1  0.5901430000000  0.4482440000000  0.4777870000000 1.0
C      1  0.4785720000000  0.3806360000000  0.4917770000000 1.0
C      1  0.4547850000000  0.4282000000000  0.5735310000000 1.0
C      1  0.4869390000000  0.5350210000000  0.4589150000000 1.0
C      1  0.5483540000000  0.5152930000000  0.4040320000000 1.0
C      1  0.5379920000000  0.5679720000000  0.5351790000000 1.0
C      1  0.5604340000000  0.5480240000000  0.4365540000000 1.0
C      1  0.5368990000000  0.5086450000000  0.4573120000000 1.0
C      1  0.5186090000000  0.5755950000000  0.4367670000000 1.0
C      1  0.5374020000000  0.4862180000000  0.5064840000000 1.0
C      1  0.5363000000000  0.4344280000000  0.4331500000000 1.0
C      1  0.4991460000000  0.5083350000000  0.5919440000000 1.0
C      1  0.5129040000000  0.4617950000000  0.5926460000000 1.0
C      1  0.4912410000000  0.3924110000000  0.5144890000000 1.0
C      1  0.4344350000000  0.4490460000000  0.4867730000000 1.0
C      1  0.5532980000000  0.4363390000000  0.5157860000000 1.0
C      1  0.4851870000000  0.6088810000000  0.5061870000000 1.0
C      1  0.4272010000000  0.4588780000000  0.5137800000000 1.0
C      1  0.4893360000000  0.4007580000000  0.5422420000000 1.0
C      1  0.4525390000000  0.4636750000000  0.4696650000000 1.0
C      1  0.5161070000000  0.4664310000000  0.4711580000000 1.0
C      1  0.5050590000000  0.5362060000000  0.4804050000000 1.0
C      1  0.4872820000000  0.4642990000000  0.4297740000000 1.0
C      1  0.6051060000000  0.5437030000000  0.4842060000000 1.0
C      1  0.5657220000000  0.4551820000000  0.5364360000000 1.0
C      1  0.5196580000000  0.4876640000000  0.4526800000000 1.0
C      1  0.4119000000000  0.5152500000000  0.5551170000000 1.0
C      1  0.5920180000000  0.4646770000000  0.5303510000000 1.0
C      1  0.5269830000000  0.6055380000000  0.4768820000000 1.0
C      1  0.4801850000000  0.4638170000000  0.5276420000000 1.0
C      1  0.5564390000000  0.5423820000000  0.4850410000000 1.0
C      1  0.5022840000000  0.4164980000000  0.4759980000000 1.0
C      1  0.5267050000000  0.5025860000000  0.3901750000000 1.0
C      1  0.5591580000000  0.5150180000000  0.5770500000000 1.0
C      1  0.4655720000000  0.4430250000000  0.5960090000000 1.0
C      1  0.5574300000000  0.4642970000000  0.5635620000000 1.0
C      1  0.5189610000000  0.5555300000000  0.4162600000000 1.0
C      1  0.4481630000000  0.5149610000000  0.5901110000000 1.0
C      1  0.4295570000000  0.5037740000000  0.3727260000000 1.0
C      1  0.5373800000000  0.5087120000000  0.5225630000000 1.0
C      1  0.5280600000000  0.5568670000000  0.4837240000000 1.0
C      1  0.5178930000000  0.4089820000000  0.5474340000000 1.0
C      1  0.5004320000000  0.4971760000000  0.3852380000000 1.0
C      1  0.5549590000000  0.5295210000000  0.5141720000000 1.0
C      1  0.6023510000000  0.4698720000000  0.4672560000000 1.0
C      1  0.4125860000000  0.4942770000000  0.4395280000000 1.0
C      1  0.4533640000000  0.5917860000000  0.4424180000000 1.0
C      1  0.5610490000000  0.6044390000000  0.5092850000000 1.0
C      1  0.5036900000000  0.4478440000000  0.5718270000000 1.0
C      1  0.4966140000000  0.5383380000000  0.4136710000000 1.0
C      1  0.4897270000000  0.5202320000000  0.4345490000000 1.0
C      1  0.5816930000000  0.5597440000000  0.4880910000000 1.0
C      1  0.5133680000000  0.4754500000000  0.4968850000000 1.0
C      1  0.4603390000000  0.4715310000000  0.5945200000000 1.0
C      1  0.5252290000000  0.5800810000000  0.4640770000000 1.0
C      1  0.4340330000000  0.4478320000000  0.5628410000000 1.0
C      1  0.4920050000000  0.5342280000000  0.5058420000000 1.0
C      1  0.5442430000000  0.5425510000000  0.4137230000000 1.0
C      1  0.4514800000000  0.5087610000000  0.4891570000000 1.0
C      1  0.6010600000000  0.4979600000000  0.4628760000000 1.0
END
