TITL C-627110-360-1088 0.0111742613681758 125000 -207.681834592125 0 0 36 (C1) n - 1
REM
REM in /home/nfs/bkarasulu/CARBON/AIRSS/Generating-Clusters/LCBOP/Only-C1/SD-CG/FIRE-CG
REM
REM
REM
REM
REM
REM ./C.cell (11c1c37f851c82e70ff6c80c92926a4b)
REM AIRSS Version 0.9.1 bugfix July 2018 build 013d7b7c2542+ Fri, 06 Jul 2018 19:26:36 +0100
REM compiler GCC version 9.2.1 20190827 (Red Hat 9.2.1-1)
REM options -cpp -mtune=generic -march=x86-64 -g -O0 -fpre-include=/usr/include/finclude/math-vector-fortran.h
REM seed -1808391782 -1013982388 1138228457 333387792 -831775126 1262224091 644084577 -455265924 1430319530 1777631677 1218758406 -1118238385 769333415 -406760601 977814789 -542510853 -1764735015 1603146701 -463922732 725568438 -1535012423 736692410 -2121274468 -580388039 781563052 -1599561554 1881547255 258783070 395407521 596881198 1504513868 -64406607 1497630973
REM
CELL 1.54180   50.00000   50.00000   50.00000   90.00000   90.00000   90.00000
LATT -1
SFAC C  
C      1  0.5049460000000  0.4282600000000  0.4854400000000 1.0
C      1  0.5436560000000  0.5836600000000  0.4300380000000 1.0
C      1  0.5426530000000  0.5613520000000  0.4447730000000 1.0
C      1  0.5233330000000  0.4705640000000  0.4680400000000 1.0
C      1  0.4661890000000  0.6040500000000  0.5487000000000 1.0
C      1  0.4772920000000  0.5819600000000  0.5357210000000 1.0
C      1  0.5352300000000  0.5665640000000  0.4929210000000 1.0
C      1  0.4558790000000  0.6247330000000  0.5607490000000 1.0
C      1  0.4905820000000  0.4418730000000  0.5051160000000 1.0
C      1  0.5212950000000  0.4427640000000  0.4668210000000 1.0
C      1  0.5180350000000  0.6106440000000  0.4801290000000 1.0
C      1  0.4216280000000  0.4891480000000  0.5981690000000 1.0
C      1  0.4788790000000  0.4604030000000  0.5218620000000 1.0
C      1  0.5540340000000  0.5621850000000  0.5124080000000 1.0
C      1  0.5022010000000  0.3513440000000  0.4790200000000 1.0
C      1  0.4661020000000  0.5299100000000  0.5447670000000 1.0
C      1  0.4525320000000  0.4315510000000  0.5530800000000 1.0
C      1  0.4372830000000  0.4853680000000  0.5776810000000 1.0
C      1  0.5111640000000  0.3763660000000  0.4709420000000 1.0
C      1  0.5287850000000  0.3799270000000  0.4491750000000 1.0
C      1  0.5364550000000  0.6091710000000  0.4344310000000 1.0
C      1  0.5352670000000  0.5502030000000  0.4694730000000 1.0
C      1  0.5162760000000  0.5877120000000  0.4962450000000 1.0
C      1  0.4937710000000  0.3278850000000  0.4866250000000 1.0
C      1  0.4961990000000  0.5856060000000  0.5154970000000 1.0
C      1  0.4610660000000  0.4558390000000  0.5443520000000 1.0
C      1  0.5254420000000  0.6202650000000  0.4562860000000 1.0
C      1  0.4820720000000  0.4889810000000  0.5203940000000 1.0
C      1  0.4695560000000  0.5560970000000  0.5428870000000 1.0
C      1  0.5283290000000  0.5232080000000  0.4711350000000 1.0
C      1  0.5251350000000  0.4969290000000  0.4699740000000 1.0
C      1  0.4539390000000  0.4815080000000  0.5558990000000 1.0
C      1  0.5389120000000  0.4028640000000  0.4393780000000 1.0
C      1  0.5034020000000  0.4001990000000  0.4838050000000 1.0
C      1  0.4671250000000  0.5026150000000  0.5408930000000 1.0
C      1  0.5353540000000  0.4282900000000  0.4471750000000 1.0
END
