TITL C-627110-360-437 -71175.3962006642 125000 -735.849366536159 0 0 120 (C1) n - 1
REM
REM in /home/nfs/bkarasulu/CARBON/AIRSS/Generating-Clusters/LCBOP/Only-C1/SD-CG/FIRE-CG
REM
REM
REM
REM
REM
REM ./C.cell (11c1c37f851c82e70ff6c80c92926a4b)
REM AIRSS Version 0.9.1 bugfix July 2018 build 013d7b7c2542+ Fri, 06 Jul 2018 19:26:36 +0100
REM compiler GCC version 9.2.1 20190827 (Red Hat 9.2.1-1)
REM options -cpp -mtune=generic -march=x86-64 -g -O0 -fpre-include=/usr/include/finclude/math-vector-fortran.h
REM seed -128444464 191473159 -246637194 -958182518 -2145133891 -1099463670 -901014103 83005317 504178943 1121093801 -1292312442 -62725139 -1451975215 1830413484 701650989 1561269632 -1391338060 -1135423281 -343248936 974863689 1737079467 846583857 988396025 317775602 -66878147 292321615 -234375907 1951003084 -645854170 -905178312 1361501044 -964912748 1949777664
REM
CELL 1.54180   50.00000   50.00000   50.00000   90.00000   90.00000   90.00000
LATT -1
SFAC C  
C      1  0.4570430000000  0.4934500000000  0.5813620000000 1.0
C      1  0.5440940000000  0.4598620000000  0.5854900000000 1.0
C      1  0.4864780000000  0.4729470000000  0.4694330000000 1.0
C      1  0.5216790000000  0.5229390000000  0.5234450000000 1.0
C      1  0.4965650000000  0.4867070000000  0.5340660000000 1.0
C      1  0.5796990000000  0.5594060000000  0.5082270000000 1.0
C      1  0.3948270000000  0.4757010000000  0.4848540000000 1.0
C      1  0.5435850000000  0.5052970000000  0.5252830000000 1.0
C      1  0.5482460000000  0.4933650000000  0.5008820000000 1.0
C      1  0.4917340000000  0.5493900000000  0.4677800000000 1.0
C      1  0.5090630000000  0.4494270000000  0.5047660000000 1.0
C      1  0.5135600000000  0.4218280000000  0.4433140000000 1.0
C      1  0.4906230000000  0.4272970000000  0.5530300000000 1.0
C      1  0.4532780000000  0.5422620000000  0.4426920000000 1.0
C      1  0.4955250000000  0.5015240000000  0.5585230000000 1.0
C      1  0.5550180000000  0.5171270000000  0.5824770000000 1.0
C      1  0.4419470000000  0.5266930000000  0.5358810000000 1.0
C      1  0.5052160000000  0.4209890000000  0.5069880000000 1.0
C      1  0.4748470000000  0.5462890000000  0.5727550000000 1.0
C      1  0.4640850000000  0.4605940000000  0.4821820000000 1.0
C      1  0.5153130000000  0.5409710000000  0.5445640000000 1.0
C      1  0.4858870000000  0.4132180000000  0.5273720000000 1.0
C      1  0.5211930000000  0.4549530000000  0.6029360000000 1.0
C      1  0.4948940000000  0.4865300000000  0.4090610000000 1.0
C      1  0.5305060000000  0.4863070000000  0.4813760000000 1.0
C      1  0.5358490000000  0.4989640000000  0.4569230000000 1.0
C      1  0.5592180000000  0.4829860000000  0.4155520000000 1.0
C      1  0.4786190000000  0.5604750000000  0.5171630000000 1.0
C      1  0.4432460000000  0.4384720000000  0.4404920000000 1.0
C      1  0.5110820000000  0.4926370000000  0.5800180000000 1.0
C      1  0.4808660000000  0.4993060000000  0.4584470000000 1.0
C      1  0.4617310000000  0.5085630000000  0.4777710000000 1.0
C      1  0.4753660000000  0.6023490000000  0.4574480000000 1.0
C      1  0.4987020000000  0.5068520000000  0.5133040000000 1.0
C      1  0.5444430000000  0.4141170000000  0.4797790000000 1.0
C      1  0.4987490000000  0.4713300000000  0.5955550000000 1.0
C      1  0.4611380000000  0.3967910000000  0.4883470000000 1.0
C      1  0.5397900000000  0.4283500000000  0.4542460000000 1.0
C      1  0.5104830000000  0.4670370000000  0.4828130000000 1.0
C      1  0.4742510000000  0.5155580000000  0.5021120000000 1.0
C      1  0.5905720000000  0.5062320000000  0.4594420000000 1.0
C      1  0.4301070000000  0.4792940000000  0.5429430000000 1.0
C      1  0.4917340000000  0.5295160000000  0.5564970000000 1.0
C      1  0.5865810000000  0.4762550000000  0.4219650000000 1.0
C      1  0.5710770000000  0.5218410000000  0.4414860000000 1.0
C      1  0.5082940000000  0.4616740000000  0.5301200000000 1.0
C      1  0.4720590000000  0.5039300000000  0.4077980000000 1.0
C      1  0.4616330000000  0.4023130000000  0.5163950000000 1.0
C      1  0.5660700000000  0.4228920000000  0.4955770000000 1.0
C      1  0.5159170000000  0.4424450000000  0.5504540000000 1.0
C      1  0.5536800000000  0.4525610000000  0.4522760000000 1.0
C      1  0.4661120000000  0.5129800000000  0.6018540000000 1.0
C      1  0.4647650000000  0.5352910000000  0.5195550000000 1.0
C      1  0.4382910000000  0.4861760000000  0.4412640000000 1.0
C      1  0.4530490000000  0.4642170000000  0.4301830000000 1.0
C      1  0.4250170000000  0.4310520000000  0.5340940000000 1.0
C      1  0.4466190000000  0.4592220000000  0.5021990000000 1.0
C      1  0.5929510000000  0.4903940000000  0.5185730000000 1.0
C      1  0.4322900000000  0.4570640000000  0.5262610000000 1.0
C      1  0.4153210000000  0.5488860000000  0.4728130000000 1.0
C      1  0.4430670000000  0.5810180000000  0.4993280000000 1.0
C      1  0.5043020000000  0.5681610000000  0.5070250000000 1.0
C      1  0.5320990000000  0.5740090000000  0.5107210000000 1.0
C      1  0.4831090000000  0.5363590000000  0.5997160000000 1.0
C      1  0.5095160000000  0.5725140000000  0.5797570000000 1.0
C      1  0.4427690000000  0.5021760000000  0.5551110000000 1.0
C      1  0.5802680000000  0.4643720000000  0.5188640000000 1.0
C      1  0.5453010000000  0.5764680000000  0.4530200000000 1.0
C      1  0.4374770000000  0.4076110000000  0.5297870000000 1.0
C      1  0.4658930000000  0.4213060000000  0.4428720000000 1.0
C      1  0.4742680000000  0.5230740000000  0.4302730000000 1.0
C      1  0.4735830000000  0.4028850000000  0.4637710000000 1.0
C      1  0.5091880000000  0.5520110000000  0.4462550000000 1.0
C      1  0.4284090000000  0.5321350000000  0.4540330000000 1.0
C      1  0.4187030000000  0.5369250000000  0.5202610000000 1.0
C      1  0.3954450000000  0.5200240000000  0.5178710000000 1.0
C      1  0.4187730000000  0.4396010000000  0.4545870000000 1.0
C      1  0.4231140000000  0.5579630000000  0.4992210000000 1.0
C      1  0.5949280000000  0.5103530000000  0.4877630000000 1.0
C      1  0.5786900000000  0.4586950000000  0.4668780000000 1.0
C      1  0.4582810000000  0.5842060000000  0.4733470000000 1.0
C      1  0.5492640000000  0.4881200000000  0.5468090000000 1.0
C      1  0.3946840000000  0.4978720000000  0.5000590000000 1.0
C      1  0.5602650000000  0.4617080000000  0.5404220000000 1.0
C      1  0.5900410000000  0.5342780000000  0.5135370000000 1.0
C      1  0.4942080000000  0.5603440000000  0.4024910000000 1.0
C      1  0.5023530000000  0.4022620000000  0.4634490000000 1.0
C      1  0.3735580000000  0.5254300000000  0.5334980000000 1.0
C      1  0.5774060000000  0.5209450000000  0.5625790000000 1.0
C      1  0.4809880000000  0.5744360000000  0.5704880000000 1.0
C      1  0.4657090000000  0.5585280000000  0.4626260000000 1.0
C      1  0.5435190000000  0.4454910000000  0.5591280000000 1.0
C      1  0.5180460000000  0.4052120000000  0.4874540000000 1.0
C      1  0.5116940000000  0.5489370000000  0.6000520000000 1.0
C      1  0.4023540000000  0.4547340000000  0.4697310000000 1.0
C      1  0.5434770000000  0.4756970000000  0.4391180000000 1.0
C      1  0.5892290000000  0.5149310000000  0.5360360000000 1.0
C      1  0.5412260000000  0.4905170000000  0.5762250000000 1.0
C      1  0.5375330000000  0.5348560000000  0.5978890000000 1.0
C      1  0.4828770000000  0.4616390000000  0.4208360000000 1.0
C      1  0.5188360000000  0.5793510000000  0.4441610000000 1.0
C      1  0.5536010000000  0.5612180000000  0.4968750000000 1.0
C      1  0.5012920000000  0.5372900000000  0.4215060000000 1.0
C      1  0.5787660000000  0.4485630000000  0.4943110000000 1.0
C      1  0.5201560000000  0.5116800000000  0.4116300000000 1.0
C      1  0.4720050000000  0.4666530000000  0.5843660000000 1.0
C      1  0.5487360000000  0.5265430000000  0.4588790000000 1.0
C      1  0.4713830000000  0.4416500000000  0.5695330000000 1.0
C      1  0.4884900000000  0.5861560000000  0.4107080000000 1.0
C      1  0.4367210000000  0.5059660000000  0.4621630000000 1.0
C      1  0.4905680000000  0.4348140000000  0.4310240000000 1.0
C      1  0.4605250000000  0.5823390000000  0.5232400000000 1.0
C      1  0.4660740000000  0.5892830000000  0.5507190000000 1.0
C      1  0.5500010000000  0.5535200000000  0.4699760000000 1.0
C      1  0.5251090000000  0.5655840000000  0.5563200000000 1.0
C      1  0.5374730000000  0.5820530000000  0.5374630000000 1.0
C      1  0.5943870000000  0.5820030000000  0.5129190000000 1.0
C      1  0.5929270000000  0.4785090000000  0.4505030000000 1.0
C      1  0.4957380000000  0.5959350000000  0.4371780000000 1.0
C      1  0.5510190000000  0.5099870000000  0.4131770000000 1.0
END
