TITL C-627109-622-1139 -0.00124520044790415 125000 -200.957687584573 0 0 34 (C1) n - 1
REM
REM in /home/nfs/bkarasulu/CARBON/AIRSS/Generating-Clusters/LCBOP/Only-C1/SD-CG/FIRE-CG
REM
REM
REM
REM
REM
REM ./C.cell (11c1c37f851c82e70ff6c80c92926a4b)
REM AIRSS Version 0.9.1 bugfix July 2018 build 013d7b7c2542+ Fri, 06 Jul 2018 19:26:36 +0100
REM compiler GCC version 9.2.1 20190827 (Red Hat 9.2.1-1)
REM options -cpp -mtune=generic -march=x86-64 -g -O0 -fpre-include=/usr/include/finclude/math-vector-fortran.h
REM seed 105684043 -1195973664 375154001 -983105923 330339221 601067367 1271016223 879316245 -781450689 -1136572049 2035336285 1747470187 -1708264062 -426394845 1604222165 -198005957 1721678913 -434257765 -1295586857 1822786559 765339062 -741717240 1624136867 1692863380 432356506 242019208 -477870390 540578137 -1121251558 1906461399 -143931083 -51412571 -367127519
REM
CELL 1.54180   50.00000   50.00000   50.00000   90.00000   90.00000   90.00000
LATT -1
SFAC C  
C      1  0.4926440000000  0.4692760000000  0.4430250000000 1.0
C      1  0.4852110000000  0.4743580000000  0.5134400000000 1.0
C      1  0.5002010000000  0.5264800000000  0.5463530000000 1.0
C      1  0.5166890000000  0.4682240000000  0.4567330000000 1.0
C      1  0.5636210000000  0.4717220000000  0.5440020000000 1.0
C      1  0.4484240000000  0.4557720000000  0.4366830000000 1.0
C      1  0.5098960000000  0.4847210000000  0.5216300000000 1.0
C      1  0.5255460000000  0.4895130000000  0.5672480000000 1.0
C      1  0.4795570000000  0.5197960000000  0.4496200000000 1.0
C      1  0.5181470000000  0.5475490000000  0.5420610000000 1.0
C      1  0.5303550000000  0.4720370000000  0.4792130000000 1.0
C      1  0.5334990000000  0.4790170000000  0.5062160000000 1.0
C      1  0.5105740000000  0.5000650000000  0.5458130000000 1.0
C      1  0.4753110000000  0.4926700000000  0.4434450000000 1.0
C      1  0.4094470000000  0.4542640000000  0.5039260000000 1.0
C      1  0.6162250000000  0.5172580000000  0.4819430000000 1.0
C      1  0.5935090000000  0.5177310000000  0.4970550000000 1.0
C      1  0.4301340000000  0.5352970000000  0.5188690000000 1.0
C      1  0.4281990000000  0.5016510000000  0.4542700000000 1.0
C      1  0.4748200000000  0.4473610000000  0.4365990000000 1.0
C      1  0.4243590000000  0.5325710000000  0.4930050000000 1.0
C      1  0.5824790000000  0.5418140000000  0.5062470000000 1.0
C      1  0.5405740000000  0.5576110000000  0.5319770000000 1.0
C      1  0.4347560000000  0.4597310000000  0.5069430000000 1.0
C      1  0.5491040000000  0.4764750000000  0.5661750000000 1.0
C      1  0.4603070000000  0.4663630000000  0.5092950000000 1.0
C      1  0.4727010000000  0.5311110000000  0.5479650000000 1.0
C      1  0.4349280000000  0.5255820000000  0.4681870000000 1.0
C      1  0.4604460000000  0.5357120000000  0.4605070000000 1.0
C      1  0.4481050000000  0.5344320000000  0.5384670000000 1.0
C      1  0.4467050000000  0.4838740000000  0.4426930000000 1.0
C      1  0.5636200000000  0.5556120000000  0.5189000000000 1.0
C      1  0.5598210000000  0.4802010000000  0.5173780000000 1.0
C      1  0.5800860000000  0.4941490000000  0.5041160000000 1.0
END
