TITL C-627110-360-1613 0.00052909937725449 125000 -773.822951868766 0 0 126 (C1) n - 1
REM
REM in /home/nfs/bkarasulu/CARBON/AIRSS/Generating-Clusters/LCBOP/Only-C1/SD-CG/FIRE-CG
REM
REM
REM
REM
REM
REM ./C.cell (11c1c37f851c82e70ff6c80c92926a4b)
REM AIRSS Version 0.9.1 bugfix July 2018 build 013d7b7c2542+ Fri, 06 Jul 2018 19:26:36 +0100
REM compiler GCC version 9.2.1 20190827 (Red Hat 9.2.1-1)
REM options -cpp -mtune=generic -march=x86-64 -g -O0 -fpre-include=/usr/include/finclude/math-vector-fortran.h
REM seed 1728234381 -1988786214 -1088934710 -847049201 -438671419 876411717 -910739831 -846687225 -781620963 -147533994 114041488 -112642062 -295798996 1010972929 -1158550971 2107963936 -1036581002 1603860358 889994587 1188013244 1418107549 1084150716 -348539691 -658385498 -2140476598 1512586976 843980307 -1375274051 1304995149 521875655 -699341621 -329842029 -1589704159
REM
CELL 1.54180   50.00000   50.00000   50.00000   90.00000   90.00000   90.00000
LATT -1
SFAC C  
C      1  0.5028280000000  0.4805960000000  0.5429870000000 1.0
C      1  0.5301530000000  0.4023990000000  0.5203820000000 1.0
C      1  0.5293700000000  0.5666680000000  0.4914190000000 1.0
C      1  0.3812290000000  0.4718810000000  0.5302260000000 1.0
C      1  0.5353040000000  0.3293240000000  0.4577510000000 1.0
C      1  0.4514650000000  0.5716540000000  0.5759230000000 1.0
C      1  0.4604310000000  0.5839910000000  0.4883440000000 1.0
C      1  0.4246880000000  0.4585690000000  0.5919400000000 1.0
C      1  0.6026410000000  0.5384730000000  0.4478800000000 1.0
C      1  0.4508620000000  0.5957230000000  0.5335390000000 1.0
C      1  0.3861720000000  0.4984430000000  0.4866880000000 1.0
C      1  0.5479340000000  0.3647880000000  0.4944160000000 1.0
C      1  0.5009250000000  0.4574500000000  0.4195440000000 1.0
C      1  0.5156790000000  0.5059990000000  0.4987980000000 1.0
C      1  0.3984290000000  0.5141810000000  0.4685840000000 1.0
C      1  0.5306750000000  0.5957850000000  0.4531080000000 1.0
C      1  0.4859070000000  0.5811200000000  0.4981860000000 1.0
C      1  0.4992860000000  0.5100090000000  0.5471190000000 1.0
C      1  0.5500050000000  0.4556190000000  0.4338260000000 1.0
C      1  0.4394280000000  0.3921230000000  0.5205150000000 1.0
C      1  0.4786070000000  0.5166370000000  0.5652680000000 1.0
C      1  0.5329150000000  0.5185310000000  0.4352460000000 1.0
C      1  0.4730180000000  0.5031710000000  0.5878910000000 1.0
C      1  0.5811100000000  0.5313230000000  0.4307450000000 1.0
C      1  0.4425410000000  0.3878690000000  0.5470650000000 1.0
C      1  0.5259600000000  0.5216530000000  0.5540920000000 1.0
C      1  0.4088690000000  0.5807470000000  0.4751840000000 1.0
C      1  0.5249300000000  0.4051850000000  0.5478670000000 1.0
C      1  0.4038230000000  0.4571910000000  0.5752160000000 1.0
C      1  0.4912560000000  0.5913980000000  0.4157240000000 1.0
C      1  0.5075270000000  0.5682020000000  0.5093810000000 1.0
C      1  0.4923120000000  0.5805900000000  0.5540200000000 1.0
C      1  0.5098430000000  0.5384270000000  0.3999250000000 1.0
C      1  0.5769690000000  0.3908290000000  0.5235370000000 1.0
C      1  0.5140300000000  0.5798330000000  0.4318340000000 1.0
C      1  0.4768930000000  0.5508660000000  0.4584070000000 1.0
C      1  0.5361470000000  0.5428320000000  0.4792590000000 1.0
C      1  0.4290130000000  0.4581200000000  0.4428000000000 1.0
C      1  0.5696590000000  0.4939440000000  0.4570090000000 1.0
C      1  0.5655480000000  0.5108580000000  0.5024080000000 1.0
C      1  0.6449110000000  0.5305390000000  0.5075590000000 1.0
C      1  0.4257120000000  0.4508390000000  0.4712350000000 1.0
C      1  0.5949720000000  0.4491730000000  0.5649970000000 1.0
C      1  0.5393710000000  0.4969200000000  0.5652270000000 1.0
C      1  0.5070290000000  0.4637950000000  0.5200510000000 1.0
C      1  0.4239640000000  0.5259240000000  0.5284120000000 1.0
C      1  0.5227750000000  0.4777300000000  0.5011170000000 1.0
C      1  0.5085640000000  0.5641290000000  0.5375670000000 1.0
C      1  0.4278020000000  0.4249280000000  0.4846830000000 1.0
C      1  0.4923650000000  0.4337310000000  0.5763000000000 1.0
C      1  0.4674540000000  0.3815590000000  0.4558630000000 1.0
C      1  0.5207460000000  0.4213270000000  0.4475560000000 1.0
C      1  0.6257110000000  0.5272280000000  0.4902520000000 1.0
C      1  0.6105320000000  0.6117450000000  0.5341930000000 1.0
C      1  0.5429320000000  0.6062470000000  0.5069360000000 1.0
C      1  0.4779840000000  0.5753930000000  0.3975920000000 1.0
C      1  0.5822690000000  0.5069040000000  0.4794030000000 1.0
C      1  0.4687160000000  0.4302320000000  0.5168070000000 1.0
C      1  0.5271350000000  0.5611960000000  0.4096080000000 1.0
C      1  0.5419770000000  0.3465510000000  0.4761440000000 1.0
C      1  0.4419290000000  0.5962470000000  0.5063140000000 1.0
C      1  0.5117880000000  0.4770270000000  0.4590810000000 1.0
C      1  0.4692380000000  0.4074650000000  0.4583260000000 1.0
C      1  0.4852970000000  0.5499060000000  0.3904600000000 1.0
C      1  0.4693710000000  0.5191770000000  0.5115050000000 1.0
C      1  0.4467470000000  0.4144790000000  0.5044190000000 1.0
C      1  0.3854090000000  0.4949560000000  0.5146980000000 1.0
C      1  0.4979770000000  0.4608510000000  0.5845180000000 1.0
C      1  0.4747820000000  0.4459480000000  0.4287290000000 1.0
C      1  0.5561340000000  0.4694100000000  0.4583040000000 1.0
C      1  0.4138850000000  0.5347710000000  0.4610220000000 1.0
C      1  0.4788740000000  0.6025390000000  0.5400350000000 1.0
C      1  0.4256610000000  0.5601510000000  0.4644270000000 1.0
C      1  0.6206400000000  0.5578020000000  0.4409640000000 1.0
C      1  0.5239730000000  0.5382830000000  0.4542220000000 1.0
C      1  0.3977660000000  0.5160960000000  0.5286560000000 1.0
C      1  0.4965600000000  0.4372570000000  0.5121130000000 1.0
C      1  0.4592510000000  0.4423350000000  0.5412800000000 1.0
C      1  0.5315360000000  0.5491970000000  0.5466880000000 1.0
C      1  0.5537640000000  0.5667450000000  0.5396610000000 1.0
C      1  0.5518180000000  0.3858020000000  0.5123080000000 1.0
C      1  0.5246820000000  0.4430390000000  0.4292220000000 1.0
C      1  0.4763070000000  0.5233040000000  0.4654230000000 1.0
C      1  0.5605110000000  0.5916550000000  0.5259330000000 1.0
C      1  0.5132570000000  0.4164190000000  0.5690310000000 1.0
C      1  0.4747550000000  0.4757080000000  0.5944590000000 1.0
C      1  0.4439230000000  0.4650350000000  0.5359940000000 1.0
C      1  0.4283920000000  0.5517390000000  0.5383870000000 1.0
C      1  0.4670650000000  0.4907180000000  0.4239870000000 1.0
C      1  0.5859100000000  0.6025950000000  0.5307510000000 1.0
C      1  0.5336710000000  0.4699660000000  0.4758130000000 1.0
C      1  0.5026890000000  0.5573500000000  0.4488770000000 1.0
C      1  0.4523340000000  0.4652270000000  0.4261440000000 1.0
C      1  0.4415780000000  0.4805760000000  0.5122810000000 1.0
C      1  0.5134870000000  0.5123500000000  0.4138900000000 1.0
C      1  0.5181390000000  0.4749060000000  0.5680880000000 1.0
C      1  0.5823820000000  0.4725590000000  0.5653770000000 1.0
C      1  0.4959700000000  0.4878190000000  0.4148060000000 1.0
C      1  0.4447400000000  0.4664750000000  0.4871040000000 1.0
C      1  0.4786360000000  0.5725830000000  0.5774420000000 1.0
C      1  0.4692610000000  0.4571820000000  0.4747150000000 1.0
C      1  0.5192630000000  0.4149720000000  0.4736990000000 1.0
C      1  0.5652400000000  0.4914430000000  0.5540820000000 1.0
C      1  0.4393590000000  0.5746970000000  0.5503020000000 1.0
C      1  0.4634460000000  0.5082820000000  0.4456370000000 1.0
C      1  0.4969200000000  0.6213270000000  0.5286390000000 1.0
C      1  0.5934020000000  0.4043440000000  0.5394410000000 1.0
C      1  0.5994940000000  0.4249440000000  0.5550770000000 1.0
C      1  0.4157590000000  0.5971140000000  0.4958080000000 1.0
C      1  0.5375670000000  0.5923200000000  0.4813920000000 1.0
C      1  0.5608810000000  0.5124750000000  0.4366980000000 1.0
C      1  0.4716680000000  0.4350710000000  0.4555720000000 1.0
C      1  0.4667290000000  0.4277670000000  0.5646800000000 1.0
C      1  0.4538280000000  0.4026060000000  0.5667860000000 1.0
C      1  0.6040870000000  0.5242810000000  0.4729400000000 1.0
C      1  0.3888180000000  0.4603340000000  0.5532570000000 1.0
C      1  0.5216790000000  0.6221420000000  0.5176050000000 1.0
C      1  0.5150300000000  0.4177700000000  0.5015540000000 1.0
C      1  0.4498320000000  0.4634090000000  0.5999370000000 1.0
C      1  0.4886170000000  0.5162720000000  0.4911540000000 1.0
C      1  0.4540070000000  0.5659630000000  0.4670880000000 1.0
C      1  0.5395760000000  0.5211650000000  0.4961430000000 1.0
C      1  0.6348920000000  0.6204630000000  0.5373920000000 1.0
C      1  0.4873040000000  0.4768760000000  0.4687670000000 1.0
C      1  0.5712760000000  0.5022530000000  0.5285430000000 1.0
C      1  0.4439350000000  0.5089660000000  0.5167990000000 1.0
END
