TITL C-627111-6168-808 -2.75908928372036e-06 125000 -1178.86381183511 0 0 193 (C1) n - 1
REM
REM in /home/nfs/bkarasulu/CARBON/AIRSS/Generating-Clusters/LCBOP/Only-C1/SD-CG/FIRE-CG
REM
REM
REM
REM
REM
REM ./C.cell (11c1c37f851c82e70ff6c80c92926a4b)
REM AIRSS Version 0.9.1 bugfix July 2018 build 013d7b7c2542+ Fri, 06 Jul 2018 19:26:36 +0100
REM compiler GCC version 9.2.1 20190827 (Red Hat 9.2.1-1)
REM options -cpp -mtune=generic -march=x86-64 -g -O0 -fpre-include=/usr/include/finclude/math-vector-fortran.h
REM seed 265560520 -1483778365 -508282950 -1239844659 -2061399087 -1593561200 -61705264 832781460 275250295 -1301058242 -231010119 1444544181 1491974765 752259518 -1560902390 -1952658760 1633300895 840880569 -1953221028 827540364 -1677464070 -921863064 -533825706 1843298418 -1690186139 1764978532 -690424769 1843843266 -208439456 -851135861 1895143794 -1448232131 -544703494
REM
CELL 1.54180   50.00000   50.00000   50.00000   90.00000   90.00000   90.00000
LATT -1
SFAC C  
C      1  0.4528220000000  0.4330220000000  0.4724230000000 1.0
C      1  0.4668610000000  0.5484280000000  0.4671290000000 1.0
C      1  0.5098960000000  0.5596300000000  0.5056800000000 1.0
C      1  0.5854030000000  0.3999760000000  0.5512260000000 1.0
C      1  0.6164230000000  0.5597800000000  0.4949640000000 1.0
C      1  0.5585440000000  0.5056320000000  0.4327400000000 1.0
C      1  0.3681060000000  0.5290820000000  0.5226860000000 1.0
C      1  0.5802810000000  0.4673760000000  0.4282620000000 1.0
C      1  0.4739080000000  0.5119080000000  0.5739980000000 1.0
C      1  0.5336180000000  0.4516840000000  0.4206910000000 1.0
C      1  0.5404780000000  0.5065530000000  0.5978440000000 1.0
C      1  0.5334020000000  0.6186070000000  0.4960400000000 1.0
C      1  0.5771520000000  0.4948760000000  0.5053790000000 1.0
C      1  0.5171130000000  0.4535200000000  0.5268680000000 1.0
C      1  0.3657980000000  0.5157650000000  0.5459990000000 1.0
C      1  0.4785490000000  0.5951330000000  0.4304270000000 1.0
C      1  0.5807540000000  0.5889560000000  0.4745270000000 1.0
C      1  0.3745230000000  0.5124920000000  0.4228950000000 1.0
C      1  0.4942430000000  0.6234560000000  0.5252650000000 1.0
C      1  0.4971750000000  0.4492310000000  0.5451440000000 1.0
C      1  0.4037230000000  0.5125290000000  0.4233280000000 1.0
C      1  0.5618220000000  0.5459670000000  0.4896000000000 1.0
C      1  0.4916710000000  0.5635150000000  0.4655640000000 1.0
C      1  0.5187550000000  0.4562340000000  0.4982640000000 1.0
C      1  0.5173100000000  0.3784130000000  0.4808310000000 1.0
C      1  0.5039560000000  0.4332270000000  0.3906320000000 1.0
C      1  0.4749690000000  0.5217010000000  0.4554390000000 1.0
C      1  0.5445150000000  0.5579810000000  0.4175030000000 1.0
C      1  0.4495920000000  0.3866040000000  0.4550670000000 1.0
C      1  0.5353620000000  0.4963470000000  0.4771560000000 1.0
C      1  0.4796550000000  0.4711230000000  0.6029840000000 1.0
C      1  0.3726960000000  0.5075510000000  0.5707290000000 1.0
C      1  0.4918450000000  0.4625040000000  0.4870580000000 1.0
C      1  0.4096010000000  0.5135970000000  0.4603020000000 1.0
C      1  0.4483450000000  0.5701630000000  0.4000130000000 1.0
C      1  0.5147620000000  0.5473090000000  0.4583060000000 1.0
C      1  0.5787220000000  0.4449590000000  0.5745860000000 1.0
C      1  0.4128030000000  0.5033640000000  0.6047360000000 1.0
C      1  0.5444260000000  0.6055250000000  0.5192050000000 1.0
C      1  0.4134180000000  0.4445040000000  0.6056420000000 1.0
C      1  0.5115180000000  0.3788450000000  0.5103560000000 1.0
C      1  0.5016970000000  0.5829540000000  0.4171800000000 1.0
C      1  0.5927740000000  0.5333210000000  0.5269200000000 1.0
C      1  0.4548640000000  0.5720000000000  0.6106960000000 1.0
C      1  0.5163410000000  0.5844280000000  0.5835050000000 1.0
C      1  0.3484900000000  0.5129820000000  0.4237070000000 1.0
C      1  0.5223340000000  0.5370700000000  0.6344710000000 1.0
C      1  0.3937600000000  0.5719330000000  0.5104650000000 1.0
C      1  0.5219280000000  0.4263710000000  0.4916330000000 1.0
C      1  0.4898370000000  0.5774700000000  0.5432680000000 1.0
C      1  0.4154360000000  0.4916450000000  0.4055210000000 1.0
C      1  0.4123270000000  0.5904700000000  0.4950040000000 1.0
C      1  0.6226320000000  0.4933930000000  0.4877550000000 1.0
C      1  0.5602740000000  0.4079370000000  0.4342580000000 1.0
C      1  0.3961560000000  0.5788690000000  0.5393280000000 1.0
C      1  0.4727720000000  0.4223360000000  0.5997590000000 1.0
C      1  0.4769560000000  0.4089250000000  0.5752320000000 1.0
C      1  0.3942520000000  0.4508600000000  0.4954530000000 1.0
C      1  0.5638170000000  0.4905590000000  0.5917290000000 1.0
C      1  0.4646140000000  0.4942020000000  0.3952470000000 1.0
C      1  0.4594820000000  0.5223210000000  0.4018030000000 1.0
C      1  0.4697680000000  0.3825030000000  0.4374150000000 1.0
C      1  0.5848850000000  0.4955380000000  0.4305710000000 1.0
C      1  0.5299710000000  0.5847100000000  0.4254100000000 1.0
C      1  0.5104400000000  0.4593360000000  0.3816300000000 1.0
C      1  0.4709330000000  0.4325430000000  0.4481780000000 1.0
C      1  0.5888700000000  0.4282600000000  0.5537160000000 1.0
C      1  0.6042020000000  0.5585680000000  0.5209480000000 1.0
C      1  0.4916720000000  0.6061750000000  0.4814910000000 1.0
C      1  0.4014630000000  0.4310380000000  0.5123940000000 1.0
C      1  0.4710960000000  0.4410090000000  0.4974520000000 1.0
C      1  0.4645260000000  0.5567330000000  0.5919140000000 1.0
C      1  0.5585880000000  0.4619380000000  0.5867140000000 1.0
C      1  0.4392850000000  0.5427760000000  0.3992470000000 1.0
C      1  0.4834810000000  0.4957960000000  0.5518890000000 1.0
C      1  0.5253030000000  0.5407150000000  0.4012550000000 1.0
C      1  0.5482670000000  0.5119240000000  0.4575970000000 1.0
C      1  0.5295820000000  0.4019190000000  0.5567490000000 1.0
C      1  0.5851090000000  0.5077760000000  0.5805750000000 1.0
C      1  0.6035750000000  0.5126840000000  0.4432550000000 1.0
C      1  0.5777680000000  0.4521920000000  0.4526150000000 1.0
C      1  0.4037500000000  0.5587210000000  0.5571510000000 1.0
C      1  0.5401130000000  0.6160100000000  0.4679470000000 1.0
C      1  0.6042050000000  0.5002210000000  0.5609650000000 1.0
C      1  0.5371040000000  0.5099820000000  0.5483750000000 1.0
C      1  0.4776080000000  0.6017180000000  0.5332760000000 1.0
C      1  0.4520850000000  0.4786780000000  0.4597260000000 1.0
C      1  0.4354770000000  0.4580730000000  0.4705770000000 1.0
C      1  0.4109270000000  0.4679810000000  0.4806840000000 1.0
C      1  0.4658380000000  0.4969100000000  0.5976850000000 1.0
C      1  0.3782670000000  0.5485640000000  0.5068930000000 1.0
C      1  0.5070200000000  0.4647620000000  0.4286880000000 1.0
C      1  0.5299180000000  0.5184100000000  0.5741960000000 1.0
C      1  0.5710380000000  0.5628360000000  0.5780010000000 1.0
C      1  0.4197510000000  0.5397140000000  0.4636470000000 1.0
C      1  0.4825340000000  0.6100720000000  0.4547350000000 1.0
C      1  0.4715920000000  0.5249470000000  0.4270850000000 1.0
C      1  0.4951590000000  0.4718530000000  0.5609380000000 1.0
C      1  0.4345110000000  0.4577710000000  0.5640340000000 1.0
C      1  0.4479270000000  0.4446960000000  0.5193070000000 1.0
C      1  0.5301030000000  0.4229320000000  0.5746530000000 1.0
C      1  0.4266580000000  0.5063080000000  0.5060530000000 1.0
C      1  0.5183020000000  0.5318960000000  0.5079070000000 1.0
C      1  0.5165960000000  0.5820230000000  0.5551650000000 1.0
C      1  0.5411990000000  0.4699270000000  0.4856450000000 1.0
C      1  0.5111380000000  0.5098040000000  0.4872030000000 1.0
C      1  0.5179370000000  0.4866540000000  0.3829380000000 1.0
C      1  0.4659040000000  0.4991920000000  0.4726190000000 1.0
C      1  0.5235100000000  0.5130130000000  0.3909560000000 1.0
C      1  0.6131710000000  0.4354650000000  0.5086930000000 1.0
C      1  0.5683880000000  0.5771210000000  0.5527920000000 1.0
C      1  0.5307890000000  0.4502860000000  0.5866350000000 1.0
C      1  0.5450430000000  0.4839600000000  0.5463060000000 1.0
C      1  0.5706720000000  0.5725700000000  0.4934850000000 1.0
C      1  0.4845730000000  0.4256180000000  0.5537070000000 1.0
C      1  0.4421650000000  0.5450060000000  0.4808500000000 1.0
C      1  0.5223540000000  0.4256070000000  0.4604260000000 1.0
C      1  0.4281680000000  0.4923890000000  0.5310000000000 1.0
C      1  0.5428060000000  0.5878280000000  0.5421490000000 1.0
C      1  0.5508030000000  0.4211640000000  0.5047820000000 1.0
C      1  0.4662840000000  0.5316660000000  0.5230020000000 1.0
C      1  0.4115890000000  0.4965400000000  0.4829130000000 1.0
C      1  0.4079170000000  0.6048630000000  0.5395930000000 1.0
C      1  0.4520290000000  0.6032830000000  0.5225340000000 1.0
C      1  0.5120270000000  0.3957820000000  0.4571080000000 1.0
C      1  0.4158810000000  0.5350890000000  0.5596930000000 1.0
C      1  0.4388000000000  0.4775080000000  0.3971400000000 1.0
C      1  0.6124530000000  0.4321740000000  0.4817820000000 1.0
C      1  0.5939470000000  0.4300110000000  0.4604890000000 1.0
C      1  0.5454040000000  0.5996840000000  0.4449190000000 1.0
C      1  0.5403350000000  0.5248800000000  0.5250500000000 1.0
C      1  0.5921700000000  0.4391260000000  0.5273990000000 1.0
C      1  0.5582360000000  0.4617210000000  0.4104970000000 1.0
C      1  0.5521450000000  0.4528610000000  0.4645660000000 1.0
C      1  0.5591060000000  0.5751600000000  0.6004110000000 1.0
C      1  0.4251230000000  0.6061620000000  0.5166290000000 1.0
C      1  0.5701890000000  0.5851060000000  0.4487090000000 1.0
C      1  0.4832570000000  0.4808940000000  0.4170930000000 1.0
C      1  0.4431140000000  0.5308110000000  0.5054030000000 1.0
C      1  0.5800060000000  0.4052040000000  0.4549670000000 1.0
C      1  0.4358020000000  0.4509260000000  0.5913330000000 1.0
C      1  0.5772780000000  0.3875390000000  0.5282760000000 1.0
C      1  0.5379520000000  0.4259860000000  0.4338860000000 1.0
C      1  0.5673780000000  0.5247100000000  0.5112320000000 1.0
C      1  0.4978170000000  0.4471900000000  0.4540070000000 1.0
C      1  0.5048370000000  0.4664060000000  0.5877590000000 1.0
C      1  0.4857770000000  0.3918180000000  0.5109660000000 1.0
C      1  0.4178410000000  0.5558260000000  0.4403550000000 1.0
C      1  0.5672990000000  0.4442500000000  0.5145290000000 1.0
C      1  0.5923410000000  0.5787840000000  0.5369720000000 1.0
C      1  0.5750820000000  0.3890630000000  0.4777910000000 1.0
C      1  0.4295180000000  0.5819560000000  0.4432490000000 1.0
C      1  0.4420540000000  0.4049590000000  0.4753830000000 1.0
C      1  0.5668510000000  0.5550660000000  0.4407890000000 1.0
C      1  0.4970690000000  0.5788260000000  0.4881000000000 1.0
C      1  0.4730450000000  0.3820580000000  0.5729030000000 1.0
C      1  0.4380000000000  0.3992870000000  0.5032170000000 1.0
C      1  0.4212540000000  0.5938470000000  0.4680480000000 1.0
C      1  0.5253920000000  0.3849650000000  0.5353120000000 1.0
C      1  0.4281030000000  0.4224520000000  0.5169160000000 1.0
C      1  0.5036460000000  0.5221140000000  0.4612450000000 1.0
C      1  0.3891680000000  0.5038790000000  0.5917670000000 1.0
C      1  0.4395670000000  0.5018750000000  0.6075900000000 1.0
C      1  0.6080900000000  0.5096240000000  0.5346730000000 1.0
C      1  0.4556310000000  0.4311900000000  0.4233330000000 1.0
C      1  0.6213980000000  0.5009330000000  0.4619660000000 1.0
C      1  0.5965670000000  0.5409110000000  0.4477100000000 1.0
C      1  0.5017860000000  0.5588670000000  0.4000910000000 1.0
C      1  0.4612290000000  0.4729490000000  0.4346390000000 1.0
C      1  0.4456740000000  0.4564400000000  0.4157650000000 1.0
C      1  0.5053170000000  0.6234560000000  0.4993250000000 1.0
C      1  0.5311460000000  0.5145840000000  0.6228610000000 1.0
C      1  0.4591090000000  0.3843460000000  0.5146460000000 1.0
C      1  0.5658990000000  0.3962990000000  0.5036090000000 1.0
C      1  0.5002820000000  0.4110000000000  0.4076690000000 1.0
C      1  0.4754470000000  0.5510780000000  0.5439530000000 1.0
C      1  0.4515370000000  0.5861690000000  0.4240280000000 1.0
C      1  0.4862310000000  0.4922610000000  0.4948790000000 1.0
C      1  0.5811580000000  0.5364510000000  0.5818670000000 1.0
C      1  0.4619510000000  0.4481810000000  0.6028830000000 1.0
C      1  0.4224660000000  0.5101960000000  0.5523080000000 1.0
C      1  0.4383660000000  0.4658720000000  0.5370100000000 1.0
C      1  0.6123300000000  0.5534310000000  0.4687210000000 1.0
C      1  0.5315850000000  0.5775340000000  0.6059800000000 1.0
C      1  0.6062050000000  0.4938470000000  0.5104260000000 1.0
C      1  0.5633900000000  0.4704960000000  0.5047580000000 1.0
C      1  0.4956890000000  0.3936470000000  0.4321640000000 1.0
C      1  0.5486150000000  0.5411980000000  0.4629170000000 1.0
C      1  0.4717670000000  0.5401420000000  0.5706830000000 1.0
C      1  0.5213720000000  0.5630250000000  0.6276980000000 1.0
C      1  0.4793420000000  0.5045230000000  0.5242920000000 1.0
C      1  0.4165440000000  0.5392690000000  0.4168810000000 1.0
C      1  0.4916500000000  0.4178400000000  0.5014270000000 1.0
END
