TITL C-627109-622-1541 0.0199655700177426 125000 -330.813335172432 0 0 55 (C1) n - 1
REM
REM in /home/nfs/bkarasulu/CARBON/AIRSS/Generating-Clusters/LCBOP/Only-C1/SD-CG/FIRE-CG
REM
REM
REM
REM
REM
REM ./C.cell (11c1c37f851c82e70ff6c80c92926a4b)
REM AIRSS Version 0.9.1 bugfix July 2018 build 013d7b7c2542+ Fri, 06 Jul 2018 19:26:36 +0100
REM compiler GCC version 9.2.1 20190827 (Red Hat 9.2.1-1)
REM options -cpp -mtune=generic -march=x86-64 -g -O0 -fpre-include=/usr/include/finclude/math-vector-fortran.h
REM seed -1916401367 1664206469 1246498532 -534046320 -1413666417 1577929685 -382905950 -589070695 -1727021907 -10501321 1277948820 378187790 -1751443932 494262186 1481051051 -285879585 -1523908877 808938625 -1925341651 -1114176429 -637049052 -231360238 -411600 -1305964982 -1690623731 1071240642 -1873711977 -863935240 690953264 884856387 -812510595 32999923 1260607740
REM
CELL 1.54180   50.00000   50.00000   50.00000   90.00000   90.00000   90.00000
LATT -1
SFAC C  
C      1  0.5174410000000  0.5073410000000  0.4768970000000 1.0
C      1  0.5816080000000  0.4267250000000  0.3676580000000 1.0
C      1  0.5498660000000  0.4710520000000  0.4830230000000 1.0
C      1  0.5774900000000  0.4686540000000  0.4815830000000 1.0
C      1  0.3290880000000  0.4118400000000  0.5348490000000 1.0
C      1  0.4132710000000  0.5226960000000  0.5049400000000 1.0
C      1  0.4985480000000  0.5108600000000  0.4550570000000 1.0
C      1  0.5837100000000  0.5494200000000  0.5149360000000 1.0
C      1  0.4896090000000  0.5741290000000  0.4921210000000 1.0
C      1  0.4862550000000  0.5906370000000  0.5127820000000 1.0
C      1  0.5029070000000  0.4652450000000  0.4947800000000 1.0
C      1  0.4238540000000  0.5371940000000  0.5246290000000 1.0
C      1  0.5621900000000  0.4393060000000  0.3796710000000 1.0
C      1  0.4345370000000  0.4874350000000  0.4794420000000 1.0
C      1  0.5424910000000  0.4521160000000  0.3919360000000 1.0
C      1  0.4517300000000  0.4677750000000  0.4900930000000 1.0
C      1  0.3485400000000  0.4291760000000  0.5339920000000 1.0
C      1  0.4812780000000  0.5277780000000  0.5733820000000 1.0
C      1  0.4767040000000  0.4605710000000  0.4959820000000 1.0
C      1  0.4388270000000  0.5364520000000  0.5465810000000 1.0
C      1  0.4923540000000  0.5728640000000  0.5587450000000 1.0
C      1  0.6637430000000  0.4767470000000  0.5158630000000 1.0
C      1  0.3960200000000  0.4780170000000  0.5081660000000 1.0
C      1  0.5309450000000  0.5367380000000  0.5170290000000 1.0
C      1  0.4442660000000  0.4976200000000  0.5784310000000 1.0
C      1  0.3891120000000  0.4653190000000  0.5321980000000 1.0
C      1  0.5927450000000  0.4833800000000  0.4628420000000 1.0
C      1  0.5048910000000  0.4781860000000  0.4185950000000 1.0
C      1  0.6162560000000  0.4961630000000  0.4661280000000 1.0
C      1  0.4873130000000  0.5907830000000  0.5395000000000 1.0
C      1  0.6384810000000  0.4798380000000  0.5060870000000 1.0
C      1  0.4816100000000  0.5339170000000  0.4626080000000 1.0
C      1  0.3683090000000  0.4467940000000  0.5331210000000 1.0
C      1  0.5231100000000  0.4650330000000  0.4045740000000 1.0
C      1  0.5929310000000  0.4566090000000  0.5019700000000 1.0
C      1  0.4445370000000  0.5019810000000  0.4570940000000 1.0
C      1  0.5240910000000  0.4812510000000  0.4855510000000 1.0
C      1  0.4127270000000  0.4963710000000  0.4951810000000 1.0
C      1  0.5575360000000  0.5453070000000  0.5162380000000 1.0
C      1  0.4220820000000  0.4828610000000  0.5709110000000 1.0
C      1  0.4538730000000  0.5287480000000  0.4608150000000 1.0
C      1  0.4982250000000  0.5453580000000  0.5598040000000 1.0
C      1  0.5168690000000  0.5314590000000  0.4931770000000 1.0
C      1  0.6310330000000  0.5020260000000  0.4895670000000 1.0
C      1  0.4656230000000  0.4907140000000  0.5966420000000 1.0
C      1  0.4037040000000  0.4717490000000  0.5552760000000 1.0
C      1  0.4956540000000  0.5487070000000  0.4828150000000 1.0
C      1  0.4536300000000  0.5221590000000  0.5652160000000 1.0
C      1  0.4885980000000  0.4919340000000  0.4363550000000 1.0
C      1  0.6177500000000  0.4613160000000  0.5112450000000 1.0
C      1  0.4869470000000  0.5081050000000  0.5937340000000 1.0
C      1  0.4604240000000  0.4880610000000  0.4378920000000 1.0
C      1  0.5174500000000  0.5358210000000  0.5416510000000 1.0
C      1  0.6279520000000  0.5275160000000  0.5007360000000 1.0
C      1  0.6092670000000  0.5441450000000  0.5099050000000 1.0
END
