TITL C-627113-6568-2069 -3.85644981476438e-07 125000 -1224.61447825181 0 0 197 (C1) n - 1
REM
REM in /home/nfs/bkarasulu/CARBON/AIRSS/Generating-Clusters/LCBOP/Only-C1/SD-CG/FIRE-CG
REM
REM
REM
REM
REM
REM ./C.cell (11c1c37f851c82e70ff6c80c92926a4b)
REM AIRSS Version 0.9.1 bugfix July 2018 build 013d7b7c2542+ Fri, 06 Jul 2018 19:26:36 +0100
REM compiler GCC version 9.2.1 20190827 (Red Hat 9.2.1-1)
REM options -cpp -mtune=generic -march=x86-64 -g -O0 -fpre-include=/usr/include/finclude/math-vector-fortran.h
REM seed -1366838615 -1700069431 -121671746 1429168181 139973433 -1041648907 324848784 2019719036 1902653477 -1698898656 203732598 -453669699 1610908081 467321166 -355000399 -567163526 -2009950721 -2062233091 1267855888 -1685954248 381852659 -81424391 1029151539 1478084177 -1857460532 759225124 950617328 -1169559736 1176384751 -2054130069 895062372 -1360719131 691293623
REM
CELL 1.54180   50.00000   50.00000   50.00000   90.00000   90.00000   90.00000
LATT -1
SFAC C  
C      1  0.4536430000000  0.5321270000000  0.5488000000000 1.0
C      1  0.5936620000000  0.4358080000000  0.5070660000000 1.0
C      1  0.5105440000000  0.3608950000000  0.4565620000000 1.0
C      1  0.5468100000000  0.4227200000000  0.5144800000000 1.0
C      1  0.6236610000000  0.4700370000000  0.4902620000000 1.0
C      1  0.5616860000000  0.5012570000000  0.5125820000000 1.0
C      1  0.5193360000000  0.5199740000000  0.5649780000000 1.0
C      1  0.5567720000000  0.5276070000000  0.3885900000000 1.0
C      1  0.4160660000000  0.5417320000000  0.3759340000000 1.0
C      1  0.6142830000000  0.5476650000000  0.4873060000000 1.0
C      1  0.5052580000000  0.4090780000000  0.4205410000000 1.0
C      1  0.4589540000000  0.5066030000000  0.4218840000000 1.0
C      1  0.5189870000000  0.5129570000000  0.4891520000000 1.0
C      1  0.4977430000000  0.5632390000000  0.5837850000000 1.0
C      1  0.4623510000000  0.5970610000000  0.4766050000000 1.0
C      1  0.5722330000000  0.4589980000000  0.4125600000000 1.0
C      1  0.3959320000000  0.4542060000000  0.3743930000000 1.0
C      1  0.5592010000000  0.5995420000000  0.4252850000000 1.0
C      1  0.4359120000000  0.6461970000000  0.5199160000000 1.0
C      1  0.4581140000000  0.4510640000000  0.4582680000000 1.0
C      1  0.4782970000000  0.4521760000000  0.4357570000000 1.0
C      1  0.4534980000000  0.4858940000000  0.5616930000000 1.0
C      1  0.4972570000000  0.4740040000000  0.4283610000000 1.0
C      1  0.4856140000000  0.4271000000000  0.4239230000000 1.0
C      1  0.4614970000000  0.4503680000000  0.5354150000000 1.0
C      1  0.5554580000000  0.5617210000000  0.4915930000000 1.0
C      1  0.5788300000000  0.5820720000000  0.4885090000000 1.0
C      1  0.4408590000000  0.5320090000000  0.3821340000000 1.0
C      1  0.5304190000000  0.3985420000000  0.4280610000000 1.0
C      1  0.5334000000000  0.5638130000000  0.4733290000000 1.0
C      1  0.5014550000000  0.3964550000000  0.5251140000000 1.0
C      1  0.5350600000000  0.4975140000000  0.5538010000000 1.0
C      1  0.5201480000000  0.4327310000000  0.5775770000000 1.0
C      1  0.5293220000000  0.6078880000000  0.5235450000000 1.0
C      1  0.4562990000000  0.4132610000000  0.4985770000000 1.0
C      1  0.5782940000000  0.4716340000000  0.5463700000000 1.0
C      1  0.4854310000000  0.4591520000000  0.6180420000000 1.0
C      1  0.5842680000000  0.5068740000000  0.4961160000000 1.0
C      1  0.4373250000000  0.5917180000000  0.5798900000000 1.0
C      1  0.4747090000000  0.3355090000000  0.4257940000000 1.0
C      1  0.4778410000000  0.4131040000000  0.5632020000000 1.0
C      1  0.5363350000000  0.6340260000000  0.4548120000000 1.0
C      1  0.6136610000000  0.4856590000000  0.4021170000000 1.0
C      1  0.5852150000000  0.4917560000000  0.4720520000000 1.0
C      1  0.3919470000000  0.5394770000000  0.4917450000000 1.0
C      1  0.4062920000000  0.4778740000000  0.3859460000000 1.0
C      1  0.4559140000000  0.5358010000000  0.5993690000000 1.0
C      1  0.4836470000000  0.4894670000000  0.5044030000000 1.0
C      1  0.5020310000000  0.5266400000000  0.6172740000000 1.0
C      1  0.4402250000000  0.5609970000000  0.4524210000000 1.0
C      1  0.5487820000000  0.4539180000000  0.6101920000000 1.0
C      1  0.6067530000000  0.4599190000000  0.4444650000000 1.0
C      1  0.4357820000000  0.5839890000000  0.4704150000000 1.0
C      1  0.5315470000000  0.5286440000000  0.6188610000000 1.0
C      1  0.5973650000000  0.4578010000000  0.6157410000000 1.0
C      1  0.4823030000000  0.4385390000000  0.5502000000000 1.0
C      1  0.5317960000000  0.4331400000000  0.6015390000000 1.0
C      1  0.5631950000000  0.6058880000000  0.4796250000000 1.0
C      1  0.4465600000000  0.4370150000000  0.5958230000000 1.0
C      1  0.5988170000000  0.4698060000000  0.4184260000000 1.0
C      1  0.4652230000000  0.4332200000000  0.4804120000000 1.0
C      1  0.3846140000000  0.4327710000000  0.3863320000000 1.0
C      1  0.5286060000000  0.6365940000000  0.4812920000000 1.0
C      1  0.4895140000000  0.5480270000000  0.3781490000000 1.0
C      1  0.5725550000000  0.4285500000000  0.5265970000000 1.0
C      1  0.6166930000000  0.4984540000000  0.5491190000000 1.0
C      1  0.4635390000000  0.5455670000000  0.3729230000000 1.0
C      1  0.3852330000000  0.5718340000000  0.5248670000000 1.0
C      1  0.5273910000000  0.4683750000000  0.5044410000000 1.0
C      1  0.5926640000000  0.5134760000000  0.5896860000000 1.0
C      1  0.5415730000000  0.4449870000000  0.4970330000000 1.0
C      1  0.4255850000000  0.5365640000000  0.4451750000000 1.0
C      1  0.5615640000000  0.4838520000000  0.4593080000000 1.0
C      1  0.5953170000000  0.5426560000000  0.5508040000000 1.0
C      1  0.5285930000000  0.3993570000000  0.5139270000000 1.0
C      1  0.4916400000000  0.4419430000000  0.4864590000000 1.0
C      1  0.4287030000000  0.4897660000000  0.5219790000000 1.0
C      1  0.4174150000000  0.4809180000000  0.4739020000000 1.0
C      1  0.5606170000000  0.5729780000000  0.4135210000000 1.0
C      1  0.4576400000000  0.5183850000000  0.4746590000000 1.0
C      1  0.5815230000000  0.5575080000000  0.5316580000000 1.0
C      1  0.4323020000000  0.4151730000000  0.5137340000000 1.0
C      1  0.5206180000000  0.5295320000000  0.4426160000000 1.0
C      1  0.5756060000000  0.4500510000000  0.6011070000000 1.0
C      1  0.6111080000000  0.4590460000000  0.5134290000000 1.0
C      1  0.4168860000000  0.4227820000000  0.5345660000000 1.0
C      1  0.5898700000000  0.5813540000000  0.5172200000000 1.0
C      1  0.4019610000000  0.5205360000000  0.4416430000000 1.0
C      1  0.6053720000000  0.5251500000000  0.4990590000000 1.0
C      1  0.4628580000000  0.5563610000000  0.5319320000000 1.0
C      1  0.5734280000000  0.4439480000000  0.5512750000000 1.0
C      1  0.4990510000000  0.4651300000000  0.5020880000000 1.0
C      1  0.5379880000000  0.4943250000000  0.4987580000000 1.0
C      1  0.5916360000000  0.4283780000000  0.4789130000000 1.0
C      1  0.5108690000000  0.4310860000000  0.4686940000000 1.0
C      1  0.4061960000000  0.6140480000000  0.4938060000000 1.0
C      1  0.4631440000000  0.5982000000000  0.5823620000000 1.0
C      1  0.3901950000000  0.5170480000000  0.4152600000000 1.0
C      1  0.3904470000000  0.4744010000000  0.4322690000000 1.0
C      1  0.4832730000000  0.5464360000000  0.6043250000000 1.0
C      1  0.4633550000000  0.4155820000000  0.5872290000000 1.0
C      1  0.4388520000000  0.5164360000000  0.5244990000000 1.0
C      1  0.5224560000000  0.5477040000000  0.5765310000000 1.0
C      1  0.4761140000000  0.6026510000000  0.5022850000000 1.0
C      1  0.4842980000000  0.5819940000000  0.4610290000000 1.0
C      1  0.5477750000000  0.5042130000000  0.6185210000000 1.0
C      1  0.4945930000000  0.3925310000000  0.5527200000000 1.0
C      1  0.5408700000000  0.4657730000000  0.4526900000000 1.0
C      1  0.4020200000000  0.4918130000000  0.4522700000000 1.0
C      1  0.4439610000000  0.4721900000000  0.5386720000000 1.0
C      1  0.6037100000000  0.5191920000000  0.5641800000000 1.0
C      1  0.4964530000000  0.5022700000000  0.6024820000000 1.0
C      1  0.4898390000000  0.5905570000000  0.5769030000000 1.0
C      1  0.4890360000000  0.5605570000000  0.5238250000000 1.0
C      1  0.5505730000000  0.3812080000000  0.4705490000000 1.0
C      1  0.5322350000000  0.3783080000000  0.4477550000000 1.0
C      1  0.5057840000000  0.5377850000000  0.3965190000000 1.0
C      1  0.5127800000000  0.3611080000000  0.4853950000000 1.0
C      1  0.3787970000000  0.4297730000000  0.4125540000000 1.0
C      1  0.4425570000000  0.5309220000000  0.4986820000000 1.0
C      1  0.5054830000000  0.6185140000000  0.5372330000000 1.0
C      1  0.4221430000000  0.4380580000000  0.5815980000000 1.0
C      1  0.4446120000000  0.5075740000000  0.3967480000000 1.0
C      1  0.5418720000000  0.6173750000000  0.4989760000000 1.0
C      1  0.3958660000000  0.5666680000000  0.4990190000000 1.0
C      1  0.4949100000000  0.5802710000000  0.5044130000000 1.0
C      1  0.4094630000000  0.4900230000000  0.5001470000000 1.0
C      1  0.4808650000000  0.5347560000000  0.4670630000000 1.0
C      1  0.4780790000000  0.3974720000000  0.5084500000000 1.0
C      1  0.5788710000000  0.4338290000000  0.5773730000000 1.0
C      1  0.3760460000000  0.5572060000000  0.5453650000000 1.0
C      1  0.5268670000000  0.4711020000000  0.4278300000000 1.0
C      1  0.4465060000000  0.5117610000000  0.6119840000000 1.0
C      1  0.5779150000000  0.3768940000000  0.4694240000000 1.0
C      1  0.5562260000000  0.6130480000000  0.4506730000000 1.0
C      1  0.5520680000000  0.5015000000000  0.3947940000000 1.0
C      1  0.5363400000000  0.4428370000000  0.4687050000000 1.0
C      1  0.6093280000000  0.4772160000000  0.4667820000000 1.0
C      1  0.4698080000000  0.5089240000000  0.5606620000000 1.0
C      1  0.5349560000000  0.4780850000000  0.6173420000000 1.0
C      1  0.5602940000000  0.4933080000000  0.5403030000000 1.0
C      1  0.5053660000000  0.6121780000000  0.5656020000000 1.0
C      1  0.4420450000000  0.5435990000000  0.5748510000000 1.0
C      1  0.4706060000000  0.5579840000000  0.4530340000000 1.0
C      1  0.4922270000000  0.3473040000000  0.4410610000000 1.0
C      1  0.4269960000000  0.5673220000000  0.5753470000000 1.0
C      1  0.5402200000000  0.5476720000000  0.5991320000000 1.0
C      1  0.5076670000000  0.5762810000000  0.4784850000000 1.0
C      1  0.3758570000000  0.4807540000000  0.5571010000000 1.0
C      1  0.4999300000000  0.5142270000000  0.5114250000000 1.0
C      1  0.4341720000000  0.4839480000000  0.3844820000000 1.0
C      1  0.5065140000000  0.5217140000000  0.4192730000000 1.0
C      1  0.3714430000000  0.5069190000000  0.5594330000000 1.0
C      1  0.5059370000000  0.4782430000000  0.6139280000000 1.0
C      1  0.5538940000000  0.4130540000000  0.4225750000000 1.0
C      1  0.4516850000000  0.4668090000000  0.3710480000000 1.0
C      1  0.4576390000000  0.4591650000000  0.6108860000000 1.0
C      1  0.3910740000000  0.4895050000000  0.4069250000000 1.0
C      1  0.5572160000000  0.5492310000000  0.5175190000000 1.0
C      1  0.4078680000000  0.4378150000000  0.5570730000000 1.0
C      1  0.3926240000000  0.5133490000000  0.4987770000000 1.0
C      1  0.5072890000000  0.4490810000000  0.5585480000000 1.0
C      1  0.4615370000000  0.6418780000000  0.5262380000000 1.0
C      1  0.5341470000000  0.3789570000000  0.4946000000000 1.0
C      1  0.4942070000000  0.5085090000000  0.5746160000000 1.0
C      1  0.5192290000000  0.4735910000000  0.5533720000000 1.0
C      1  0.4450760000000  0.4847640000000  0.6139520000000 1.0
C      1  0.5487340000000  0.4761770000000  0.4081090000000 1.0
C      1  0.5985890000000  0.5659070000000  0.4723350000000 1.0
C      1  0.5332360000000  0.5818000000000  0.5350370000000 1.0
C      1  0.4871490000000  0.5001960000000  0.4220480000000 1.0
C      1  0.5586260000000  0.5548680000000  0.3913090000000 1.0
C      1  0.4458760000000  0.5573080000000  0.5087780000000 1.0
C      1  0.6052220000000  0.4757580000000  0.5365610000000 1.0
C      1  0.5030320000000  0.3710300000000  0.5671700000000 1.0
C      1  0.5887040000000  0.5561470000000  0.4479920000000 1.0
C      1  0.5391120000000  0.5497170000000  0.4487170000000 1.0
C      1  0.6024380000000  0.3682370000000  0.4676170000000 1.0
C      1  0.5205270000000  0.6276780000000  0.5825210000000 1.0
C      1  0.5877250000000  0.4079830000000  0.5802270000000 1.0
C      1  0.3818870000000  0.4477940000000  0.4324000000000 1.0
C      1  0.4450180000000  0.4731620000000  0.4709040000000 1.0
C      1  0.3715340000000  0.5334090000000  0.5565620000000 1.0
C      1  0.5328250000000  0.5530280000000  0.5307680000000 1.0
C      1  0.4462380000000  0.5157670000000  0.4460830000000 1.0
C      1  0.4813210000000  0.6226480000000  0.5218780000000 1.0
C      1  0.3872190000000  0.4567810000000  0.5545700000000 1.0
C      1  0.5741290000000  0.5075170000000  0.6081780000000 1.0
C      1  0.5075950000000  0.5393390000000  0.5252890000000 1.0
C      1  0.4151230000000  0.6354110000000  0.5070800000000 1.0
C      1  0.5912010000000  0.4355040000000  0.4510230000000 1.0
C      1  0.5066970000000  0.5231910000000  0.4661570000000 1.0
C      1  0.4694860000000  0.4515070000000  0.3597310000000 1.0
C      1  0.4115810000000  0.5874250000000  0.4858940000000 1.0
C      1  0.4630970000000  0.4911800000000  0.4844270000000 1.0
C      1  0.5719810000000  0.4335360000000  0.4283300000000 1.0
C      1  0.5634470000000  0.5557260000000  0.4363670000000 1.0
END
