TITL C-627108-131-674 -1322.92297628342 125000 -824.521416680051 0 0 136 (C1) n - 1
REM
REM in /home/nfs/bkarasulu/CARBON/AIRSS/Generating-Clusters/LCBOP/Only-C1/SD-CG/FIRE-CG
REM
REM
REM
REM
REM
REM ./C.cell (11c1c37f851c82e70ff6c80c92926a4b)
REM AIRSS Version 0.9.1 bugfix July 2018 build 013d7b7c2542+ Fri, 06 Jul 2018 19:26:36 +0100
REM compiler GCC version 9.2.1 20190827 (Red Hat 9.2.1-1)
REM options -cpp -mtune=generic -march=x86-64 -g -O0 -fpre-include=/usr/include/finclude/math-vector-fortran.h
REM seed 602929749 -536975220 -184864040 -2106132458 135146394 1539993052 -1983585720 2128389619 -295331373 -589981481 -1696005823 954594819 -703813538 148721579 2127391992 -1286439625 783081679 633650564 -491347229 -1260840482 66205087 -544772377 1545404088 47057866 -31172344 -1226200761 -716886025 918518609 -2125151610 176734198 1317051181 -714316686 -349534284
REM
CELL 1.54180   50.00000   50.00000   50.00000   90.00000   90.00000   90.00000
LATT -1
SFAC C  
C      1  0.4829270000000  0.5302450000000  0.6982600000000 1.0
C      1  0.5614310000000  0.5696660000000  0.4401490000000 1.0
C      1  0.4897590000000  0.4194700000000  0.4958330000000 1.0
C      1  0.4746130000000  0.4057440000000  0.4749740000000 1.0
C      1  0.5066600000000  0.4992860000000  0.3919880000000 1.0
C      1  0.5001750000000  0.4837420000000  0.4498320000000 1.0
C      1  0.4724940000000  0.4868710000000  0.4487270000000 1.0
C      1  0.5516930000000  0.4550610000000  0.4984060000000 1.0
C      1  0.6254380000000  0.4784950000000  0.4720410000000 1.0
C      1  0.4893590000000  0.5546730000000  0.5783830000000 1.0
C      1  0.4802100000000  0.5311820000000  0.6723500000000 1.0
C      1  0.5119220000000  0.6016590000000  0.4764130000000 1.0
C      1  0.4761520000000  0.4270080000000  0.5439210000000 1.0
C      1  0.5649160000000  0.5171010000000  0.5753330000000 1.0
C      1  0.4313410000000  0.4542730000000  0.4292330000000 1.0
C      1  0.4611460000000  0.5381520000000  0.4985670000000 1.0
C      1  0.5595850000000  0.4340390000000  0.5733010000000 1.0
C      1  0.6240130000000  0.4587960000000  0.4913780000000 1.0
C      1  0.4221760000000  0.5589760000000  0.4593750000000 1.0
C      1  0.5846450000000  0.4583410000000  0.4622000000000 1.0
C      1  0.4940610000000  0.4505210000000  0.4918890000000 1.0
C      1  0.5988350000000  0.4606540000000  0.5411360000000 1.0
C      1  0.5486060000000  0.4073650000000  0.4730720000000 1.0
C      1  0.5466550000000  0.4518890000000  0.4262210000000 1.0
C      1  0.5032750000000  0.5676090000000  0.5324090000000 1.0
C      1  0.5613410000000  0.5048200000000  0.4445520000000 1.0
C      1  0.4224700000000  0.4083600000000  0.5265690000000 1.0
C      1  0.4891500000000  0.4628470000000  0.5858670000000 1.0
C      1  0.5150940000000  0.4726520000000  0.3954690000000 1.0
C      1  0.5154270000000  0.6154160000000  0.5383540000000 1.0
C      1  0.4262380000000  0.4826610000000  0.4372130000000 1.0
C      1  0.5073450000000  0.5118570000000  0.5061570000000 1.0
C      1  0.6018560000000  0.4816420000000  0.4558780000000 1.0
C      1  0.5890200000000  0.4374930000000  0.5278730000000 1.0
C      1  0.5227990000000  0.5911010000000  0.4249220000000 1.0
C      1  0.5547460000000  0.5937300000000  0.4564740000000 1.0
C      1  0.4471260000000  0.4499110000000  0.5162180000000 1.0
C      1  0.4620870000000  0.4989890000000  0.4723670000000 1.0
C      1  0.5026000000000  0.4851050000000  0.5740840000000 1.0
C      1  0.5060850000000  0.4391650000000  0.5820310000000 1.0
C      1  0.4090830000000  0.5076220000000  0.4553630000000 1.0
C      1  0.4970350000000  0.5946570000000  0.5412860000000 1.0
C      1  0.4478600000000  0.5633550000000  0.4976010000000 1.0
C      1  0.5026240000000  0.4302340000000  0.4183250000000 1.0
C      1  0.4780110000000  0.5312840000000  0.6459470000000 1.0
C      1  0.4459700000000  0.4027650000000  0.5116280000000 1.0
C      1  0.4287920000000  0.4729430000000  0.5082180000000 1.0
C      1  0.5201780000000  0.4099130000000  0.5466390000000 1.0
C      1  0.4553930000000  0.4537120000000  0.4095990000000 1.0
C      1  0.5258740000000  0.6006330000000  0.4511890000000 1.0
C      1  0.5827730000000  0.5534720000000  0.4508840000000 1.0
C      1  0.4558020000000  0.4130530000000  0.4267270000000 1.0
C      1  0.4090510000000  0.5273340000000  0.5292090000000 1.0
C      1  0.4741340000000  0.4316380000000  0.4142320000000 1.0
C      1  0.4518210000000  0.5776760000000  0.4542370000000 1.0
C      1  0.5990510000000  0.4456390000000  0.4937010000000 1.0
C      1  0.5372380000000  0.5325370000000  0.4768370000000 1.0
C      1  0.5822830000000  0.5512710000000  0.4797830000000 1.0
C      1  0.5663760000000  0.4274650000000  0.5450930000000 1.0
C      1  0.4469540000000  0.4941200000000  0.5892110000000 1.0
C      1  0.4597600000000  0.4666630000000  0.5900320000000 1.0
C      1  0.5312610000000  0.4020470000000  0.4532840000000 1.0
C      1  0.5370390000000  0.5156140000000  0.4537340000000 1.0
C      1  0.4545410000000  0.5209070000000  0.4239330000000 1.0
C      1  0.5399290000000  0.4252680000000  0.5338120000000 1.0
C      1  0.5393930000000  0.5274000000000  0.5795140000000 1.0
C      1  0.5630110000000  0.5327750000000  0.4892130000000 1.0
C      1  0.5219240000000  0.4508000000000  0.4116380000000 1.0
C      1  0.6007090000000  0.5632760000000  0.4958850000000 1.0
C      1  0.5977730000000  0.5318700000000  0.4392890000000 1.0
C      1  0.5781060000000  0.6167550000000  0.5013540000000 1.0
C      1  0.5352960000000  0.4391780000000  0.5859330000000 1.0
C      1  0.4162330000000  0.4654300000000  0.5656900000000 1.0
C      1  0.5580360000000  0.4572390000000  0.4516020000000 1.0
C      1  0.4636530000000  0.5038320000000  0.5391190000000 1.0
C      1  0.5042680000000  0.5484210000000  0.5539410000000 1.0
C      1  0.5896340000000  0.5048230000000  0.4442400000000 1.0
C      1  0.4628350000000  0.5245660000000  0.5227050000000 1.0
C      1  0.5685220000000  0.4835850000000  0.5131430000000 1.0
C      1  0.5199340000000  0.5524800000000  0.3779060000000 1.0
C      1  0.4621900000000  0.4512860000000  0.5396490000000 1.0
C      1  0.5376220000000  0.5655320000000  0.4213370000000 1.0
C      1  0.5153210000000  0.5477930000000  0.4077940000000 1.0
C      1  0.3873430000000  0.4877110000000  0.4996120000000 1.0
C      1  0.5389530000000  0.4629240000000  0.4722960000000 1.0
C      1  0.5090260000000  0.4905420000000  0.5245030000000 1.0
C      1  0.4025390000000  0.4718530000000  0.5180290000000 1.0
C      1  0.4975290000000  0.5412390000000  0.6022200000000 1.0
C      1  0.4078930000000  0.5323140000000  0.5005770000000 1.0
C      1  0.5253810000000  0.5348430000000  0.6030560000000 1.0
C      1  0.4925880000000  0.5827080000000  0.4861800000000 1.0
C      1  0.4026810000000  0.4551900000000  0.5420470000000 1.0
C      1  0.4718730000000  0.5767120000000  0.5776170000000 1.0
C      1  0.4057770000000  0.4270150000000  0.5369790000000 1.0
C      1  0.5787890000000  0.5016250000000  0.5586310000000 1.0
C      1  0.4982950000000  0.4219000000000  0.5603920000000 1.0
C      1  0.4635150000000  0.5818320000000  0.4810490000000 1.0
C      1  0.5822840000000  0.4830620000000  0.5381100000000 1.0
C      1  0.4663240000000  0.4782040000000  0.5459210000000 1.0
C      1  0.5120180000000  0.5178460000000  0.4132860000000 1.0
C      1  0.5360010000000  0.6211420000000  0.5208950000000 1.0
C      1  0.5325070000000  0.4484550000000  0.5197410000000 1.0
C      1  0.4572370000000  0.5146290000000  0.6051280000000 1.0
C      1  0.4695180000000  0.5633230000000  0.4370320000000 1.0
C      1  0.5643540000000  0.6256280000000  0.5237520000000 1.0
C      1  0.3993590000000  0.5088210000000  0.4837580000000 1.0
C      1  0.5329090000000  0.6111110000000  0.4940710000000 1.0
C      1  0.5106000000000  0.4641600000000  0.4687680000000 1.0
C      1  0.4644980000000  0.5265800000000  0.4725300000000 1.0
C      1  0.4332320000000  0.4265560000000  0.4401710000000 1.0
C      1  0.4521400000000  0.4940490000000  0.4299100000000 1.0
C      1  0.5696310000000  0.5082010000000  0.5006470000000 1.0
C      1  0.5086450000000  0.4629190000000  0.5160930000000 1.0
C      1  0.4469310000000  0.4821540000000  0.4871760000000 1.0
C      1  0.4464380000000  0.4028080000000  0.4823890000000 1.0
C      1  0.4644590000000  0.5368390000000  0.4452900000000 1.0
C      1  0.4734930000000  0.4109710000000  0.5202350000000 1.0
C      1  0.4893170000000  0.5632770000000  0.4170210000000 1.0
C      1  0.4206670000000  0.5560030000000  0.4886090000000 1.0
C      1  0.4367560000000  0.4503660000000  0.5811930000000 1.0
C      1  0.4275270000000  0.4147010000000  0.4650800000000 1.0
C      1  0.4919280000000  0.5062080000000  0.3700160000000 1.0
C      1  0.5151620000000  0.5364440000000  0.4943780000000 1.0
C      1  0.4658260000000  0.4580880000000  0.4911440000000 1.0
C      1  0.4142220000000  0.5144850000000  0.5526920000000 1.0
C      1  0.4774950000000  0.5291380000000  0.6181750000000 1.0
C      1  0.5594440000000  0.4255330000000  0.4898020000000 1.0
C      1  0.4755060000000  0.5964430000000  0.5594940000000 1.0
C      1  0.5212950000000  0.5257110000000  0.5570830000000 1.0
C      1  0.4234130000000  0.4940470000000  0.5705960000000 1.0
C      1  0.5148780000000  0.5063830000000  0.4394650000000 1.0
C      1  0.5043250000000  0.5618190000000  0.5039460000000 1.0
C      1  0.5137280000000  0.4094280000000  0.4343280000000 1.0
C      1  0.5122610000000  0.4991620000000  0.5516560000000 1.0
C      1  0.5600910000000  0.6061000000000  0.4816650000000 1.0
C      1  0.4126390000000  0.5353720000000  0.4457010000000 1.0
END
