TITL C-627113-6568-1630 -7.29268175414283e-07 125000 -574.883740670808 0 0 95 (C1) n - 1
REM
REM in /home/nfs/bkarasulu/CARBON/AIRSS/Generating-Clusters/LCBOP/Only-C1/SD-CG/FIRE-CG
REM
REM
REM
REM
REM
REM ./C.cell (11c1c37f851c82e70ff6c80c92926a4b)
REM AIRSS Version 0.9.1 bugfix July 2018 build 013d7b7c2542+ Fri, 06 Jul 2018 19:26:36 +0100
REM compiler GCC version 9.2.1 20190827 (Red Hat 9.2.1-1)
REM options -cpp -mtune=generic -march=x86-64 -g -O0 -fpre-include=/usr/include/finclude/math-vector-fortran.h
REM seed 268392140 -1571044840 1480833601 1941162726 -532448870 -1055372219 867051276 -1374056255 647160921 460624563 -1542618269 1200957292 -1216217470 -1679756753 -604313095 29944410 651230907 1117917968 -1256583214 764785146 829683661 -196903003 1959945714 -345203930 -2003471746 -1281958369 -828152220 -1933651131 -1170490315 -631605565 1002298273 -1766928157 -883856942
REM
CELL 1.54180   50.00000   50.00000   50.00000   90.00000   90.00000   90.00000
LATT -1
SFAC C  
C      1  0.4392410000000  0.5281030000000  0.4535070000000 1.0
C      1  0.4278600000000  0.4270680000000  0.5164740000000 1.0
C      1  0.5086560000000  0.5798720000000  0.4641220000000 1.0
C      1  0.4839300000000  0.4502390000000  0.5627250000000 1.0
C      1  0.4879480000000  0.5461330000000  0.4997690000000 1.0
C      1  0.4797950000000  0.5731480000000  0.5012350000000 1.0
C      1  0.4872800000000  0.4944480000000  0.4477390000000 1.0
C      1  0.5846400000000  0.5320540000000  0.4690370000000 1.0
C      1  0.4759070000000  0.5076100000000  0.4229430000000 1.0
C      1  0.5759990000000  0.5322300000000  0.5453250000000 1.0
C      1  0.4988110000000  0.5226530000000  0.5123240000000 1.0
C      1  0.5413970000000  0.4762650000000  0.4579700000000 1.0
C      1  0.4599070000000  0.5946980000000  0.4631480000000 1.0
C      1  0.4607260000000  0.4431060000000  0.4822220000000 1.0
C      1  0.4518430000000  0.5590760000000  0.5726030000000 1.0
C      1  0.4763390000000  0.4663400000000  0.4462930000000 1.0
C      1  0.5513260000000  0.4522760000000  0.5471600000000 1.0
C      1  0.4726930000000  0.4685780000000  0.5822910000000 1.0
C      1  0.4854400000000  0.4703040000000  0.5396530000000 1.0
C      1  0.5758180000000  0.5587390000000  0.4729970000000 1.0
C      1  0.5184800000000  0.5195650000000  0.5318830000000 1.0
C      1  0.5079830000000  0.4092000000000  0.5080800000000 1.0
C      1  0.5047880000000  0.4299600000000  0.5263420000000 1.0
C      1  0.5477900000000  0.4147410000000  0.4465210000000 1.0
C      1  0.4669900000000  0.5183490000000  0.5504360000000 1.0
C      1  0.4109720000000  0.4975860000000  0.4689550000000 1.0
C      1  0.4976800000000  0.5575840000000  0.5553560000000 1.0
C      1  0.4943950000000  0.4901040000000  0.5803580000000 1.0
C      1  0.4530580000000  0.4700060000000  0.4869480000000 1.0
C      1  0.5313910000000  0.4585420000000  0.5896760000000 1.0
C      1  0.4149360000000  0.4488830000000  0.5290940000000 1.0
C      1  0.4575450000000  0.4988810000000  0.4949220000000 1.0
C      1  0.5000310000000  0.5189300000000  0.4609580000000 1.0
C      1  0.5018040000000  0.4234390000000  0.4592200000000 1.0
C      1  0.5776640000000  0.4550600000000  0.5337780000000 1.0
C      1  0.5925130000000  0.4942310000000  0.5045980000000 1.0
C      1  0.5672090000000  0.4144610000000  0.4649950000000 1.0
C      1  0.5277830000000  0.4691480000000  0.4820160000000 1.0
C      1  0.4000270000000  0.5513110000000  0.4660930000000 1.0
C      1  0.5697520000000  0.4448450000000  0.5064190000000 1.0
C      1  0.5083780000000  0.5818090000000  0.5446680000000 1.0
C      1  0.5248220000000  0.4862910000000  0.5837700000000 1.0
C      1  0.5312640000000  0.4955300000000  0.5380830000000 1.0
C      1  0.5857770000000  0.4786960000000  0.4809890000000 1.0
C      1  0.4445720000000  0.6008180000000  0.5309680000000 1.0
C      1  0.5508310000000  0.5701810000000  0.5146770000000 1.0
C      1  0.5856450000000  0.4846040000000  0.5322110000000 1.0
C      1  0.5229810000000  0.4267400000000  0.4401200000000 1.0
C      1  0.5761810000000  0.4250130000000  0.4879520000000 1.0
C      1  0.4334200000000  0.5905290000000  0.4615030000000 1.0
C      1  0.5247820000000  0.5316070000000  0.4685510000000 1.0
C      1  0.5731220000000  0.5042640000000  0.5524310000000 1.0
C      1  0.5298850000000  0.5843240000000  0.5280400000000 1.0
C      1  0.4557750000000  0.5225690000000  0.4755750000000 1.0
C      1  0.5301300000000  0.4758750000000  0.4313960000000 1.0
C      1  0.5447680000000  0.4599050000000  0.5026130000000 1.0
C      1  0.5177450000000  0.5379950000000  0.5530840000000 1.0
C      1  0.4874900000000  0.4980400000000  0.5528120000000 1.0
C      1  0.5455530000000  0.4977870000000  0.5637300000000 1.0
C      1  0.5059380000000  0.4064700000000  0.4814630000000 1.0
C      1  0.4249060000000  0.4582350000000  0.5541760000000 1.0
C      1  0.4714180000000  0.5457410000000  0.5588100000000 1.0
C      1  0.5016730000000  0.5113490000000  0.4085420000000 1.0
C      1  0.4461150000000  0.5108200000000  0.4312210000000 1.0
C      1  0.5968610000000  0.5202750000000  0.4928450000000 1.0
C      1  0.5523010000000  0.5183110000000  0.4271570000000 1.0
C      1  0.4265580000000  0.6168660000000  0.5408400000000 1.0
C      1  0.5023470000000  0.4741450000000  0.4954810000000 1.0
C      1  0.4013180000000  0.4672930000000  0.5116990000000 1.0
C      1  0.5284030000000  0.5605210000000  0.4703690000000 1.0
C      1  0.4309140000000  0.4863710000000  0.4403550000000 1.0
C      1  0.4465890000000  0.4241560000000  0.4972750000000 1.0
C      1  0.4802860000000  0.5350630000000  0.4742900000000 1.0
C      1  0.4348900000000  0.5015790000000  0.5155940000000 1.0
C      1  0.5070550000000  0.4327430000000  0.5558810000000 1.0
C      1  0.4625330000000  0.5849890000000  0.5195680000000 1.0
C      1  0.5712170000000  0.5138950000000  0.4494910000000 1.0
C      1  0.5681060000000  0.4868740000000  0.4603180000000 1.0
C      1  0.4836800000000  0.5864390000000  0.4758170000000 1.0
C      1  0.5331420000000  0.4414470000000  0.5666770000000 1.0
C      1  0.4118450000000  0.4907380000000  0.4989960000000 1.0
C      1  0.4877700000000  0.4985110000000  0.5009640000000 1.0
C      1  0.4115940000000  0.5261270000000  0.4624280000000 1.0
C      1  0.5230490000000  0.4497830000000  0.4233180000000 1.0
C      1  0.4487590000000  0.4649450000000  0.4367070000000 1.0
C      1  0.4427380000000  0.4784740000000  0.5629850000000 1.0
C      1  0.4956600000000  0.4561840000000  0.5169160000000 1.0
C      1  0.5405030000000  0.5175110000000  0.4862210000000 1.0
C      1  0.4810000000000  0.4423340000000  0.4617030000000 1.0
C      1  0.5287000000000  0.5024010000000  0.4187410000000 1.0
C      1  0.5519570000000  0.5675380000000  0.4857020000000 1.0
C      1  0.4111090000000  0.5758970000000  0.4644880000000 1.0
C      1  0.4434870000000  0.5022140000000  0.5442550000000 1.0
C      1  0.5677470000000  0.5536240000000  0.5309660000000 1.0
C      1  0.5363680000000  0.4697930000000  0.5283840000000 1.0
END
