TITL C-627111-6168-985 84315.2181783612 125000 -857.31767953994 0 0 141 (C1) n - 1
REM
REM in /home/nfs/bkarasulu/CARBON/AIRSS/Generating-Clusters/LCBOP/Only-C1/SD-CG/FIRE-CG
REM
REM
REM
REM
REM
REM ./C.cell (11c1c37f851c82e70ff6c80c92926a4b)
REM AIRSS Version 0.9.1 bugfix July 2018 build 013d7b7c2542+ Fri, 06 Jul 2018 19:26:36 +0100
REM compiler GCC version 9.2.1 20190827 (Red Hat 9.2.1-1)
REM options -cpp -mtune=generic -march=x86-64 -g -O0 -fpre-include=/usr/include/finclude/math-vector-fortran.h
REM seed 862905001 663140424 -160415412 -1328375066 1552017848 1814195105 -1501687906 401205990 2052421166 1392360753 815661308 616652626 -469489513 -276951359 227511132 275545332 -917314034 -196912986 1872313529 1219827758 301249375 -2059780997 911057489 1488095494 819902283 -691637242 1687750423 -2063551693 983653658 -1906739807 -1395970401 463270572 -42278608
REM
CELL 1.54180   50.00000   50.00000   50.00000   90.00000   90.00000   90.00000
LATT -1
SFAC C  
C      1  0.4870980000000  0.5824220000000  0.4939940000000 1.0
C      1  0.5921380000000  0.4719830000000  0.5343630000000 1.0
C      1  0.6139550000000  0.5066640000000  0.4390430000000 1.0
C      1  0.5355320000000  0.5481620000000  0.3949640000000 1.0
C      1  0.5401260000000  0.4295190000000  0.5997810000000 1.0
C      1  0.4199700000000  0.4347510000000  0.5171910000000 1.0
C      1  0.5601770000000  0.4338660000000  0.4325380000000 1.0
C      1  0.4543920000000  0.4910160000000  0.4823200000000 1.0
C      1  0.4313980000000  0.5079760000000  0.5387040000000 1.0
C      1  0.4367170000000  0.4433620000000  0.4490110000000 1.0
C      1  0.5496370000000  0.4618280000000  0.4650160000000 1.0
C      1  0.5355900000000  0.4156290000000  0.4550720000000 1.0
C      1  0.5268590000000  0.4774950000000  0.5953370000000 1.0
C      1  0.5238850000000  0.5691210000000  0.4069470000000 1.0
C      1  0.5927930000000  0.4566910000000  0.4865660000000 1.0
C      1  0.4860300000000  0.4970340000000  0.5360780000000 1.0
C      1  0.4595290000000  0.4623180000000  0.4878790000000 1.0
C      1  0.5361820000000  0.5774750000000  0.4824960000000 1.0
C      1  0.4658670000000  0.4487680000000  0.5925950000000 1.0
C      1  0.4423940000000  0.5431390000000  0.5095510000000 1.0
C      1  0.5278230000000  0.4759570000000  0.5455550000000 1.0
C      1  0.4621720000000  0.4669960000000  0.4145750000000 1.0
C      1  0.5178470000000  0.5296950000000  0.6019270000000 1.0
C      1  0.5005550000000  0.5626130000000  0.4529370000000 1.0
C      1  0.4311520000000  0.4133530000000  0.5323890000000 1.0
C      1  0.4450060000000  0.4098570000000  0.4812240000000 1.0
C      1  0.5715080000000  0.5413560000000  0.4831660000000 1.0
C      1  0.5333410000000  0.5202370000000  0.4949950000000 1.0
C      1  0.5667930000000  0.4053880000000  0.4984930000000 1.0
C      1  0.5167080000000  0.6006540000000  0.5356800000000 1.0
C      1  0.4705480000000  0.4963400000000  0.4593740000000 1.0
C      1  0.4069650000000  0.4747890000000  0.4627180000000 1.0
C      1  0.4988800000000  0.4865550000000  0.5952320000000 1.0
C      1  0.4942340000000  0.5143220000000  0.6015420000000 1.0
C      1  0.5224600000000  0.4508640000000  0.5581470000000 1.0
C      1  0.5034720000000  0.5133530000000  0.3870640000000 1.0
C      1  0.5301900000000  0.4509080000000  0.5853760000000 1.0
C      1  0.4673930000000  0.5221490000000  0.5938920000000 1.0
C      1  0.3946610000000  0.5575960000000  0.5284000000000 1.0
C      1  0.4764720000000  0.5730240000000  0.5784470000000 1.0
C      1  0.4120740000000  0.5512900000000  0.5088600000000 1.0
C      1  0.5115520000000  0.4985010000000  0.5482610000000 1.0
C      1  0.5886200000000  0.5239230000000  0.4994580000000 1.0
C      1  0.4531560000000  0.5702020000000  0.4945980000000 1.0
C      1  0.4134530000000  0.5188680000000  0.4787070000000 1.0
C      1  0.4773660000000  0.4525460000000  0.5080210000000 1.0
C      1  0.4150550000000  0.4609560000000  0.5287080000000 1.0
C      1  0.4313280000000  0.4935410000000  0.5636490000000 1.0
C      1  0.4503300000000  0.3953630000000  0.5258150000000 1.0
C      1  0.5944870000000  0.4764800000000  0.5649270000000 1.0
C      1  0.5289760000000  0.5209550000000  0.3968660000000 1.0
C      1  0.4414370000000  0.5168390000000  0.4898420000000 1.0
C      1  0.5695660000000  0.4919650000000  0.5299610000000 1.0
C      1  0.5505500000000  0.5256610000000  0.4707450000000 1.0
C      1  0.5362320000000  0.4751860000000  0.4113140000000 1.0
C      1  0.4423100000000  0.5905210000000  0.5156020000000 1.0
C      1  0.4756780000000  0.3930100000000  0.5119460000000 1.0
C      1  0.4196900000000  0.4674140000000  0.5570260000000 1.0
C      1  0.5493980000000  0.4089880000000  0.6128800000000 1.0
C      1  0.5577720000000  0.5658140000000  0.5247850000000 1.0
C      1  0.5393320000000  0.5152000000000  0.4452390000000 1.0
C      1  0.5410180000000  0.5038970000000  0.4170170000000 1.0
C      1  0.5270240000000  0.4599820000000  0.4511400000000 1.0
C      1  0.4672370000000  0.5229020000000  0.4481480000000 1.0
C      1  0.5797450000000  0.4176620000000  0.5192700000000 1.0
C      1  0.6070250000000  0.4908080000000  0.4607910000000 1.0
C      1  0.4308980000000  0.5645100000000  0.4676870000000 1.0
C      1  0.5416500000000  0.5237470000000  0.5868640000000 1.0
C      1  0.5008750000000  0.4353210000000  0.5480760000000 1.0
C      1  0.4645360000000  0.5498220000000  0.5893290000000 1.0
C      1  0.5032050000000  0.6551720000000  0.4113880000000 1.0
C      1  0.4199320000000  0.4844880000000  0.4353620000000 1.0
C      1  0.5448300000000  0.4785680000000  0.5224020000000 1.0
C      1  0.4970500000000  0.5980600000000  0.5153160000000 1.0
C      1  0.4223290000000  0.4287140000000  0.4889060000000 1.0
C      1  0.5299370000000  0.4929180000000  0.5003910000000 1.0
C      1  0.4438580000000  0.5930050000000  0.5425260000000 1.0
C      1  0.5060410000000  0.5787460000000  0.5753140000000 1.0
C      1  0.4137830000000  0.4866070000000  0.5146210000000 1.0
C      1  0.5080830000000  0.5767500000000  0.4757900000000 1.0
C      1  0.5763550000000  0.5194480000000  0.5260750000000 1.0
C      1  0.5508280000000  0.4046010000000  0.4763210000000 1.0
C      1  0.4605430000000  0.5946670000000  0.5652130000000 1.0
C      1  0.5526400000000  0.4511700000000  0.4103700000000 1.0
C      1  0.4834180000000  0.6389290000000  0.4064430000000 1.0
C      1  0.4916710000000  0.5357560000000  0.4595050000000 1.0
C      1  0.4363880000000  0.5579580000000  0.4404990000000 1.0
C      1  0.4386410000000  0.5780130000000  0.4213170000000 1.0
C      1  0.4704880000000  0.4222630000000  0.5923830000000 1.0
C      1  0.4872490000000  0.4548760000000  0.4252550000000 1.0
C      1  0.5136290000000  0.4652550000000  0.4263380000000 1.0
C      1  0.5756400000000  0.4861480000000  0.5824530000000 1.0
C      1  0.4974040000000  0.4077940000000  0.5534710000000 1.0
C      1  0.5116090000000  0.5138940000000  0.4522320000000 1.0
C      1  0.4437930000000  0.5308140000000  0.4348550000000 1.0
C      1  0.6174410000000  0.5216450000000  0.4180060000000 1.0
C      1  0.4086260000000  0.5476520000000  0.4799570000000 1.0
C      1  0.4361840000000  0.4603130000000  0.4266640000000 1.0
C      1  0.6042560000000  0.5011050000000  0.4891700000000 1.0
C      1  0.4349160000000  0.5067340000000  0.4212680000000 1.0
C      1  0.4865920000000  0.5282020000000  0.4900970000000 1.0
C      1  0.4733210000000  0.4752320000000  0.5809380000000 1.0
C      1  0.4748640000000  0.4028960000000  0.4841490000000 1.0
C      1  0.4789160000000  0.4501690000000  0.5362440000000 1.0
C      1  0.5641320000000  0.5411770000000  0.5406990000000 1.0
C      1  0.4994930000000  0.4162110000000  0.4608770000000 1.0
C      1  0.4777090000000  0.5071350000000  0.3906160000000 1.0
C      1  0.5055700000000  0.6064340000000  0.5620160000000 1.0
C      1  0.4493110000000  0.5306620000000  0.5350450000000 1.0
C      1  0.4984210000000  0.4906180000000  0.4632770000000 1.0
C      1  0.5032490000000  0.4534110000000  0.4969960000000 1.0
C      1  0.4523580000000  0.4986600000000  0.5834920000000 1.0
C      1  0.4831090000000  0.5100800000000  0.5105920000000 1.0
C      1  0.5487970000000  0.4519010000000  0.5099410000000 1.0
C      1  0.4487710000000  0.5995610000000  0.4096420000000 1.0
C      1  0.5246050000000  0.4379420000000  0.5063080000000 1.0
C      1  0.4046150000000  0.4924760000000  0.4859930000000 1.0
C      1  0.5007190000000  0.5439960000000  0.5318340000000 1.0
C      1  0.4792660000000  0.6167980000000  0.5649900000000 1.0
C      1  0.4644970000000  0.6204070000000  0.4050190000000 1.0
C      1  0.4575720000000  0.4943800000000  0.4053470000000 1.0
C      1  0.4756430000000  0.5399350000000  0.5421400000000 1.0
C      1  0.5874640000000  0.4399670000000  0.5331690000000 1.0
C      1  0.5381910000000  0.5813670000000  0.5393190000000 1.0
C      1  0.5496120000000  0.4959830000000  0.5897920000000 1.0
C      1  0.4969480000000  0.3913820000000  0.5303950000000 1.0
C      1  0.5647210000000  0.4539990000000  0.4872300000000 1.0
C      1  0.4837090000000  0.4036000000000  0.5778920000000 1.0
C      1  0.6045620000000  0.4756110000000  0.5058290000000 1.0
C      1  0.5589490000000  0.5653310000000  0.4958240000000 1.0
C      1  0.5477530000000  0.5423240000000  0.5658840000000 1.0
C      1  0.4610070000000  0.4458440000000  0.4633630000000 1.0
C      1  0.5073570000000  0.5720870000000  0.4276860000000 1.0
C      1  0.4144210000000  0.4464060000000  0.4674530000000 1.0
C      1  0.5867220000000  0.4426320000000  0.4418860000000 1.0
C      1  0.5307990000000  0.5665710000000  0.5648310000000 1.0
C      1  0.6002160000000  0.4618260000000  0.4590150000000 1.0
C      1  0.5204240000000  0.5375840000000  0.5139410000000 1.0
C      1  0.5100140000000  0.4786120000000  0.4860040000000 1.0
C      1  0.4836360000000  0.4371000000000  0.4483960000000 1.0
C      1  0.4743810000000  0.4743330000000  0.5499140000000 1.0
END
