TITL C-627111-6168-1986 -2.98625486641314e-06 125000 -1200.62174856835 0 0 196 (C1) n - 1
REM
REM in /home/nfs/bkarasulu/CARBON/AIRSS/Generating-Clusters/LCBOP/Only-C1/SD-CG/FIRE-CG
REM
REM
REM
REM
REM
REM ./C.cell (11c1c37f851c82e70ff6c80c92926a4b)
REM AIRSS Version 0.9.1 bugfix July 2018 build 013d7b7c2542+ Fri, 06 Jul 2018 19:26:36 +0100
REM compiler GCC version 9.2.1 20190827 (Red Hat 9.2.1-1)
REM options -cpp -mtune=generic -march=x86-64 -g -O0 -fpre-include=/usr/include/finclude/math-vector-fortran.h
REM seed 1356167982 -817044551 1275065670 -360051529 1738752371 1458555231 -564009314 23969601 1314793839 2068566010 358101327 1495586318 1003911244 307370520 816749163 -1589724846 -1692437284 -738791372 -945362454 -927469378 1652426196 972290453 314823666 1734763029 1554617892 389859720 -116130199 -306354829 -818606948 25707727 -2040224152 -1490832527 1692625987
REM
CELL 1.54180   50.00000   50.00000   50.00000   90.00000   90.00000   90.00000
LATT -1
SFAC C  
C      1  0.4068370000000  0.6101530000000  0.5674980000000 1.0
C      1  0.4797620000000  0.4458220000000  0.5926010000000 1.0
C      1  0.4134180000000  0.5602890000000  0.5471190000000 1.0
C      1  0.5409110000000  0.4183550000000  0.5314940000000 1.0
C      1  0.4843820000000  0.4282030000000  0.5455800000000 1.0
C      1  0.4939510000000  0.4536000000000  0.4580410000000 1.0
C      1  0.4034340000000  0.5234070000000  0.5775780000000 1.0
C      1  0.4970550000000  0.3006810000000  0.4751000000000 1.0
C      1  0.5625020000000  0.6036030000000  0.5380380000000 1.0
C      1  0.4387030000000  0.4158930000000  0.4612190000000 1.0
C      1  0.5158110000000  0.5937980000000  0.4079610000000 1.0
C      1  0.5273440000000  0.4307250000000  0.4091780000000 1.0
C      1  0.5266290000000  0.5975980000000  0.5752060000000 1.0
C      1  0.3979620000000  0.4492540000000  0.4674500000000 1.0
C      1  0.5417250000000  0.5810480000000  0.5909040000000 1.0
C      1  0.5830390000000  0.4825090000000  0.4880260000000 1.0
C      1  0.5662030000000  0.4280430000000  0.4567000000000 1.0
C      1  0.5585260000000  0.3943930000000  0.3961630000000 1.0
C      1  0.5787080000000  0.5752940000000  0.5038410000000 1.0
C      1  0.5887350000000  0.4282420000000  0.4743860000000 1.0
C      1  0.5465800000000  0.4466040000000  0.4504200000000 1.0
C      1  0.4356120000000  0.4628570000000  0.6026070000000 1.0
C      1  0.5352960000000  0.5354910000000  0.6137070000000 1.0
C      1  0.4049850000000  0.5596340000000  0.4539140000000 1.0
C      1  0.4964700000000  0.4427020000000  0.5673930000000 1.0
C      1  0.4460820000000  0.5824610000000  0.5033550000000 1.0
C      1  0.5126400000000  0.5451320000000  0.5703160000000 1.0
C      1  0.5346780000000  0.5583570000000  0.3830990000000 1.0
C      1  0.6169730000000  0.4962730000000  0.4566960000000 1.0
C      1  0.4103720000000  0.5858580000000  0.5587650000000 1.0
C      1  0.5794930000000  0.5471990000000  0.4248140000000 1.0
C      1  0.3883640000000  0.5431200000000  0.4739650000000 1.0
C      1  0.4039450000000  0.5582400000000  0.5190480000000 1.0
C      1  0.4554330000000  0.4262510000000  0.4410840000000 1.0
C      1  0.4624020000000  0.5960430000000  0.6034720000000 1.0
C      1  0.5474850000000  0.4096190000000  0.4158070000000 1.0
C      1  0.4214200000000  0.4333480000000  0.4754790000000 1.0
C      1  0.5479460000000  0.5157430000000  0.4845790000000 1.0
C      1  0.5593860000000  0.4018820000000  0.4483680000000 1.0
C      1  0.4255270000000  0.4825800000000  0.5305340000000 1.0
C      1  0.5722510000000  0.5160410000000  0.5834930000000 1.0
C      1  0.4245840000000  0.5395550000000  0.5653900000000 1.0
C      1  0.4861980000000  0.5031490000000  0.4765970000000 1.0
C      1  0.5001900000000  0.5160760000000  0.4979760000000 1.0
C      1  0.4575030000000  0.3674730000000  0.4815130000000 1.0
C      1  0.4701820000000  0.5227300000000  0.4635130000000 1.0
C      1  0.4720890000000  0.5465460000000  0.4097410000000 1.0
C      1  0.4919840000000  0.5492020000000  0.4304620000000 1.0
C      1  0.5830240000000  0.4941210000000  0.5976010000000 1.0
C      1  0.4228210000000  0.4806720000000  0.5832250000000 1.0
C      1  0.5348830000000  0.5334130000000  0.4426640000000 1.0
C      1  0.5629390000000  0.5805100000000  0.4797610000000 1.0
C      1  0.5660870000000  0.3871750000000  0.4738680000000 1.0
C      1  0.5211130000000  0.4447710000000  0.4641250000000 1.0
C      1  0.5567110000000  0.5084290000000  0.3902570000000 1.0
C      1  0.3943780000000  0.4705410000000  0.4877080000000 1.0
C      1  0.5038380000000  0.3510330000000  0.4933040000000 1.0
C      1  0.4330740000000  0.4787760000000  0.4439590000000 1.0
C      1  0.5169080000000  0.4837220000000  0.6139170000000 1.0
C      1  0.4276570000000  0.5060980000000  0.4062980000000 1.0
C      1  0.3886110000000  0.4506170000000  0.4408220000000 1.0
C      1  0.5094790000000  0.5739010000000  0.4819110000000 1.0
C      1  0.5475820000000  0.5532740000000  0.5368880000000 1.0
C      1  0.5107510000000  0.6144790000000  0.4507340000000 1.0
C      1  0.5533250000000  0.5557980000000  0.5994890000000 1.0
C      1  0.4798420000000  0.4406070000000  0.4332610000000 1.0
C      1  0.4768940000000  0.4621500000000  0.4122080000000 1.0
C      1  0.3821040000000  0.5143020000000  0.5612960000000 1.0
C      1  0.5024810000000  0.5537200000000  0.5256740000000 1.0
C      1  0.5560080000000  0.3738270000000  0.5444700000000 1.0
C      1  0.4964250000000  0.6023270000000  0.4270520000000 1.0
C      1  0.4391370000000  0.5289360000000  0.5123690000000 1.0
C      1  0.3884470000000  0.4669860000000  0.5470670000000 1.0
C      1  0.5848990000000  0.4103480000000  0.5232490000000 1.0
C      1  0.5244180000000  0.4656650000000  0.3973810000000 1.0
C      1  0.4589720000000  0.5430920000000  0.5247250000000 1.0
C      1  0.4370970000000  0.4840910000000  0.5578490000000 1.0
C      1  0.4832830000000  0.5686890000000  0.4741190000000 1.0
C      1  0.4324800000000  0.5400760000000  0.4873290000000 1.0
C      1  0.5321400000000  0.4928790000000  0.3855580000000 1.0
C      1  0.4632360000000  0.5877640000000  0.4820080000000 1.0
C      1  0.4606990000000  0.4752030000000  0.3936180000000 1.0
C      1  0.6101720000000  0.5224060000000  0.4668460000000 1.0
C      1  0.5138260000000  0.5147410000000  0.6168900000000 1.0
C      1  0.5623010000000  0.5720740000000  0.4270230000000 1.0
C      1  0.5386110000000  0.3587620000000  0.5281710000000 1.0
C      1  0.5273520000000  0.5237820000000  0.5011160000000 1.0
C      1  0.5054980000000  0.6209730000000  0.5031500000000 1.0
C      1  0.4747610000000  0.4646650000000  0.5029690000000 1.0
C      1  0.4551820000000  0.6141120000000  0.4449810000000 1.0
C      1  0.5181570000000  0.5396200000000  0.3727110000000 1.0
C      1  0.4758560000000  0.5222910000000  0.3929740000000 1.0
C      1  0.5775600000000  0.5443960000000  0.5850090000000 1.0
C      1  0.5895430000000  0.4569270000000  0.5679550000000 1.0
C      1  0.4425850000000  0.5219870000000  0.4681210000000 1.0
C      1  0.5956350000000  0.5528880000000  0.5636320000000 1.0
C      1  0.4450040000000  0.3431490000000  0.4798650000000 1.0
C      1  0.4446170000000  0.3901860000000  0.4709490000000 1.0
C      1  0.3910140000000  0.5169970000000  0.4354530000000 1.0
C      1  0.4324040000000  0.4966640000000  0.4635940000000 1.0
C      1  0.4082340000000  0.4472750000000  0.5549450000000 1.0
C      1  0.4363510000000  0.5089350000000  0.6164110000000 1.0
C      1  0.6065520000000  0.5490370000000  0.5366560000000 1.0
C      1  0.4573310000000  0.4354170000000  0.5394950000000 1.0
C      1  0.5396350000000  0.6107330000000  0.4497450000000 1.0
C      1  0.6128890000000  0.5229480000000  0.5255780000000 1.0
C      1  0.4557460000000  0.4451940000000  0.5123790000000 1.0
C      1  0.5668750000000  0.3636530000000  0.5673160000000 1.0
C      1  0.4607640000000  0.5716200000000  0.5251760000000 1.0
C      1  0.3792730000000  0.5104970000000  0.5119700000000 1.0
C      1  0.6039940000000  0.4539090000000  0.5210470000000 1.0
C      1  0.5839950000000  0.4055830000000  0.4929380000000 1.0
C      1  0.4767720000000  0.5781740000000  0.5910800000000 1.0
C      1  0.4825460000000  0.3701290000000  0.4951270000000 1.0
C      1  0.4412890000000  0.4810950000000  0.6244920000000 1.0
C      1  0.5495250000000  0.3665960000000  0.4827420000000 1.0
C      1  0.5521890000000  0.5343310000000  0.4643230000000 1.0
C      1  0.5042050000000  0.5166000000000  0.3819710000000 1.0
C      1  0.4965560000000  0.4156150000000  0.5229980000000 1.0
C      1  0.5411440000000  0.6216780000000  0.5357780000000 1.0
C      1  0.4929720000000  0.5602030000000  0.5800990000000 1.0
C      1  0.3857830000000  0.5399370000000  0.5047080000000 1.0
C      1  0.3802110000000  0.4959340000000  0.5389230000000 1.0
C      1  0.5018130000000  0.4239840000000  0.4197560000000 1.0
C      1  0.5350920000000  0.5706020000000  0.4104660000000 1.0
C      1  0.6081680000000  0.4476130000000  0.4691630000000 1.0
C      1  0.4864920000000  0.4880740000000  0.5779010000000 1.0
C      1  0.6040430000000  0.5681990000000  0.5149220000000 1.0
C      1  0.5186260000000  0.6101360000000  0.5506530000000 1.0
C      1  0.5386840000000  0.4696510000000  0.4970320000000 1.0
C      1  0.5210230000000  0.4261640000000  0.5135940000000 1.0
C      1  0.5974630000000  0.5396320000000  0.4469230000000 1.0
C      1  0.6149940000000  0.5006830000000  0.5437780000000 1.0
C      1  0.4197170000000  0.4807300000000  0.4190830000000 1.0
C      1  0.5413790000000  0.4737360000000  0.5974730000000 1.0
C      1  0.5948560000000  0.4341230000000  0.5383290000000 1.0
C      1  0.4536770000000  0.5030600000000  0.3939110000000 1.0
C      1  0.5262090000000  0.4443880000000  0.4920490000000 1.0
C      1  0.4766580000000  0.5036490000000  0.5351780000000 1.0
C      1  0.5605830000000  0.5898940000000  0.4513220000000 1.0
C      1  0.5543070000000  0.4921860000000  0.4324650000000 1.0
C      1  0.5374190000000  0.5368870000000  0.5591620000000 1.0
C      1  0.3838210000000  0.5157630000000  0.4632390000000 1.0
C      1  0.4992100000000  0.6044440000000  0.5285720000000 1.0
C      1  0.4663960000000  0.5949200000000  0.4260390000000 1.0
C      1  0.5023090000000  0.4742210000000  0.4134580000000 1.0
C      1  0.4518280000000  0.5278270000000  0.5751060000000 1.0
C      1  0.4897100000000  0.4724890000000  0.6033830000000 1.0
C      1  0.5626590000000  0.5768050000000  0.5288150000000 1.0
C      1  0.4632510000000  0.5011010000000  0.5615920000000 1.0
C      1  0.4582620000000  0.5243610000000  0.6047500000000 1.0
C      1  0.4376890000000  0.4381310000000  0.5610820000000 1.0
C      1  0.5304030000000  0.3577380000000  0.5012900000000 1.0
C      1  0.4512040000000  0.5670450000000  0.4190040000000 1.0
C      1  0.5720440000000  0.5272800000000  0.4039080000000 1.0
C      1  0.6348270000000  0.4925450000000  0.4364490000000 1.0
C      1  0.4143110000000  0.4657300000000  0.5093750000000 1.0
C      1  0.6134750000000  0.5236980000000  0.4960210000000 1.0
C      1  0.4233500000000  0.5665560000000  0.4972870000000 1.0
C      1  0.5558210000000  0.4885390000000  0.4836200000000 1.0
C      1  0.4308900000000  0.4442670000000  0.5002830000000 1.0
C      1  0.5869460000000  0.4752850000000  0.5150460000000 1.0
C      1  0.5712870000000  0.4674230000000  0.5916550000000 1.0
C      1  0.3973400000000  0.4635370000000  0.4184910000000 1.0
C      1  0.5090430000000  0.4727860000000  0.5622490000000 1.0
C      1  0.5377920000000  0.4759530000000  0.5242440000000 1.0
C      1  0.4505590000000  0.4433310000000  0.5882330000000 1.0
C      1  0.4880340000000  0.5786240000000  0.5286840000000 1.0
C      1  0.4871070000000  0.4803660000000  0.5230090000000 1.0
C      1  0.5613880000000  0.4001230000000  0.5356760000000 1.0
C      1  0.5119610000000  0.4747390000000  0.5339190000000 1.0
C      1  0.4826080000000  0.4736770000000  0.4765170000000 1.0
C      1  0.4247570000000  0.5088760000000  0.5222340000000 1.0
C      1  0.5341680000000  0.4867240000000  0.5720710000000 1.0
C      1  0.3823090000000  0.4963630000000  0.4856650000000 1.0
C      1  0.4990860000000  0.3251720000000  0.4837830000000 1.0
C      1  0.5479010000000  0.5117960000000  0.5680860000000 1.0
C      1  0.4809580000000  0.5472970000000  0.4562470000000 1.0
C      1  0.5645000000000  0.4804980000000  0.5322860000000 1.0
C      1  0.5567310000000  0.4662420000000  0.4341720000000 1.0
C      1  0.4846180000000  0.5291380000000  0.5221200000000 1.0
C      1  0.5068960000000  0.4956670000000  0.4302230000000 1.0
C      1  0.6079380000000  0.4793330000000  0.5595130000000 1.0
C      1  0.5350820000000  0.5779750000000  0.4863130000000 1.0
C      1  0.6035140000000  0.4753210000000  0.4698440000000 1.0
C      1  0.4137680000000  0.5275840000000  0.4196170000000 1.0
C      1  0.4861210000000  0.3925560000000  0.5114590000000 1.0
C      1  0.5284890000000  0.5464130000000  0.5175540000000 1.0
C      1  0.4237070000000  0.5543930000000  0.4296320000000 1.0
C      1  0.5312800000000  0.6326150000000  0.5110670000000 1.0
C      1  0.4672720000000  0.6132920000000  0.4708930000000 1.0
C      1  0.4854540000000  0.5236440000000  0.6151980000000 1.0
C      1  0.4142400000000  0.5052820000000  0.5962600000000 1.0
C      1  0.5313320000000  0.5073940000000  0.4346190000000 1.0
C      1  0.4951510000000  0.6210330000000  0.4750760000000 1.0
C      1  0.5196340000000  0.5519140000000  0.4286500000000 1.0
END
