TITL C-627111-6168-1987 0.0671404054676605 125000 -432.278879451748 0 0 73 (C1) n - 1
REM
REM in /home/nfs/bkarasulu/CARBON/AIRSS/Generating-Clusters/LCBOP/Only-C1/SD-CG/FIRE-CG
REM
REM
REM
REM
REM
REM ./C.cell (11c1c37f851c82e70ff6c80c92926a4b)
REM AIRSS Version 0.9.1 bugfix July 2018 build 013d7b7c2542+ Fri, 06 Jul 2018 19:26:36 +0100
REM compiler GCC version 9.2.1 20190827 (Red Hat 9.2.1-1)
REM options -cpp -mtune=generic -march=x86-64 -g -O0 -fpre-include=/usr/include/finclude/math-vector-fortran.h
REM seed 661321877 -1594918975 1150557348 -1324488392 -1458528225 1963626361 -506172192 1332970481 -74735285 710720625 25061759 854213173 -1647500705 523252282 -948222744 1362596668 157478581 973480143 -458578074 -1819804969 -240777623 -564056970 -461885207 454540818 -75331754 1073680728 929278106 -1687614587 910031014 119759989 -2008591557 -2088992548 1953595901
REM
CELL 1.54180   50.00000   50.00000   50.00000   90.00000   90.00000   90.00000
LATT -1
SFAC C  
C      1  0.4910750000000  0.4651160000000  0.5205300000000 1.0
C      1  0.4736660000000  0.6158840000000  0.5461300000000 1.0
C      1  0.4916000000000  0.4892740000000  0.5041500000000 1.0
C      1  0.5265690000000  0.4560250000000  0.5534680000000 1.0
C      1  0.5052110000000  0.4742010000000  0.5459210000000 1.0
C      1  0.4385490000000  0.5667430000000  0.5195270000000 1.0
C      1  0.6835370000000  0.5485450000000  0.4884100000000 1.0
C      1  0.5531750000000  0.4922390000000  0.3981590000000 1.0
C      1  0.4206870000000  0.5507770000000  0.5069540000000 1.0
C      1  0.4326930000000  0.4842690000000  0.4466000000000 1.0
C      1  0.4310160000000  0.4505450000000  0.5102640000000 1.0
C      1  0.5512820000000  0.4686710000000  0.5577830000000 1.0
C      1  0.4622550000000  0.4368590000000  0.5501710000000 1.0
C      1  0.4789120000000  0.4520270000000  0.4537060000000 1.0
C      1  0.5411150000000  0.5875520000000  0.5304100000000 1.0
C      1  0.5309280000000  0.5416870000000  0.5464560000000 1.0
C      1  0.5721180000000  0.4993320000000  0.4159050000000 1.0
C      1  0.4687230000000  0.4461580000000  0.4791520000000 1.0
C      1  0.4523440000000  0.4861440000000  0.5551380000000 1.0
C      1  0.5396410000000  0.4688740000000  0.3968420000000 1.0
C      1  0.3868380000000  0.5019680000000  0.4382990000000 1.0
C      1  0.4436400000000  0.5383680000000  0.4550920000000 1.0
C      1  0.4840760000000  0.4410740000000  0.5029860000000 1.0
C      1  0.4553520000000  0.6344960000000  0.5506110000000 1.0
C      1  0.5181370000000  0.4322140000000  0.5391600000000 1.0
C      1  0.4573970000000  0.5589840000000  0.5390470000000 1.0
C      1  0.6059620000000  0.5121190000000  0.5344210000000 1.0
C      1  0.4510770000000  0.5333790000000  0.5488820000000 1.0
C      1  0.4916170000000  0.5951830000000  0.5409870000000 1.0
C      1  0.6226310000000  0.5155580000000  0.4677560000000 1.0
C      1  0.5286550000000  0.4376720000000  0.5115530000000 1.0
C      1  0.5840020000000  0.5040350000000  0.5468570000000 1.0
C      1  0.6356410000000  0.5238170000000  0.4910770000000 1.0
C      1  0.4902200000000  0.4259740000000  0.5488200000000 1.0
C      1  0.5602010000000  0.4472250000000  0.4349510000000 1.0
C      1  0.5433090000000  0.4483390000000  0.4140380000000 1.0
C      1  0.5130580000000  0.4830080000000  0.4853060000000 1.0
C      1  0.4598520000000  0.4944630000000  0.4411390000000 1.0
C      1  0.5178410000000  0.6007340000000  0.5324350000000 1.0
C      1  0.4427430000000  0.4301700000000  0.5286710000000 1.0
C      1  0.6058570000000  0.5043160000000  0.4506090000000 1.0
C      1  0.4617010000000  0.5229350000000  0.4417870000000 1.0
C      1  0.4568710000000  0.5081490000000  0.5382720000000 1.0
C      1  0.5093860000000  0.5005590000000  0.5554750000000 1.0
C      1  0.3626040000000  0.4997420000000  0.4278310000000 1.0
C      1  0.5028160000000  0.5480450000000  0.5539130000000 1.0
C      1  0.6604070000000  0.5366040000000  0.4897000000000 1.0
C      1  0.5910060000000  0.4536550000000  0.4720060000000 1.0
C      1  0.4157020000000  0.5260310000000  0.4941160000000 1.0
C      1  0.4407400000000  0.4491370000000  0.4829150000000 1.0
C      1  0.4170920000000  0.4751650000000  0.5151060000000 1.0
C      1  0.4204200000000  0.5259360000000  0.4659700000000 1.0
C      1  0.4939060000000  0.5226550000000  0.5649660000000 1.0
C      1  0.4543400000000  0.4068680000000  0.5160540000000 1.0
C      1  0.6010260000000  0.4469540000000  0.4951150000000 1.0
C      1  0.4564230000000  0.4610560000000  0.5633800000000 1.0
C      1  0.5068730000000  0.4892000000000  0.4582470000000 1.0
C      1  0.5859000000000  0.4891430000000  0.4383150000000 1.0
C      1  0.5791830000000  0.4630880000000  0.4485310000000 1.0
C      1  0.5579780000000  0.4958440000000  0.5520510000000 1.0
C      1  0.4370470000000  0.6525530000000  0.5549100000000 1.0
C      1  0.3387340000000  0.4975280000000  0.4175880000000 1.0
C      1  0.4797590000000  0.4125410000000  0.5071150000000 1.0
C      1  0.4833880000000  0.4788210000000  0.4457900000000 1.0
C      1  0.4840950000000  0.5679200000000  0.5448130000000 1.0
C      1  0.5356520000000  0.5132740000000  0.5497830000000 1.0
C      1  0.4279560000000  0.4601440000000  0.4604670000000 1.0
C      1  0.6234850000000  0.5190760000000  0.5157950000000 1.0
C      1  0.4123530000000  0.5009250000000  0.5077000000000 1.0
C      1  0.4719500000000  0.5069490000000  0.5137480000000 1.0
C      1  0.4119760000000  0.5039650000000  0.4498330000000 1.0
C      1  0.5471610000000  0.5620670000000  0.5364270000000 1.0
C      1  0.5288680000000  0.4594550000000  0.4939080000000 1.0
END
