TITL C-627107-135-274 3.95671702420066e-07 125000 -1083.46750702433 0 0 175 (C1) n - 1
REM
REM in /home/nfs/bkarasulu/CARBON/AIRSS/Generating-Clusters/LCBOP/Only-C1/SD-CG/FIRE-CG
REM
REM
REM
REM
REM
REM ./C.cell (11c1c37f851c82e70ff6c80c92926a4b)
REM AIRSS Version 0.9.1 bugfix July 2018 build 013d7b7c2542+ Fri, 06 Jul 2018 19:26:36 +0100
REM compiler GCC version 9.2.1 20190827 (Red Hat 9.2.1-1)
REM options -cpp -mtune=generic -march=x86-64 -g -O0 -fpre-include=/usr/include/finclude/math-vector-fortran.h
REM seed -490919448 1785746955 295247566 1277135870 925389573 46679440 -1849816241 2035997870 -797820964 1852487192 339601350 1244718821 1702789337 -1730768986 814428128 820216796 1664172248 305728704 407556942 207554357 -1519119646 -187903942 -1218164134 -1801342965 -285722859 -1136525493 -715056482 1463756962 2083374002 -1271190653 -408004392 1596081536 -455659357
REM
CELL 1.54180   50.00000   50.00000   50.00000   90.00000   90.00000   90.00000
LATT -1
SFAC C  
C      1  0.6190300000000  0.4781890000000  0.5207720000000 1.0
C      1  0.5955280000000  0.5340410000000  0.5898880000000 1.0
C      1  0.3913960000000  0.4447980000000  0.5233050000000 1.0
C      1  0.5380280000000  0.5999890000000  0.4785390000000 1.0
C      1  0.5353770000000  0.5992790000000  0.5065900000000 1.0
C      1  0.5027780000000  0.4537940000000  0.5179520000000 1.0
C      1  0.4154600000000  0.4091710000000  0.4950210000000 1.0
C      1  0.5093960000000  0.4690990000000  0.6184740000000 1.0
C      1  0.4822910000000  0.5370730000000  0.5231090000000 1.0
C      1  0.4434230000000  0.3669830000000  0.4458690000000 1.0
C      1  0.5564860000000  0.4577950000000  0.5214350000000 1.0
C      1  0.5446510000000  0.4108040000000  0.5360540000000 1.0
C      1  0.5648220000000  0.4136290000000  0.4762320000000 1.0
C      1  0.5167510000000  0.3950910000000  0.4948530000000 1.0
C      1  0.4896170000000  0.4362100000000  0.5015890000000 1.0
C      1  0.4860610000000  0.4935690000000  0.3722510000000 1.0
C      1  0.5256170000000  0.4998000000000  0.4106240000000 1.0
C      1  0.6193510000000  0.5796200000000  0.5478750000000 1.0
C      1  0.3988620000000  0.4028790000000  0.5464670000000 1.0
C      1  0.4406740000000  0.4339830000000  0.4245200000000 1.0
C      1  0.4716870000000  0.4084310000000  0.3998370000000 1.0
C      1  0.5198960000000  0.4008680000000  0.5240330000000 1.0
C      1  0.4024570000000  0.4343560000000  0.4987310000000 1.0
C      1  0.4965650000000  0.5159840000000  0.6013200000000 1.0
C      1  0.4367430000000  0.5003230000000  0.4484490000000 1.0
C      1  0.6118860000000  0.4103400000000  0.4708560000000 1.0
C      1  0.4524730000000  0.6004840000000  0.4158610000000 1.0
C      1  0.5215700000000  0.5622890000000  0.5995040000000 1.0
C      1  0.3990690000000  0.5187840000000  0.4660630000000 1.0
C      1  0.4518400000000  0.4082240000000  0.4202910000000 1.0
C      1  0.4486160000000  0.4667470000000  0.5354740000000 1.0
C      1  0.4988110000000  0.4284990000000  0.5589560000000 1.0
C      1  0.4945640000000  0.6116950000000  0.4537350000000 1.0
C      1  0.5205910000000  0.6153390000000  0.5250580000000 1.0
C      1  0.4129030000000  0.5555160000000  0.4040740000000 1.0
C      1  0.4880940000000  0.5454590000000  0.5487230000000 1.0
C      1  0.5684370000000  0.5192720000000  0.4968700000000 1.0
C      1  0.5111230000000  0.5937570000000  0.4387340000000 1.0
C      1  0.5345330000000  0.5161140000000  0.5556590000000 1.0
C      1  0.4873570000000  0.5437490000000  0.4406260000000 1.0
C      1  0.5016210000000  0.4450960000000  0.3933510000000 1.0
C      1  0.5872060000000  0.4204540000000  0.4578280000000 1.0
C      1  0.4588700000000  0.5029860000000  0.5717910000000 1.0
C      1  0.5285470000000  0.6173100000000  0.5530720000000 1.0
C      1  0.5151040000000  0.4605960000000  0.4526890000000 1.0
C      1  0.4962670000000  0.4062330000000  0.5403540000000 1.0
C      1  0.5721350000000  0.5197240000000  0.5246940000000 1.0
C      1  0.5526460000000  0.4809950000000  0.4742220000000 1.0
C      1  0.3560400000000  0.4901010000000  0.4844640000000 1.0
C      1  0.4388720000000  0.3956050000000  0.4932220000000 1.0
C      1  0.5106300000000  0.5189020000000  0.4888510000000 1.0
C      1  0.6203860000000  0.5224180000000  0.5823850000000 1.0
C      1  0.5076320000000  0.6051620000000  0.5696430000000 1.0
C      1  0.5157820000000  0.4738250000000  0.5033130000000 1.0
C      1  0.5566450000000  0.5028730000000  0.5419480000000 1.0
C      1  0.4406780000000  0.4619350000000  0.4188450000000 1.0
C      1  0.5127800000000  0.4974750000000  0.5618860000000 1.0
C      1  0.5538340000000  0.5096610000000  0.4748440000000 1.0
C      1  0.5393800000000  0.5429930000000  0.5611440000000 1.0
C      1  0.5392130000000  0.4311980000000  0.6064210000000 1.0
C      1  0.4814630000000  0.6197560000000  0.4754980000000 1.0
C      1  0.5516560000000  0.4155940000000  0.5883670000000 1.0
C      1  0.5138320000000  0.4437970000000  0.6062990000000 1.0
C      1  0.4306390000000  0.5782290000000  0.4801710000000 1.0
C      1  0.4880750000000  0.5029180000000  0.5761880000000 1.0
C      1  0.5003400000000  0.4971140000000  0.4174040000000 1.0
C      1  0.4460420000000  0.4425870000000  0.5508340000000 1.0
C      1  0.4816130000000  0.4887340000000  0.4365140000000 1.0
C      1  0.5406310000000  0.5612340000000  0.5403770000000 1.0
C      1  0.5448130000000  0.5759530000000  0.5188330000000 1.0
C      1  0.4157970000000  0.5155820000000  0.5119330000000 1.0
C      1  0.4975000000000  0.4922650000000  0.4880760000000 1.0
C      1  0.5152120000000  0.5894430000000  0.5920890000000 1.0
C      1  0.6419190000000  0.5627030000000  0.5470670000000 1.0
C      1  0.4828560000000  0.4358550000000  0.4747640000000 1.0
C      1  0.4429510000000  0.5227770000000  0.5856540000000 1.0
C      1  0.4580770000000  0.5683000000000  0.5756750000000 1.0
C      1  0.5006890000000  0.4141950000000  0.4367160000000 1.0
C      1  0.4972360000000  0.5829410000000  0.4152930000000 1.0
C      1  0.4772200000000  0.6003810000000  0.4051570000000 1.0
C      1  0.4568740000000  0.4433440000000  0.4690370000000 1.0
C      1  0.4704520000000  0.4023060000000  0.5289780000000 1.0
C      1  0.4481010000000  0.5714910000000  0.4578310000000 1.0
C      1  0.4454070000000  0.4925320000000  0.5487420000000 1.0
C      1  0.5421250000000  0.4675010000000  0.4519750000000 1.0
C      1  0.6286480000000  0.5163000000000  0.5554570000000 1.0
C      1  0.4384780000000  0.5497650000000  0.5849190000000 1.0
C      1  0.3860070000000  0.4411400000000  0.5716300000000 1.0
C      1  0.6004290000000  0.4704300000000  0.4493960000000 1.0
C      1  0.4401040000000  0.4586920000000  0.4851060000000 1.0
C      1  0.4083110000000  0.4945350000000  0.4526480000000 1.0
C      1  0.4547650000000  0.5285410000000  0.3850670000000 1.0
C      1  0.4035390000000  0.4743810000000  0.3817250000000 1.0
C      1  0.4301900000000  0.5404600000000  0.3903600000000 1.0
C      1  0.4123400000000  0.4547800000000  0.4811980000000 1.0
C      1  0.4888570000000  0.5552260000000  0.4140410000000 1.0
C      1  0.4986930000000  0.5445790000000  0.5970070000000 1.0
C      1  0.4953820000000  0.4673040000000  0.3787230000000 1.0
C      1  0.5072400000000  0.4518870000000  0.5454160000000 1.0
C      1  0.6345710000000  0.4014330000000  0.4591120000000 1.0
C      1  0.4482800000000  0.4146940000000  0.5425170000000 1.0
C      1  0.4617510000000  0.5455920000000  0.4560730000000 1.0
C      1  0.4707720000000  0.4936990000000  0.5015390000000 1.0
C      1  0.4581740000000  0.5020630000000  0.3735030000000 1.0
C      1  0.4895940000000  0.3904900000000  0.4826600000000 1.0
C      1  0.4126650000000  0.5735470000000  0.4254700000000 1.0
C      1  0.4084690000000  0.4479370000000  0.5851700000000 1.0
C      1  0.3926670000000  0.5774770000000  0.4454530000000 1.0
C      1  0.5858040000000  0.5422080000000  0.5345620000000 1.0
C      1  0.5511680000000  0.4743990000000  0.5440490000000 1.0
C      1  0.4830490000000  0.6044540000000  0.5525710000000 1.0
C      1  0.3685770000000  0.4727360000000  0.4678060000000 1.0
C      1  0.5394230000000  0.4012570000000  0.4780650000000 1.0
C      1  0.6408360000000  0.5359060000000  0.5381000000000 1.0
C      1  0.4383860000000  0.5133410000000  0.5290900000000 1.0
C      1  0.5052170000000  0.4959310000000  0.6194950000000 1.0
C      1  0.4538330000000  0.4832700000000  0.4336580000000 1.0
C      1  0.4818040000000  0.5392830000000  0.3912440000000 1.0
C      1  0.4034310000000  0.5806810000000  0.4716310000000 1.0
C      1  0.4531710000000  0.4711670000000  0.5070510000000 1.0
C      1  0.4961920000000  0.4813770000000  0.4596510000000 1.0
C      1  0.3659780000000  0.5782100000000  0.4401310000000 1.0
C      1  0.5612450000000  0.4295540000000  0.5219940000000 1.0
C      1  0.4914160000000  0.6140500000000  0.5258780000000 1.0
C      1  0.4420480000000  0.5870450000000  0.5330190000000 1.0
C      1  0.5776700000000  0.4179930000000  0.5025660000000 1.0
C      1  0.5295460000000  0.5232760000000  0.4683650000000 1.0
C      1  0.4206730000000  0.5257070000000  0.4847060000000 1.0
C      1  0.4339860000000  0.4464870000000  0.5764800000000 1.0
C      1  0.6151880000000  0.4777920000000  0.4943990000000 1.0
C      1  0.4386060000000  0.5832550000000  0.4330480000000 1.0
C      1  0.4782780000000  0.6198820000000  0.5020030000000 1.0
C      1  0.3918760000000  0.4997420000000  0.5171760000000 1.0
C      1  0.5030810000000  0.4358520000000  0.4548270000000 1.0
C      1  0.6314520000000  0.5285500000000  0.4855880000000 1.0
C      1  0.6232140000000  0.4913230000000  0.5436370000000 1.0
C      1  0.6385380000000  0.5164420000000  0.6029290000000 1.0
C      1  0.4992960000000  0.5198530000000  0.3769920000000 1.0
C      1  0.5241130000000  0.4716550000000  0.5556960000000 1.0
C      1  0.4372400000000  0.5819010000000  0.5071760000000 1.0
C      1  0.4825900000000  0.5536970000000  0.5747850000000 1.0
C      1  0.5573490000000  0.5710760000000  0.4444510000000 1.0
C      1  0.5716000000000  0.5448840000000  0.5959800000000 1.0
C      1  0.3966600000000  0.4708090000000  0.4634940000000 1.0
C      1  0.4447430000000  0.5236650000000  0.4653490000000 1.0
C      1  0.5964450000000  0.5351030000000  0.4520080000000 1.0
C      1  0.5780170000000  0.5538030000000  0.4458090000000 1.0
C      1  0.5905270000000  0.4456460000000  0.4453000000000 1.0
C      1  0.4850250000000  0.3935420000000  0.4525270000000 1.0
C      1  0.3670410000000  0.5050180000000  0.5043060000000 1.0
C      1  0.4662820000000  0.3932200000000  0.5014230000000 1.0
C      1  0.4634230000000  0.5175950000000  0.5159850000000 1.0
C      1  0.4585150000000  0.5894640000000  0.5560080000000 1.0
C      1  0.3931820000000  0.4730760000000  0.5270180000000 1.0
C      1  0.5512990000000  0.6290340000000  0.5622670000000 1.0
C      1  0.6418220000000  0.5316830000000  0.5100940000000 1.0
C      1  0.6053400000000  0.4122240000000  0.4988970000000 1.0
C      1  0.6204090000000  0.6063470000000  0.5551680000000 1.0
C      1  0.3865630000000  0.4283830000000  0.5462310000000 1.0
C      1  0.4232260000000  0.4697690000000  0.3981820000000 1.0
C      1  0.4963740000000  0.4319340000000  0.5869520000000 1.0
C      1  0.5511080000000  0.4064970000000  0.5631870000000 1.0
C      1  0.4958660000000  0.4211460000000  0.4082730000000 1.0
C      1  0.5137610000000  0.5360870000000  0.4488440000000 1.0
C      1  0.5361200000000  0.5881720000000  0.4523850000000 1.0
C      1  0.5453000000000  0.5510740000000  0.5878350000000 1.0
C      1  0.6557980000000  0.5109510000000  0.6216670000000 1.0
C      1  0.4254480000000  0.3984870000000  0.5472210000000 1.0
C      1  0.6220670000000  0.6314220000000  0.5620740000000 1.0
C      1  0.5437370000000  0.4696750000000  0.4987250000000 1.0
C      1  0.4586200000000  0.3891030000000  0.4408820000000 1.0
C      1  0.5957330000000  0.5662790000000  0.5405620000000 1.0
C      1  0.5021220000000  0.5402680000000  0.5041200000000 1.0
C      1  0.6132150000000  0.5174630000000  0.4667500000000 1.0
C      1  0.6098140000000  0.4887700000000  0.4687570000000 1.0
END
