TITL C-627108-131-316 1074.26645570249 125000 -1219.03371715681 0 0 200 (C1) n - 1
REM
REM in /home/nfs/bkarasulu/CARBON/AIRSS/Generating-Clusters/LCBOP/Only-C1/SD-CG/FIRE-CG
REM
REM
REM
REM
REM
REM ./C.cell (11c1c37f851c82e70ff6c80c92926a4b)
REM AIRSS Version 0.9.1 bugfix July 2018 build 013d7b7c2542+ Fri, 06 Jul 2018 19:26:36 +0100
REM compiler GCC version 9.2.1 20190827 (Red Hat 9.2.1-1)
REM options -cpp -mtune=generic -march=x86-64 -g -O0 -fpre-include=/usr/include/finclude/math-vector-fortran.h
REM seed 681907665 741701782 1833565256 -1089994565 890529191 -286881903 -1320738453 936300049 -1131449628 -1123376674 37253956 1028397827 -1509904547 2018805320 -1673535149 1669411982 -1127271477 2096201696 -1220858490 -1157786965 -1522510535 1976333293 -495806178 222488998 -1804910421 1280671336 1059694590 576829683 1867226876 356682742 -33278603 1289491354 397896069
REM
CELL 1.54180   50.00000   50.00000   50.00000   90.00000   90.00000   90.00000
LATT -1
SFAC C  
C      1  0.5227020000000  0.6003070000000  0.5712760000000 1.0
C      1  0.4443890000000  0.3989100000000  0.5185950000000 1.0
C      1  0.4040220000000  0.5595850000000  0.4914350000000 1.0
C      1  0.5368730000000  0.4755830000000  0.4931250000000 1.0
C      1  0.4240270000000  0.5019920000000  0.4152910000000 1.0
C      1  0.5692980000000  0.3915120000000  0.4892110000000 1.0
C      1  0.5766910000000  0.5645580000000  0.4418290000000 1.0
C      1  0.4129710000000  0.4841770000000  0.4359380000000 1.0
C      1  0.4462310000000  0.4949690000000  0.3688500000000 1.0
C      1  0.5487490000000  0.5292640000000  0.4754350000000 1.0
C      1  0.4474910000000  0.5888210000000  0.5526900000000 1.0
C      1  0.6023470000000  0.4591570000000  0.4661980000000 1.0
C      1  0.5212330000000  0.4036660000000  0.4299110000000 1.0
C      1  0.5714270000000  0.5450330000000  0.5178090000000 1.0
C      1  0.5895000000000  0.4609490000000  0.5587540000000 1.0
C      1  0.4665960000000  0.6288520000000  0.5351380000000 1.0
C      1  0.4453750000000  0.4617220000000  0.4020380000000 1.0
C      1  0.5276830000000  0.4177180000000  0.5004440000000 1.0
C      1  0.4115490000000  0.4575080000000  0.5949680000000 1.0
C      1  0.5093290000000  0.5399560000000  0.4495940000000 1.0
C      1  0.4304110000000  0.4390450000000  0.4099110000000 1.0
C      1  0.5784280000000  0.4997370000000  0.4986840000000 1.0
C      1  0.4760040000000  0.5422230000000  0.4014110000000 1.0
C      1  0.5510770000000  0.4967770000000  0.5057740000000 1.0
C      1  0.5703150000000  0.5503270000000  0.5463530000000 1.0
C      1  0.4706120000000  0.4667310000000  0.5784050000000 1.0
C      1  0.4821660000000  0.5249550000000  0.5664810000000 1.0
C      1  0.5632330000000  0.6147900000000  0.5403170000000 1.0
C      1  0.3831060000000  0.4958450000000  0.5357290000000 1.0
C      1  0.5254940000000  0.5440940000000  0.5095470000000 1.0
C      1  0.4658760000000  0.4806630000000  0.6295870000000 1.0
C      1  0.5605570000000  0.4603270000000  0.5526460000000 1.0
C      1  0.4880630000000  0.5171660000000  0.4107650000000 1.0
C      1  0.4158500000000  0.5068740000000  0.6043780000000 1.0
C      1  0.4679170000000  0.5067620000000  0.5131450000000 1.0
C      1  0.5097480000000  0.4231430000000  0.4787820000000 1.0
C      1  0.4981780000000  0.5390890000000  0.5035300000000 1.0
C      1  0.5048530000000  0.4583480000000  0.3381770000000 1.0
C      1  0.4249940000000  0.5476950000000  0.5506730000000 1.0
C      1  0.6162410000000  0.5270230000000  0.4819070000000 1.0
C      1  0.5362160000000  0.5334610000000  0.4106520000000 1.0
C      1  0.4897850000000  0.3608900000000  0.4846310000000 1.0
C      1  0.5646720000000  0.5927010000000  0.5979430000000 1.0
C      1  0.4602310000000  0.4586170000000  0.5322620000000 1.0
C      1  0.4361100000000  0.5292970000000  0.6032240000000 1.0
C      1  0.4274160000000  0.5395520000000  0.4476940000000 1.0
C      1  0.6070190000000  0.6280900000000  0.5242700000000 1.0
C      1  0.6200600000000  0.4600960000000  0.4893630000000 1.0
C      1  0.4531770000000  0.5341920000000  0.4587370000000 1.0
C      1  0.3854310000000  0.4791620000000  0.4362110000000 1.0
C      1  0.5244660000000  0.4426700000000  0.4604840000000 1.0
C      1  0.5290300000000  0.5608460000000  0.4018910000000 1.0
C      1  0.4792060000000  0.5518600000000  0.5210990000000 1.0
C      1  0.4816720000000  0.5518160000000  0.5505110000000 1.0
C      1  0.4669410000000  0.4381430000000  0.5752390000000 1.0
C      1  0.5100580000000  0.4811830000000  0.4839640000000 1.0
C      1  0.5156500000000  0.4889860000000  0.6055440000000 1.0
C      1  0.5849390000000  0.5885040000000  0.5058410000000 1.0
C      1  0.4916800000000  0.6186020000000  0.5425320000000 1.0
C      1  0.4590260000000  0.4318220000000  0.4713060000000 1.0
C      1  0.5124650000000  0.4610560000000  0.6091480000000 1.0
C      1  0.5130800000000  0.3775630000000  0.5214140000000 1.0
C      1  0.5167030000000  0.3697640000000  0.4940500000000 1.0
C      1  0.4630090000000  0.5359180000000  0.6146920000000 1.0
C      1  0.5783300000000  0.4202510000000  0.4911690000000 1.0
C      1  0.5207320000000  0.4516550000000  0.3186260000000 1.0
C      1  0.6264300000000  0.4942600000000  0.5258710000000 1.0
C      1  0.5701700000000  0.4239400000000  0.4417700000000 1.0
C      1  0.5069380000000  0.6081540000000  0.4805560000000 1.0
C      1  0.4917970000000  0.4528440000000  0.3850500000000 1.0
C      1  0.4093140000000  0.4394730000000  0.5444230000000 1.0
C      1  0.4651800000000  0.5546430000000  0.4746910000000 1.0
C      1  0.4972510000000  0.5895810000000  0.4249150000000 1.0
C      1  0.4682620000000  0.3559680000000  0.5061480000000 1.0
C      1  0.5846380000000  0.5832130000000  0.5826540000000 1.0
C      1  0.4318900000000  0.4187680000000  0.5391570000000 1.0
C      1  0.5550250000000  0.5835570000000  0.4408690000000 1.0
C      1  0.4678150000000  0.4844230000000  0.3564580000000 1.0
C      1  0.4363990000000  0.5366660000000  0.5750800000000 1.0
C      1  0.4744040000000  0.4625540000000  0.4085700000000 1.0
C      1  0.5168690000000  0.5441440000000  0.6026940000000 1.0
C      1  0.4903060000000  0.5419760000000  0.6116850000000 1.0
C      1  0.4719640000000  0.3700690000000  0.4629960000000 1.0
C      1  0.4872790000000  0.4891340000000  0.4172850000000 1.0
C      1  0.4293910000000  0.5299860000000  0.4200850000000 1.0
C      1  0.5298700000000  0.6159330000000  0.4660260000000 1.0
C      1  0.5061450000000  0.4474360000000  0.5274530000000 1.0
C      1  0.5299690000000  0.4337070000000  0.5231420000000 1.0
C      1  0.4482280000000  0.5899660000000  0.4376010000000 1.0
C      1  0.4777400000000  0.4512440000000  0.4599590000000 1.0
C      1  0.4549250000000  0.4340050000000  0.5496520000000 1.0
C      1  0.4826610000000  0.3807040000000  0.5581470000000 1.0
C      1  0.5440500000000  0.5367960000000  0.5924550000000 1.0
C      1  0.5146990000000  0.5958580000000  0.5053880000000 1.0
C      1  0.4583610000000  0.6135550000000  0.4875710000000 1.0
C      1  0.4734210000000  0.4055420000000  0.5143760000000 1.0
C      1  0.4561120000000  0.5513370000000  0.5028940000000 1.0
C      1  0.4877800000000  0.4641620000000  0.4853740000000 1.0
C      1  0.5341140000000  0.4429610000000  0.4114610000000 1.0
C      1  0.6265100000000  0.5217090000000  0.5257760000000 1.0
C      1  0.5155380000000  0.6130100000000  0.5278100000000 1.0
C      1  0.6076830000000  0.5689830000000  0.5073220000000 1.0
C      1  0.5588560000000  0.5144460000000  0.6081160000000 1.0
C      1  0.5126310000000  0.5034340000000  0.5343270000000 1.0
C      1  0.5563270000000  0.4757670000000  0.4494830000000 1.0
C      1  0.4339710000000  0.4417390000000  0.4585850000000 1.0
C      1  0.5857070000000  0.6110280000000  0.5237480000000 1.0
C      1  0.5587050000000  0.5857090000000  0.4916040000000 1.0
C      1  0.5552270000000  0.4411490000000  0.5321780000000 1.0
C      1  0.5783590000000  0.5001030000000  0.5903790000000 1.0
C      1  0.5330020000000  0.5825380000000  0.4225130000000 1.0
C      1  0.4182640000000  0.4787890000000  0.6111420000000 1.0
C      1  0.5482940000000  0.4851120000000  0.5577880000000 1.0
C      1  0.4353980000000  0.5962830000000  0.4871690000000 1.0
C      1  0.3888110000000  0.4864100000000  0.5630830000000 1.0
C      1  0.5519290000000  0.5980580000000  0.4654950000000 1.0
C      1  0.4855480000000  0.4221450000000  0.5891450000000 1.0
C      1  0.5562140000000  0.5337540000000  0.5648310000000 1.0
C      1  0.4256150000000  0.4286530000000  0.4345710000000 1.0
C      1  0.5985760000000  0.5053120000000  0.4786790000000 1.0
C      1  0.3931270000000  0.5213830000000  0.5260950000000 1.0
C      1  0.5465610000000  0.4194490000000  0.4256460000000 1.0
C      1  0.4459990000000  0.3765770000000  0.4723050000000 1.0
C      1  0.4914010000000  0.5575390000000  0.4626110000000 1.0
C      1  0.5134210000000  0.4961970000000  0.4604140000000 1.0
C      1  0.5804590000000  0.5440780000000  0.4229030000000 1.0
C      1  0.5865260000000  0.5692300000000  0.5597570000000 1.0
C      1  0.4739960000000  0.5780290000000  0.5614140000000 1.0
C      1  0.5656470000000  0.5063700000000  0.5648060000000 1.0
C      1  0.5367750000000  0.6098870000000  0.5471360000000 1.0
C      1  0.5221160000000  0.4936980000000  0.5586260000000 1.0
C      1  0.6106710000000  0.3562410000000  0.4964010000000 1.0
C      1  0.4760280000000  0.5982120000000  0.4425710000000 1.0
C      1  0.5040560000000  0.4360630000000  0.6049650000000 1.0
C      1  0.3599860000000  0.4736280000000  0.4371590000000 1.0
C      1  0.5976570000000  0.4875690000000  0.4559690000000 1.0
C      1  0.5459570000000  0.4599550000000  0.4711970000000 1.0
C      1  0.5116590000000  0.5274080000000  0.4236730000000 1.0
C      1  0.4836010000000  0.5160510000000  0.4901370000000 1.0
C      1  0.5103690000000  0.4340160000000  0.3963230000000 1.0
C      1  0.4264150000000  0.5063060000000  0.4879890000000 1.0
C      1  0.4807230000000  0.4414660000000  0.4315760000000 1.0
C      1  0.5377000000000  0.4995470000000  0.6203060000000 1.0
C      1  0.4143430000000  0.5611270000000  0.4625050000000 1.0
C      1  0.5625760000000  0.5219330000000  0.4203530000000 1.0
C      1  0.4003030000000  0.4579980000000  0.5681990000000 1.0
C      1  0.4967050000000  0.5644200000000  0.4012360000000 1.0
C      1  0.4296360000000  0.5861990000000  0.4600050000000 1.0
C      1  0.4303030000000  0.4713520000000  0.4559170000000 1.0
C      1  0.4360030000000  0.4998140000000  0.5463060000000 1.0
C      1  0.5429460000000  0.3786780000000  0.4843800000000 1.0
C      1  0.5209900000000  0.4565340000000  0.4342020000000 1.0
C      1  0.3945830000000  0.5061120000000  0.5837980000000 1.0
C      1  0.5384240000000  0.5972470000000  0.5941740000000 1.0
C      1  0.4480930000000  0.5483430000000  0.4063700000000 1.0
C      1  0.3878420000000  0.4744020000000  0.5174080000000 1.0
C      1  0.4883540000000  0.4651040000000  0.3595980000000 1.0
C      1  0.5746360000000  0.4938850000000  0.4385740000000 1.0
C      1  0.5245970000000  0.5217750000000  0.4647310000000 1.0
C      1  0.5904170000000  0.3729340000000  0.4928050000000 1.0
C      1  0.4437060000000  0.4906640000000  0.4715190000000 1.0
C      1  0.4114250000000  0.4600100000000  0.5230740000000 1.0
C      1  0.5849170000000  0.4342050000000  0.4650760000000 1.0
C      1  0.5087030000000  0.4821950000000  0.4359450000000 1.0
C      1  0.6306340000000  0.3398590000000  0.4999720000000 1.0
C      1  0.4354100000000  0.4872010000000  0.3936700000000 1.0
C      1  0.4227770000000  0.5239080000000  0.5323020000000 1.0
C      1  0.4458930000000  0.6170000000000  0.5503250000000 1.0
C      1  0.5799480000000  0.4348530000000  0.5171890000000 1.0
C      1  0.4208220000000  0.5790190000000  0.5086810000000 1.0
C      1  0.5065480000000  0.5024620000000  0.5806860000000 1.0
C      1  0.4352290000000  0.4748950000000  0.5300250000000 1.0
C      1  0.4664450000000  0.4778230000000  0.6035710000000 1.0
C      1  0.4701310000000  0.3565260000000  0.5608850000000 1.0
C      1  0.5695210000000  0.5435710000000  0.4881040000000 1.0
C      1  0.4653880000000  0.5095100000000  0.4670110000000 1.0
C      1  0.4433010000000  0.5758080000000  0.4133420000000 1.0
C      1  0.4795280000000  0.4163370000000  0.4873590000000 1.0
C      1  0.5946930000000  0.4768340000000  0.5828030000000 1.0
C      1  0.4437210000000  0.3740590000000  0.5018060000000 1.0
C      1  0.6196990000000  0.5421870000000  0.5062450000000 1.0
C      1  0.4412700000000  0.5241590000000  0.5085200000000 1.0
C      1  0.4544150000000  0.5148490000000  0.5646410000000 1.0
C      1  0.3996320000000  0.5134570000000  0.4824640000000 1.0
C      1  0.4806760000000  0.6083610000000  0.4696050000000 1.0
C      1  0.4882860000000  0.3958970000000  0.5808430000000 1.0
C      1  0.4907820000000  0.3906200000000  0.5325820000000 1.0
C      1  0.4612300000000  0.6327290000000  0.5078990000000 1.0
C      1  0.5846930000000  0.5575350000000  0.4681270000000 1.0
C      1  0.4824900000000  0.4548870000000  0.5125090000000 1.0
C      1  0.4849250000000  0.4972740000000  0.5333250000000 1.0
C      1  0.3907870000000  0.5347300000000  0.4996700000000 1.0
C      1  0.4940360000000  0.5986500000000  0.5648800000000 1.0
C      1  0.5332670000000  0.5164200000000  0.5183000000000 1.0
C      1  0.4752170000000  0.4772130000000  0.5519980000000 1.0
C      1  0.4971440000000  0.4186160000000  0.4196060000000 1.0
C      1  0.4286690000000  0.5730760000000  0.5376460000000 1.0
C      1  0.6007420000000  0.4515810000000  0.5325380000000 1.0
C      1  0.5338870000000  0.5730220000000  0.5044110000000 1.0
C      1  0.6185420000000  0.4680040000000  0.5168840000000 1.0
END
