TITL C-627111-6168-1335 0.0573689299902798 125000 -255.575457406992 0 0 43 (C1) n - 1
REM
REM in /home/nfs/bkarasulu/CARBON/AIRSS/Generating-Clusters/LCBOP/Only-C1/SD-CG/FIRE-CG
REM
REM
REM
REM
REM
REM ./C.cell (11c1c37f851c82e70ff6c80c92926a4b)
REM AIRSS Version 0.9.1 bugfix July 2018 build 013d7b7c2542+ Fri, 06 Jul 2018 19:26:36 +0100
REM compiler GCC version 9.2.1 20190827 (Red Hat 9.2.1-1)
REM options -cpp -mtune=generic -march=x86-64 -g -O0 -fpre-include=/usr/include/finclude/math-vector-fortran.h
REM seed 1769714562 312871408 418087695 151852133 -1012352963 1254646804 1777989211 482766951 -905997888 -545708498 -1577524881 1704231882 497278485 -717257479 -429739592 436893641 -59439742 1555681641 -2092481024 1843564880 612761192 -476695407 -652580512 1990579808 657927014 -1587224635 -723110770 -1365141921 902144575 -1793067233 1025967995 828457331 -1119562943
REM
CELL 1.54180   50.00000   50.00000   50.00000   90.00000   90.00000   90.00000
LATT -1
SFAC C  
C      1  0.4138890000000  0.4375440000000  0.5221080000000 1.0
C      1  0.4682160000000  0.5640510000000  0.4675410000000 1.0
C      1  0.5125560000000  0.5534850000000  0.4499540000000 1.0
C      1  0.5733270000000  0.4559780000000  0.5173970000000 1.0
C      1  0.5346380000000  0.4309690000000  0.5015030000000 1.0
C      1  0.4823610000000  0.4342810000000  0.4523270000000 1.0
C      1  0.5430680000000  0.4944450000000  0.4696260000000 1.0
C      1  0.5466750000000  0.4915210000000  0.5364390000000 1.0
C      1  0.5207780000000  0.4889030000000  0.5463220000000 1.0
C      1  0.5319730000000  0.5748350000000  0.4551040000000 1.0
C      1  0.3945990000000  0.4486080000000  0.5377660000000 1.0
C      1  0.4830670000000  0.4825960000000  0.5728370000000 1.0
C      1  0.5424970000000  0.4755680000000  0.4488080000000 1.0
C      1  0.4406540000000  0.4472830000000  0.5192010000000 1.0
C      1  0.4971380000000  0.5653630000000  0.5091010000000 1.0
C      1  0.4983270000000  0.4788920000000  0.5299090000000 1.0
C      1  0.4009800000000  0.4700980000000  0.5531960000000 1.0
C      1  0.5435280000000  0.5992530000000  0.5007420000000 1.0
C      1  0.5203050000000  0.5554160000000  0.4948180000000 1.0
C      1  0.5370910000000  0.5776190000000  0.4835730000000 1.0
C      1  0.4655400000000  0.4333180000000  0.4730020000000 1.0
C      1  0.4744340000000  0.4748870000000  0.5461640000000 1.0
C      1  0.5253380000000  0.6023510000000  0.5224380000000 1.0
C      1  0.5641940000000  0.4827210000000  0.5161390000000 1.0
C      1  0.5135470000000  0.4470040000000  0.4977930000000 1.0
C      1  0.4710530000000  0.4959660000000  0.4729890000000 1.0
C      1  0.5044270000000  0.4422450000000  0.4396130000000 1.0
C      1  0.5185120000000  0.5080540000000  0.4748320000000 1.0
C      1  0.4851010000000  0.5598650000000  0.4466000000000 1.0
C      1  0.5168260000000  0.5357930000000  0.4735070000000 1.0
C      1  0.4265760000000  0.4792850000000  0.5529370000000 1.0
C      1  0.4553500000000  0.4388040000000  0.4970020000000 1.0
C      1  0.5620440000000  0.4940780000000  0.4903820000000 1.0
C      1  0.4966350000000  0.4918370000000  0.4832640000000 1.0
C      1  0.5268430000000  0.4566760000000  0.4381440000000 1.0
C      1  0.5037000000000  0.5864670000000  0.5268560000000 1.0
C      1  0.4484720000000  0.4675490000000  0.5386320000000 1.0
C      1  0.4729500000000  0.5647240000000  0.4942560000000 1.0
C      1  0.5650500000000  0.6154970000000  0.4969900000000 1.0
C      1  0.5015720000000  0.4719030000000  0.5029610000000 1.0
C      1  0.5094770000000  0.4908910000000  0.5727690000000 1.0
C      1  0.4468060000000  0.4996650000000  0.4641810000000 1.0
C      1  0.5598890000000  0.4337140000000  0.5102780000000 1.0
END
