TITL C-627109-622-1873 337789.920202646 125000 -961.702568592503 0 0 162 (C1) n - 1
REM
REM in /home/nfs/bkarasulu/CARBON/AIRSS/Generating-Clusters/LCBOP/Only-C1/SD-CG/FIRE-CG
REM
REM
REM
REM
REM
REM ./C.cell (11c1c37f851c82e70ff6c80c92926a4b)
REM AIRSS Version 0.9.1 bugfix July 2018 build 013d7b7c2542+ Fri, 06 Jul 2018 19:26:36 +0100
REM compiler GCC version 9.2.1 20190827 (Red Hat 9.2.1-1)
REM options -cpp -mtune=generic -march=x86-64 -g -O0 -fpre-include=/usr/include/finclude/math-vector-fortran.h
REM seed 1414751786 182433034 1807660672 113700615 1262810621 807225022 -1640106713 2117006722 1554894830 -526597141 2098440866 1742593788 -2018321722 1441461038 -410951516 -393125908 -1863116211 -1032012310 177720570 -2812340 -466152063 -359387138 1863712318 176362558 -366772617 352396829 -2090513937 131614291 245674015 1914861406 -2123803184 747725747 1494738689
REM
CELL 1.54180   50.00000   50.00000   50.00000   90.00000   90.00000   90.00000
LATT -1
SFAC C  
C      1  0.3930960000000  0.5106400000000  0.5296110000000 1.0
C      1  0.4558590000000  0.6189010000000  0.4836230000000 1.0
C      1  0.5384650000000  0.5858640000000  0.4965870000000 1.0
C      1  0.5941600000000  0.5249850000000  0.4295860000000 1.0
C      1  0.5573960000000  0.5558750000000  0.4716220000000 1.0
C      1  0.5147930000000  0.4424850000000  0.4105120000000 1.0
C      1  0.5038180000000  0.5492620000000  0.4047250000000 1.0
C      1  0.5670580000000  0.4573470000000  0.4148060000000 1.0
C      1  0.4485060000000  0.4431160000000  0.5481800000000 1.0
C      1  0.4834440000000  0.5907810000000  0.5597890000000 1.0
C      1  0.3931000000000  0.4880480000000  0.5486610000000 1.0
C      1  0.4125790000000  0.5438810000000  0.5921260000000 1.0
C      1  0.5886810000000  0.5618130000000  0.5720070000000 1.0
C      1  0.5449780000000  0.5696030000000  0.4482370000000 1.0
C      1  0.4778520000000  0.5019520000000  0.4236830000000 1.0
C      1  0.5254120000000  0.4817120000000  0.5639730000000 1.0
C      1  0.5650630000000  0.5341510000000  0.5198790000000 1.0
C      1  0.5177900000000  0.4885420000000  0.4436470000000 1.0
C      1  0.5274410000000  0.3793060000000  0.5279600000000 1.0
C      1  0.5089830000000  0.4184400000000  0.5098020000000 1.0
C      1  0.4347270000000  0.3946790000000  0.5177640000000 1.0
C      1  0.4450240000000  0.4865290000000  0.4291440000000 1.0
C      1  0.5783470000000  0.4501480000000  0.4410600000000 1.0
C      1  0.4277790000000  0.4270520000000  0.4361770000000 1.0
C      1  0.4552280000000  0.3901840000000  0.4574240000000 1.0
C      1  0.4188760000000  0.5438340000000  0.4732690000000 1.0
C      1  0.5177210000000  0.5386880000000  0.4318920000000 1.0
C      1  0.5081720000000  0.4650150000000  0.3931550000000 1.0
C      1  0.4622950000000  0.6080190000000  0.5467790000000 1.0
C      1  0.4490440000000  0.4875860000000  0.4800710000000 1.0
C      1  0.4236440000000  0.5572080000000  0.5377150000000 1.0
C      1  0.3984830000000  0.4609410000000  0.5437720000000 1.0
C      1  0.5719860000000  0.4232110000000  0.4494850000000 1.0
C      1  0.3954110000000  0.5563950000000  0.4792800000000 1.0
C      1  0.4542910000000  0.5912050000000  0.5251390000000 1.0
C      1  0.4739230000000  0.3888600000000  0.4770420000000 1.0
C      1  0.4663450000000  0.4326270000000  0.5257200000000 1.0
C      1  0.4588070000000  0.5050200000000  0.5757140000000 1.0
C      1  0.4658100000000  0.5097550000000  0.4884990000000 1.0
C      1  0.5057710000000  0.4728760000000  0.6329120000000 1.0
C      1  0.6011090000000  0.4563400000000  0.5558040000000 1.0
C      1  0.4465270000000  0.4949410000000  0.5541210000000 1.0
C      1  0.5820650000000  0.4297880000000  0.5185910000000 1.0
C      1  0.5078670000000  0.6039670000000  0.5484770000000 1.0
C      1  0.4762340000000  0.4284100000000  0.4413660000000 1.0
C      1  0.5192440000000  0.4651740000000  0.4894020000000 1.0
C      1  0.4343110000000  0.5991160000000  0.4828320000000 1.0
C      1  0.5333560000000  0.5165340000000  0.3887520000000 1.0
C      1  0.4744370000000  0.5624270000000  0.5588810000000 1.0
C      1  0.5445640000000  0.5515340000000  0.4254200000000 1.0
C      1  0.5164770000000  0.5666070000000  0.4977230000000 1.0
C      1  0.4841720000000  0.6149760000000  0.4778930000000 1.0
C      1  0.5007260000000  0.4933560000000  0.5261320000000 1.0
C      1  0.3884130000000  0.4982010000000  0.4770010000000 1.0
C      1  0.4753110000000  0.4477840000000  0.4650830000000 1.0
C      1  0.5578810000000  0.4397040000000  0.5564300000000 1.0
C      1  0.4520200000000  0.4128890000000  0.4407360000000 1.0
C      1  0.4172650000000  0.4789410000000  0.5909180000000 1.0
C      1  0.5570200000000  0.5140520000000  0.5364110000000 1.0
C      1  0.5976420000000  0.5706340000000  0.4563290000000 1.0
C      1  0.4044930000000  0.5347580000000  0.5433300000000 1.0
C      1  0.5408610000000  0.5542840000000  0.5926820000000 1.0
C      1  0.5673270000000  0.5477610000000  0.4962670000000 1.0
C      1  0.5352890000000  0.5189800000000  0.4927610000000 1.0
C      1  0.4973110000000  0.4396400000000  0.5287740000000 1.0
C      1  0.5640960000000  0.4844020000000  0.4035420000000 1.0
C      1  0.6084110000000  0.5545000000000  0.5557370000000 1.0
C      1  0.5557430000000  0.4631980000000  0.5384060000000 1.0
C      1  0.6332560000000  0.5381200000000  0.4544000000000 1.0
C      1  0.4747130000000  0.5758260000000  0.5130190000000 1.0
C      1  0.5027900000000  0.4237980000000  0.4297000000000 1.0
C      1  0.4915980000000  0.5450510000000  0.5416940000000 1.0
C      1  0.4950580000000  0.5451400000000  0.4513820000000 1.0
C      1  0.4892020000000  0.4916850000000  0.4500790000000 1.0
C      1  0.5197760000000  0.5878830000000  0.4496240000000 1.0
C      1  0.4785480000000  0.3835410000000  0.5394490000000 1.0
C      1  0.5909680000000  0.4927490000000  0.4908660000000 1.0
C      1  0.4151910000000  0.4074040000000  0.5043830000000 1.0
C      1  0.4674120000000  0.5502550000000  0.4367610000000 1.0
C      1  0.4296640000000  0.5838450000000  0.5152760000000 1.0
C      1  0.5629730000000  0.5956520000000  0.4879320000000 1.0
C      1  0.4139470000000  0.4503760000000  0.4369780000000 1.0
C      1  0.5245320000000  0.4730350000000  0.6140580000000 1.0
C      1  0.4902510000000  0.5959460000000  0.4550860000000 1.0
C      1  0.5859130000000  0.4319350000000  0.5481690000000 1.0
C      1  0.4933940000000  0.5315910000000  0.5981210000000 1.0
C      1  0.5065390000000  0.4885230000000  0.4985130000000 1.0
C      1  0.4203820000000  0.4453670000000  0.5448430000000 1.0
C      1  0.5357210000000  0.4875540000000  0.3909080000000 1.0
C      1  0.5488400000000  0.4097290000000  0.4614330000000 1.0
C      1  0.5696080000000  0.4929910000000  0.4717810000000 1.0
C      1  0.4913960000000  0.5029770000000  0.4787050000000 1.0
C      1  0.4383330000000  0.5876070000000  0.4566150000000 1.0
C      1  0.4087250000000  0.4322820000000  0.4966990000000 1.0
C      1  0.4452250000000  0.5593400000000  0.5601160000000 1.0
C      1  0.5850980000000  0.5893090000000  0.4723840000000 1.0
C      1  0.4670180000000  0.5007440000000  0.6235050000000 1.0
C      1  0.4434670000000  0.4954080000000  0.5262810000000 1.0
C      1  0.5170250000000  0.5437160000000  0.5977260000000 1.0
C      1  0.6198040000000  0.5390200000000  0.5373200000000 1.0
C      1  0.4015340000000  0.4971890000000  0.5751990000000 1.0
C      1  0.5522350000000  0.4029190000000  0.4899040000000 1.0
C      1  0.4908970000000  0.4039930000000  0.4914890000000 1.0
C      1  0.4632470000000  0.4398780000000  0.4937160000000 1.0
C      1  0.5036280000000  0.3737290000000  0.5397050000000 1.0
C      1  0.4746040000000  0.5175620000000  0.4020800000000 1.0
C      1  0.5640180000000  0.4524530000000  0.5135280000000 1.0
C      1  0.4743490000000  0.6328820000000  0.5383830000000 1.0
C      1  0.5780210000000  0.4080480000000  0.5013500000000 1.0
C      1  0.3857010000000  0.5061540000000  0.5027100000000 1.0
C      1  0.4622970000000  0.5148790000000  0.5159190000000 1.0
C      1  0.4696440000000  0.5601080000000  0.4895120000000 1.0
C      1  0.4381440000000  0.4611110000000  0.5915320000000 1.0
C      1  0.5319400000000  0.4009970000000  0.5102240000000 1.0
C      1  0.5748260000000  0.5121800000000  0.4125960000000 1.0
C      1  0.5048070000000  0.4512430000000  0.4705860000000 1.0
C      1  0.5008680000000  0.6248930000000  0.5280780000000 1.0
C      1  0.5353300000000  0.4294010000000  0.5702360000000 1.0
C      1  0.4800000000000  0.4682760000000  0.3897910000000 1.0
C      1  0.6557700000000  0.5284140000000  0.4632460000000 1.0
C      1  0.5480880000000  0.5122630000000  0.4695130000000 1.0
C      1  0.5089060000000  0.5288230000000  0.3859470000000 1.0
C      1  0.4630060000000  0.4740580000000  0.4564670000000 1.0
C      1  0.5447450000000  0.4562050000000  0.4945690000000 1.0
C      1  0.4817490000000  0.4835470000000  0.6378680000000 1.0
C      1  0.4337300000000  0.4792490000000  0.5031430000000 1.0
C      1  0.4438230000000  0.5504300000000  0.4846680000000 1.0
C      1  0.6103040000000  0.4723780000000  0.5338130000000 1.0
C      1  0.4337310000000  0.5595950000000  0.5862680000000 1.0
C      1  0.4641630000000  0.5801220000000  0.4451130000000 1.0
C      1  0.4718730000000  0.5136240000000  0.5989570000000 1.0
C      1  0.6195340000000  0.5176660000000  0.5213980000000 1.0
C      1  0.4205070000000  0.5242010000000  0.4530800000000 1.0
C      1  0.6072160000000  0.5450660000000  0.4460710000000 1.0
C      1  0.5305070000000  0.5133380000000  0.4465510000000 1.0
C      1  0.5668770000000  0.4769430000000  0.5904670000000 1.0
C      1  0.4836450000000  0.4372760000000  0.5823370000000 1.0
C      1  0.5650920000000  0.5611480000000  0.5842350000000 1.0
C      1  0.5007660000000  0.5644180000000  0.5220380000000 1.0
C      1  0.5016860000000  0.6228150000000  0.4994790000000 1.0
C      1  0.4864500000000  0.5184710000000  0.5316780000000 1.0
C      1  0.4567660000000  0.4704830000000  0.4013150000000 1.0
C      1  0.4964390000000  0.5552870000000  0.4777850000000 1.0
C      1  0.5634490000000  0.4695760000000  0.4573000000000 1.0
C      1  0.5236530000000  0.4098480000000  0.4462410000000 1.0
C      1  0.5051420000000  0.4703340000000  0.5437820000000 1.0
C      1  0.4030520000000  0.5260720000000  0.5726490000000 1.0
C      1  0.5904650000000  0.4694690000000  0.5791700000000 1.0
C      1  0.5474010000000  0.4890920000000  0.5456270000000 1.0
C      1  0.4752690000000  0.5453600000000  0.4086060000000 1.0
C      1  0.5354000000000  0.4667980000000  0.4457840000000 1.0
C      1  0.5539050000000  0.5314170000000  0.4048610000000 1.0
C      1  0.5095860000000  0.4297030000000  0.5791340000000 1.0
C      1  0.4600270000000  0.4016800000000  0.5283660000000 1.0
C      1  0.6076620000000  0.4931000000000  0.5142340000000 1.0
C      1  0.4053340000000  0.4996610000000  0.4542610000000 1.0
C      1  0.4175300000000  0.4786190000000  0.4380650000000 1.0
C      1  0.5391260000000  0.4509640000000  0.4213740000000 1.0
C      1  0.4158460000000  0.4580460000000  0.4986930000000 1.0
C      1  0.4434550000000  0.5236970000000  0.4390940000000 1.0
C      1  0.4576110000000  0.4468910000000  0.5754470000000 1.0
C      1  0.5379260000000  0.4781270000000  0.5901330000000 1.0
END
