TITL C-627107-135-1755 -222.519256034903 125000 -1039.24653497538 0 0 169 (C1) n - 1
REM
REM in /home/nfs/bkarasulu/CARBON/AIRSS/Generating-Clusters/LCBOP/Only-C1/SD-CG/FIRE-CG
REM
REM
REM
REM
REM
REM ./C.cell (11c1c37f851c82e70ff6c80c92926a4b)
REM AIRSS Version 0.9.1 bugfix July 2018 build 013d7b7c2542+ Fri, 06 Jul 2018 19:26:36 +0100
REM compiler GCC version 9.2.1 20190827 (Red Hat 9.2.1-1)
REM options -cpp -mtune=generic -march=x86-64 -g -O0 -fpre-include=/usr/include/finclude/math-vector-fortran.h
REM seed 188345045 151929 -1389379911 1264045094 1060209638 2127607191 919865223 464029502 -639871336 207397801 2017333210 169884231 -1567587294 -311446112 -1957181753 -1494459235 -1495270477 -1060396458 -42836815 -1587732741 -1272426838 -1082681478 -1770216852 1512796690 -250569357 143870758 -435435727 790170778 -451495667 170988908 68031455 385035098 -347178826
REM
CELL 1.54180   50.00000   50.00000   50.00000   90.00000   90.00000   90.00000
LATT -1
SFAC C  
C      1  0.5895640000000  0.4934310000000  0.5814020000000 1.0
C      1  0.3921240000000  0.4611870000000  0.4819420000000 1.0
C      1  0.4401730000000  0.4565220000000  0.4684730000000 1.0
C      1  0.5611220000000  0.4913610000000  0.5175090000000 1.0
C      1  0.4448210000000  0.4254040000000  0.5681380000000 1.0
C      1  0.4422250000000  0.5264030000000  0.4030580000000 1.0
C      1  0.4397280000000  0.5051860000000  0.4852190000000 1.0
C      1  0.4741390000000  0.4589070000000  0.5383210000000 1.0
C      1  0.5355570000000  0.5793330000000  0.5187530000000 1.0
C      1  0.4469280000000  0.4489140000000  0.5849750000000 1.0
C      1  0.5893840000000  0.4195380000000  0.5264200000000 1.0
C      1  0.5442210000000  0.5933700000000  0.4270490000000 1.0
C      1  0.5378230000000  0.3593320000000  0.4648820000000 1.0
C      1  0.4792850000000  0.4869860000000  0.4433080000000 1.0
C      1  0.5276430000000  0.5902100000000  0.5663180000000 1.0
C      1  0.5994800000000  0.5085230000000  0.4168450000000 1.0
C      1  0.4249740000000  0.4294070000000  0.5468640000000 1.0
C      1  0.5610460000000  0.5766800000000  0.5357440000000 1.0
C      1  0.5097140000000  0.4339890000000  0.4533820000000 1.0
C      1  0.5831640000000  0.5845590000000  0.5188580000000 1.0
C      1  0.3921600000000  0.5240830000000  0.4701690000000 1.0
C      1  0.4461800000000  0.4130250000000  0.4257730000000 1.0
C      1  0.5230770000000  0.4440500000000  0.5939370000000 1.0
C      1  0.4131110000000  0.4566110000000  0.5503390000000 1.0
C      1  0.5870290000000  0.4478840000000  0.5973470000000 1.0
C      1  0.4850760000000  0.5676340000000  0.3989740000000 1.0
C      1  0.5205990000000  0.5172050000000  0.5275360000000 1.0
C      1  0.5772130000000  0.4421890000000  0.5142090000000 1.0
C      1  0.4766820000000  0.4943230000000  0.4142640000000 1.0
C      1  0.4773880000000  0.4294340000000  0.3973420000000 1.0
C      1  0.5334450000000  0.5287000000000  0.5034540000000 1.0
C      1  0.4254090000000  0.5876040000000  0.4922840000000 1.0
C      1  0.5376670000000  0.5168900000000  0.5532990000000 1.0
C      1  0.4407420000000  0.4948820000000  0.5096640000000 1.0
C      1  0.5133910000000  0.5294690000000  0.4115390000000 1.0
C      1  0.4043320000000  0.5086260000000  0.4497590000000 1.0
C      1  0.5576530000000  0.3627410000000  0.4824160000000 1.0
C      1  0.3823430000000  0.4606500000000  0.4550740000000 1.0
C      1  0.6196010000000  0.4630060000000  0.4677000000000 1.0
C      1  0.4284370000000  0.4695360000000  0.5746240000000 1.0
C      1  0.4986310000000  0.5440630000000  0.5734800000000 1.0
C      1  0.4230380000000  0.4217390000000  0.4966660000000 1.0
C      1  0.4792120000000  0.4477030000000  0.4927840000000 1.0
C      1  0.5286280000000  0.5573300000000  0.4986200000000 1.0
C      1  0.5307410000000  0.4925230000000  0.5704480000000 1.0
C      1  0.4952880000000  0.4364450000000  0.5937530000000 1.0
C      1  0.5261160000000  0.5351620000000  0.6236010000000 1.0
C      1  0.4918360000000  0.3939480000000  0.4885790000000 1.0
C      1  0.5553130000000  0.5792630000000  0.5641190000000 1.0
C      1  0.5183590000000  0.5969850000000  0.4169200000000 1.0
C      1  0.4299720000000  0.5236540000000  0.5693410000000 1.0
C      1  0.4220230000000  0.4956130000000  0.5299070000000 1.0
C      1  0.5585830000000  0.4566690000000  0.5587080000000 1.0
C      1  0.4826000000000  0.5268490000000  0.5586850000000 1.0
C      1  0.5366460000000  0.4398090000000  0.5683070000000 1.0
C      1  0.5166410000000  0.4231970000000  0.5529190000000 1.0
C      1  0.4690120000000  0.5183230000000  0.4003510000000 1.0
C      1  0.4723920000000  0.5845820000000  0.4208240000000 1.0
C      1  0.5391970000000  0.5375820000000  0.5992640000000 1.0
C      1  0.4368920000000  0.5527830000000  0.5632550000000 1.0
C      1  0.5678320000000  0.4874590000000  0.3863860000000 1.0
C      1  0.4321330000000  0.4975600000000  0.5820630000000 1.0
C      1  0.4675300000000  0.4079960000000  0.5649600000000 1.0
C      1  0.5925440000000  0.5193210000000  0.5414640000000 1.0
C      1  0.5790590000000  0.4848810000000  0.4585580000000 1.0
C      1  0.5362800000000  0.4756410000000  0.4209830000000 1.0
C      1  0.5943170000000  0.4292350000000  0.6146930000000 1.0
C      1  0.6092980000000  0.4222890000000  0.5449080000000 1.0
C      1  0.4946870000000  0.5163420000000  0.4567330000000 1.0
C      1  0.4645630000000  0.3945160000000  0.4975470000000 1.0
C      1  0.5812130000000  0.5153390000000  0.5978500000000 1.0
C      1  0.5030710000000  0.5900720000000  0.4638110000000 1.0
C      1  0.4841970000000  0.4992600000000  0.5646980000000 1.0
C      1  0.4750800000000  0.5383980000000  0.5050100000000 1.0
C      1  0.4632550000000  0.3869560000000  0.5469300000000 1.0
C      1  0.4190770000000  0.4864380000000  0.4396970000000 1.0
C      1  0.4334170000000  0.5674710000000  0.5110780000000 1.0
C      1  0.5580890000000  0.4612490000000  0.5278110000000 1.0
C      1  0.5056290000000  0.4907880000000  0.5813160000000 1.0
C      1  0.5645760000000  0.5536360000000  0.4127690000000 1.0
C      1  0.5123330000000  0.4288500000000  0.5235640000000 1.0
C      1  0.6045660000000  0.5403240000000  0.5274790000000 1.0
C      1  0.5652450000000  0.5114240000000  0.5389880000000 1.0
C      1  0.4524570000000  0.4382730000000  0.3887310000000 1.0
C      1  0.4396680000000  0.5316570000000  0.4768910000000 1.0
C      1  0.5673580000000  0.5402050000000  0.5966250000000 1.0
C      1  0.5076300000000  0.6184990000000  0.5281200000000 1.0
C      1  0.5043000000000  0.4940740000000  0.5229420000000 1.0
C      1  0.4481500000000  0.4128360000000  0.4825930000000 1.0
C      1  0.5263940000000  0.5378010000000  0.5735990000000 1.0
C      1  0.4836320000000  0.4403020000000  0.5198620000000 1.0
C      1  0.4775620000000  0.6552060000000  0.5531240000000 1.0
C      1  0.4236530000000  0.5869520000000  0.4435880000000 1.0
C      1  0.5306670000000  0.5523360000000  0.4503860000000 1.0
C      1  0.5043380000000  0.4651810000000  0.4554920000000 1.0
C      1  0.6008770000000  0.4969040000000  0.4421060000000 1.0
C      1  0.4927380000000  0.6379400000000  0.5408530000000 1.0
C      1  0.4780270000000  0.5353890000000  0.5324100000000 1.0
C      1  0.3958060000000  0.5532310000000  0.4690260000000 1.0
C      1  0.4148220000000  0.5170360000000  0.5457130000000 1.0
C      1  0.4007900000000  0.4646150000000  0.4333760000000 1.0
C      1  0.4119820000000  0.5775170000000  0.4681460000000 1.0
C      1  0.4600420000000  0.4378750000000  0.4756470000000 1.0
C      1  0.5165930000000  0.6185360000000  0.5004800000000 1.0
C      1  0.4960750000000  0.3883100000000  0.4599810000000 1.0
C      1  0.5297840000000  0.4541440000000  0.5178780000000 1.0
C      1  0.4277490000000  0.4126090000000  0.5237250000000 1.0
C      1  0.6035460000000  0.5654860000000  0.5180920000000 1.0
C      1  0.4933820000000  0.4182520000000  0.5704730000000 1.0
C      1  0.5822900000000  0.5110390000000  0.3949800000000 1.0
C      1  0.5179490000000  0.5941910000000  0.5392430000000 1.0
C      1  0.4709510000000  0.4496040000000  0.6001290000000 1.0
C      1  0.6253520000000  0.4842280000000  0.4510950000000 1.0
C      1  0.4496040000000  0.5482310000000  0.4978930000000 1.0
C      1  0.4223340000000  0.5600430000000  0.5367000000000 1.0
C      1  0.5088610000000  0.5837370000000  0.3930500000000 1.0
C      1  0.4577810000000  0.5679490000000  0.5760980000000 1.0
C      1  0.4433260000000  0.6094960000000  0.4900180000000 1.0
C      1  0.3813950000000  0.5303950000000  0.5163180000000 1.0
C      1  0.4979450000000  0.4667160000000  0.4842770000000 1.0
C      1  0.5769740000000  0.5702300000000  0.4569640000000 1.0
C      1  0.5611960000000  0.5309910000000  0.3973970000000 1.0
C      1  0.6013320000000  0.4105110000000  0.6314190000000 1.0
C      1  0.3841430000000  0.5107440000000  0.4953340000000 1.0
C      1  0.3880840000000  0.4809890000000  0.5028980000000 1.0
C      1  0.4090180000000  0.4452940000000  0.4148670000000 1.0
C      1  0.4454530000000  0.5900300000000  0.4277400000000 1.0
C      1  0.5143680000000  0.4748920000000  0.5052410000000 1.0
C      1  0.5816370000000  0.3940670000000  0.5171960000000 1.0
C      1  0.5717550000000  0.6040610000000  0.5005800000000 1.0
C      1  0.4962310000000  0.6107300000000  0.4820880000000 1.0
C      1  0.5761610000000  0.4427220000000  0.4857870000000 1.0
C      1  0.5194780000000  0.5670660000000  0.4724350000000 1.0
C      1  0.4325070000000  0.5358330000000  0.4263260000000 1.0
C      1  0.4449110000000  0.4774030000000  0.4501900000000 1.0
C      1  0.5780630000000  0.4668350000000  0.5784760000000 1.0
C      1  0.5137480000000  0.4113620000000  0.4979840000000 1.0
C      1  0.4961550000000  0.5945060000000  0.4360420000000 1.0
C      1  0.4840750000000  0.4846350000000  0.5409220000000 1.0
C      1  0.5518110000000  0.4912220000000  0.4661750000000 1.0
C      1  0.4502500000000  0.3926890000000  0.5227930000000 1.0
C      1  0.5913190000000  0.4613950000000  0.4719080000000 1.0
C      1  0.4889570000000  0.5388850000000  0.3997480000000 1.0
C      1  0.5545500000000  0.5668560000000  0.4371970000000 1.0
C      1  0.5275550000000  0.4241960000000  0.4750610000000 1.0
C      1  0.5123040000000  0.5324850000000  0.6455350000000 1.0
C      1  0.5495640000000  0.5047830000000  0.4924630000000 1.0
C      1  0.5059600000000  0.5884160000000  0.5847340000000 1.0
C      1  0.4014860000000  0.5391270000000  0.5338610000000 1.0
C      1  0.4753240000000  0.4148830000000  0.4224540000000 1.0
C      1  0.5141390000000  0.5309640000000  0.4402710000000 1.0
C      1  0.5718360000000  0.3750350000000  0.5013410000000 1.0
C      1  0.5427590000000  0.6045870000000  0.4999960000000 1.0
C      1  0.4940580000000  0.4119850000000  0.4429630000000 1.0
C      1  0.6058100000000  0.5028050000000  0.5600260000000 1.0
C      1  0.5310780000000  0.4784890000000  0.4487960000000 1.0
C      1  0.4861000000000  0.5682860000000  0.5813500000000 1.0
C      1  0.4688830000000  0.6166770000000  0.4860010000000 1.0
C      1  0.5351470000000  0.5179330000000  0.3979280000000 1.0
C      1  0.4166370000000  0.4469120000000  0.4838840000000 1.0
C      1  0.5144360000000  0.3676150000000  0.4547600000000 1.0
C      1  0.4454250000000  0.5403330000000  0.4509220000000 1.0
C      1  0.4689350000000  0.5539230000000  0.4499370000000 1.0
C      1  0.5550860000000  0.4286220000000  0.4740020000000 1.0
C      1  0.4315170000000  0.4306730000000  0.4074750000000 1.0
C      1  0.4885840000000  0.5247580000000  0.4833170000000 1.0
C      1  0.4027910000000  0.4742650000000  0.5288390000000 1.0
C      1  0.5717970000000  0.5649130000000  0.5826230000000 1.0
C      1  0.5410440000000  0.4891460000000  0.3971090000000 1.0
END
