TITL C-627107-135-1891 24.2671375154457 125000 -1091.53118052926 0 0 176 (C1) n - 1
REM
REM in /home/nfs/bkarasulu/CARBON/AIRSS/Generating-Clusters/LCBOP/Only-C1/SD-CG/FIRE-CG
REM
REM
REM
REM
REM
REM ./C.cell (11c1c37f851c82e70ff6c80c92926a4b)
REM AIRSS Version 0.9.1 bugfix July 2018 build 013d7b7c2542+ Fri, 06 Jul 2018 19:26:36 +0100
REM compiler GCC version 9.2.1 20190827 (Red Hat 9.2.1-1)
REM options -cpp -mtune=generic -march=x86-64 -g -O0 -fpre-include=/usr/include/finclude/math-vector-fortran.h
REM seed -1874665432 -394351420 -641612072 -1557530910 -1600958495 -636154111 530558895 1908146412 852545296 -628417711 50338995 -663551566 91566795 -2141955003 -1854501982 -1265102908 -1910800579 -307683642 -1658783836 -717728264 -1390989057 438901771 -1381859127 2135018069 -1422843187 1582750872 822134122 643866880 579502420 666710195 1000622839 -2104802777 -1427850187
REM
CELL 1.54180   50.00000   50.00000   50.00000   90.00000   90.00000   90.00000
LATT -1
SFAC C  
C      1  0.5881910000000  0.3439570000000  0.4590540000000 1.0
C      1  0.5743430000000  0.4531210000000  0.4511660000000 1.0
C      1  0.4511910000000  0.5363910000000  0.5187890000000 1.0
C      1  0.5330680000000  0.5306040000000  0.5054560000000 1.0
C      1  0.4572700000000  0.5274380000000  0.5673530000000 1.0
C      1  0.5970840000000  0.4925750000000  0.5481100000000 1.0
C      1  0.5288560000000  0.3318530000000  0.4667500000000 1.0
C      1  0.4652420000000  0.5248280000000  0.5401740000000 1.0
C      1  0.5485920000000  0.4014710000000  0.4869980000000 1.0
C      1  0.4469390000000  0.6089230000000  0.5074110000000 1.0
C      1  0.5990540000000  0.5127880000000  0.5698040000000 1.0
C      1  0.3925740000000  0.4599710000000  0.5408040000000 1.0
C      1  0.4773950000000  0.3861340000000  0.5039660000000 1.0
C      1  0.5742010000000  0.5051710000000  0.4421640000000 1.0
C      1  0.4778280000000  0.5193330000000  0.4152590000000 1.0
C      1  0.5060840000000  0.5323360000000  0.6153290000000 1.0
C      1  0.4547710000000  0.5875890000000  0.4350730000000 1.0
C      1  0.4568900000000  0.5191090000000  0.3297060000000 1.0
C      1  0.4854030000000  0.5487430000000  0.3650810000000 1.0
C      1  0.4301760000000  0.5196100000000  0.5090380000000 1.0
C      1  0.5310920000000  0.5481940000000  0.6181010000000 1.0
C      1  0.5359870000000  0.5637070000000  0.3718140000000 1.0
C      1  0.4884240000000  0.4882000000000  0.4750790000000 1.0
C      1  0.4917110000000  0.4524150000000  0.5675200000000 1.0
C      1  0.4729640000000  0.5597000000000  0.3881580000000 1.0
C      1  0.4764550000000  0.4265100000000  0.4059910000000 1.0
C      1  0.5331800000000  0.4912250000000  0.6208060000000 1.0
C      1  0.4077900000000  0.5557430000000  0.4619350000000 1.0
C      1  0.4503020000000  0.5565710000000  0.4359230000000 1.0
C      1  0.4580090000000  0.5632010000000  0.5102420000000 1.0
C      1  0.6139050000000  0.4816070000000  0.4553640000000 1.0
C      1  0.5533820000000  0.4288600000000  0.4952880000000 1.0
C      1  0.4496500000000  0.3926940000000  0.5024980000000 1.0
C      1  0.4944870000000  0.5766120000000  0.6158580000000 1.0
C      1  0.6269640000000  0.4972080000000  0.4728500000000 1.0
C      1  0.4042330000000  0.5629380000000  0.5104720000000 1.0
C      1  0.4446440000000  0.6054170000000  0.4543650000000 1.0
C      1  0.3931030000000  0.5584360000000  0.5365420000000 1.0
C      1  0.3812000000000  0.5350340000000  0.5477650000000 1.0
C      1  0.4249120000000  0.5426150000000  0.4438530000000 1.0
C      1  0.5051760000000  0.5861770000000  0.5113460000000 1.0
C      1  0.6062510000000  0.3271980000000  0.4493110000000 1.0
C      1  0.4672310000000  0.5448790000000  0.5867170000000 1.0
C      1  0.4949800000000  0.5143590000000  0.4826560000000 1.0
C      1  0.3966180000000  0.5491220000000  0.4869880000000 1.0
C      1  0.4835280000000  0.5745870000000  0.4970390000000 1.0
C      1  0.5831440000000  0.5766500000000  0.4731270000000 1.0
C      1  0.4125100000000  0.4528190000000  0.4741400000000 1.0
C      1  0.4907990000000  0.4051380000000  0.5212540000000 1.0
C      1  0.5752460000000  0.4684070000000  0.5991670000000 1.0
C      1  0.4824520000000  0.5894980000000  0.4245240000000 1.0
C      1  0.4736790000000  0.5306070000000  0.4779260000000 1.0
C      1  0.5509920000000  0.4207030000000  0.4179680000000 1.0
C      1  0.5689380000000  0.3610470000000  0.4690280000000 1.0
C      1  0.5196600000000  0.4561530000000  0.4194650000000 1.0
C      1  0.5302340000000  0.4618760000000  0.6200150000000 1.0
C      1  0.3541340000000  0.4928730000000  0.5386180000000 1.0
C      1  0.5242610000000  0.4282630000000  0.4146680000000 1.0
C      1  0.4146130000000  0.5101560000000  0.5807080000000 1.0
C      1  0.5011870000000  0.5745070000000  0.4417050000000 1.0
C      1  0.4757380000000  0.6071410000000  0.5513080000000 1.0
C      1  0.5219500000000  0.4378900000000  0.6090890000000 1.0
C      1  0.5574330000000  0.5081040000000  0.6159140000000 1.0
C      1  0.5794310000000  0.5781730000000  0.5027400000000 1.0
C      1  0.5535930000000  0.5355890000000  0.6059040000000 1.0
C      1  0.5131150000000  0.5533610000000  0.3628120000000 1.0
C      1  0.5319590000000  0.5193770000000  0.5304600000000 1.0
C      1  0.5466800000000  0.4889220000000  0.5638630000000 1.0
C      1  0.5017050000000  0.5995070000000  0.5612530000000 1.0
C      1  0.4526570000000  0.5951160000000  0.5629180000000 1.0
C      1  0.5807260000000  0.4454000000000  0.5337710000000 1.0
C      1  0.4810320000000  0.4747490000000  0.5817570000000 1.0
C      1  0.5228190000000  0.5141020000000  0.4858930000000 1.0
C      1  0.4934900000000  0.4293670000000  0.5044960000000 1.0
C      1  0.5554650000000  0.4360290000000  0.5235300000000 1.0
C      1  0.5176720000000  0.5501370000000  0.4325160000000 1.0
C      1  0.5274700000000  0.3790920000000  0.4839120000000 1.0
C      1  0.4034220000000  0.4341150000000  0.5444110000000 1.0
C      1  0.4844310000000  0.5506340000000  0.6077700000000 1.0
C      1  0.4310440000000  0.5855730000000  0.5475730000000 1.0
C      1  0.4523960000000  0.4420430000000  0.4496470000000 1.0
C      1  0.5964700000000  0.5564680000000  0.5134040000000 1.0
C      1  0.3856260000000  0.4976670000000  0.4744460000000 1.0
C      1  0.5342210000000  0.4368340000000  0.5430030000000 1.0
C      1  0.4677140000000  0.6186720000000  0.5256230000000 1.0
C      1  0.3659640000000  0.4689420000000  0.5422160000000 1.0
C      1  0.5952590000000  0.5516530000000  0.5411220000000 1.0
C      1  0.5334010000000  0.4892180000000  0.4763780000000 1.0
C      1  0.4524880000000  0.4646670000000  0.5477920000000 1.0
C      1  0.4697860000000  0.4747970000000  0.5234450000000 1.0
C      1  0.6222510000000  0.5189510000000  0.4877590000000 1.0
C      1  0.5264760000000  0.5861560000000  0.5545010000000 1.0
C      1  0.4484990000000  0.4730190000000  0.4108390000000 1.0
C      1  0.4508690000000  0.4354030000000  0.5521270000000 1.0
C      1  0.5183470000000  0.4188830000000  0.5871220000000 1.0
C      1  0.5785270000000  0.5010270000000  0.5275220000000 1.0
C      1  0.5705240000000  0.4331700000000  0.4317460000000 1.0
C      1  0.5544520000000  0.5063630000000  0.5413050000000 1.0
C      1  0.4972340000000  0.3962830000000  0.5474280000000 1.0
C      1  0.4676100000000  0.5510130000000  0.4607510000000 1.0
C      1  0.5091960000000  0.5046040000000  0.6118560000000 1.0
C      1  0.4222270000000  0.4699620000000  0.4257470000000 1.0
C      1  0.5387650000000  0.5613070000000  0.4700140000000 1.0
C      1  0.5654630000000  0.5899260000000  0.4070670000000 1.0
C      1  0.5806420000000  0.5957300000000  0.4530330000000 1.0
C      1  0.5522510000000  0.5768030000000  0.5121000000000 1.0
C      1  0.5410350000000  0.3554510000000  0.4727360000000 1.0
C      1  0.5729750000000  0.3878980000000  0.4776130000000 1.0
C      1  0.4962560000000  0.4234460000000  0.4762850000000 1.0
C      1  0.4257840000000  0.4519360000000  0.4484930000000 1.0
C      1  0.5813270000000  0.4937770000000  0.6101170000000 1.0
C      1  0.4057550000000  0.5758540000000  0.5553880000000 1.0
C      1  0.4504320000000  0.4994640000000  0.4500270000000 1.0
C      1  0.4177020000000  0.4300740000000  0.4908980000000 1.0
C      1  0.5870330000000  0.4793210000000  0.4464440000000 1.0
C      1  0.6036060000000  0.5063880000000  0.5973830000000 1.0
C      1  0.4546070000000  0.4805610000000  0.5722370000000 1.0
C      1  0.5795720000000  0.6330130000000  0.4228520000000 1.0
C      1  0.5189300000000  0.4956170000000  0.5667360000000 1.0
C      1  0.5870760000000  0.4650330000000  0.5532020000000 1.0
C      1  0.6239690000000  0.3106560000000  0.4397160000000 1.0
C      1  0.3831840000000  0.5236160000000  0.4863600000000 1.0
C      1  0.5299220000000  0.5870380000000  0.5261270000000 1.0
C      1  0.4826090000000  0.5850720000000  0.3967220000000 1.0
C      1  0.5624530000000  0.5479170000000  0.5802390000000 1.0
C      1  0.5090360000000  0.4515480000000  0.5435760000000 1.0
C      1  0.4261620000000  0.5140110000000  0.4430810000000 1.0
C      1  0.6270250000000  0.5117840000000  0.6102180000000 1.0
C      1  0.5409910000000  0.5554700000000  0.4968160000000 1.0
C      1  0.4317750000000  0.4140090000000  0.5101150000000 1.0
C      1  0.5046080000000  0.5269490000000  0.4216400000000 1.0
C      1  0.4107660000000  0.4794320000000  0.5313040000000 1.0
C      1  0.5005800000000  0.4933230000000  0.5878000000000 1.0
C      1  0.4711400000000  0.5342500000000  0.3461250000000 1.0
C      1  0.4606820000000  0.4857110000000  0.4735140000000 1.0
C      1  0.3831050000000  0.4949170000000  0.4461340000000 1.0
C      1  0.4427820000000  0.5039800000000  0.3138410000000 1.0
C      1  0.3943140000000  0.5240190000000  0.5703720000000 1.0
C      1  0.4937640000000  0.4083430000000  0.5733860000000 1.0
C      1  0.4292140000000  0.4234250000000  0.5376420000000 1.0
C      1  0.4870250000000  0.5713670000000  0.4678550000000 1.0
C      1  0.4633880000000  0.4958050000000  0.4231170000000 1.0
C      1  0.5879860000000  0.5478560000000  0.4666540000000 1.0
C      1  0.5531460000000  0.5765840000000  0.3876050000000 1.0
C      1  0.4416720000000  0.5051440000000  0.5762600000000 1.0
C      1  0.4507380000000  0.4791850000000  0.4996750000000 1.0
C      1  0.5659750000000  0.4692870000000  0.5726460000000 1.0
C      1  0.5215570000000  0.5751500000000  0.6216830000000 1.0
C      1  0.6032900000000  0.5392530000000  0.4905680000000 1.0
C      1  0.4076870000000  0.4946060000000  0.4320650000000 1.0
C      1  0.4352580000000  0.5824160000000  0.5174580000000 1.0
C      1  0.4826360000000  0.5031330000000  0.5336460000000 1.0
C      1  0.4963370000000  0.4123140000000  0.4510140000000 1.0
C      1  0.4234060000000  0.4900670000000  0.5067040000000 1.0
C      1  0.4437600000000  0.6141140000000  0.4797870000000 1.0
C      1  0.4993310000000  0.3753570000000  0.4889090000000 1.0
C      1  0.5446650000000  0.5688850000000  0.5692660000000 1.0
C      1  0.3601420000000  0.5191140000000  0.5380000000000 1.0
C      1  0.5033480000000  0.4621320000000  0.4413300000000 1.0
C      1  0.5432920000000  0.5467380000000  0.4461770000000 1.0
C      1  0.4623750000000  0.5435950000000  0.4100320000000 1.0
C      1  0.4614120000000  0.4490370000000  0.4006460000000 1.0
C      1  0.5089320000000  0.5073700000000  0.5422650000000 1.0
C      1  0.5615230000000  0.4504430000000  0.4770790000000 1.0
C      1  0.4046940000000  0.4788930000000  0.4851750000000 1.0
C      1  0.4771320000000  0.4512260000000  0.4442890000000 1.0
C      1  0.5861800000000  0.5387720000000  0.5648610000000 1.0
C      1  0.4739990000000  0.4288880000000  0.5687220000000 1.0
C      1  0.5561440000000  0.4768830000000  0.4866510000000 1.0
C      1  0.5385770000000  0.4216830000000  0.5668790000000 1.0
C      1  0.5112390000000  0.4758960000000  0.4637780000000 1.0
C      1  0.5693050000000  0.5329560000000  0.4486610000000 1.0
C      1  0.5752710000000  0.6064040000000  0.4276240000000 1.0
C      1  0.5751550000000  0.4904070000000  0.5021080000000 1.0
C      1  0.4987540000000  0.4160810000000  0.4220500000000 1.0
C      1  0.4928250000000  0.4538620000000  0.5194640000000 1.0
END
