TITL C-627113-6568-364 0.00329826098436198 125000 -759.601185541517 0 0 126 (C1) n - 1
REM
REM in /home/nfs/bkarasulu/CARBON/AIRSS/Generating-Clusters/LCBOP/Only-C1/SD-CG/FIRE-CG
REM
REM
REM
REM
REM
REM ./C.cell (11c1c37f851c82e70ff6c80c92926a4b)
REM AIRSS Version 0.9.1 bugfix July 2018 build 013d7b7c2542+ Fri, 06 Jul 2018 19:26:36 +0100
REM compiler GCC version 9.2.1 20190827 (Red Hat 9.2.1-1)
REM options -cpp -mtune=generic -march=x86-64 -g -O0 -fpre-include=/usr/include/finclude/math-vector-fortran.h
REM seed -599215463 1763160479 1059162152 -173075844 882826581 -744707754 -1370119354 27658531 317230105 265679050 -292262645 -1544320715 -1400210906 -412882654 2050248494 123055413 1356398042 2043727915 1314537914 -2117023621 1114600403 -1757134968 1353037943 -1100555120 -449865999 1782467545 -483438889 -529955659 1866937669 -841437757 1493530602 -2097353251 -1212006930
REM
CELL 1.54180   50.00000   50.00000   50.00000   90.00000   90.00000   90.00000
LATT -1
SFAC C  
C      1  0.4081110000000  0.4572140000000  0.4885860000000 1.0
C      1  0.5036700000000  0.5128800000000  0.5622210000000 1.0
C      1  0.3847480000000  0.4512540000000  0.4745050000000 1.0
C      1  0.5086280000000  0.4178260000000  0.4502530000000 1.0
C      1  0.5913130000000  0.4940910000000  0.5736820000000 1.0
C      1  0.5752010000000  0.5172710000000  0.5732480000000 1.0
C      1  0.4449700000000  0.4406260000000  0.5646190000000 1.0
C      1  0.5297370000000  0.5914750000000  0.4732130000000 1.0
C      1  0.4588590000000  0.4452000000000  0.5399740000000 1.0
C      1  0.4436520000000  0.5552450000000  0.5762700000000 1.0
C      1  0.5694990000000  0.4564520000000  0.5485850000000 1.0
C      1  0.5100930000000  0.5465650000000  0.4410780000000 1.0
C      1  0.5601690000000  0.4979910000000  0.5249380000000 1.0
C      1  0.5378980000000  0.5001860000000  0.3844810000000 1.0
C      1  0.4663130000000  0.5203640000000  0.4559820000000 1.0
C      1  0.4961430000000  0.5619360000000  0.4217030000000 1.0
C      1  0.5790520000000  0.4314110000000  0.5428440000000 1.0
C      1  0.4647540000000  0.4918290000000  0.4588890000000 1.0
C      1  0.5014090000000  0.5125340000000  0.5078700000000 1.0
C      1  0.5325270000000  0.5711770000000  0.4924350000000 1.0
C      1  0.5629370000000  0.4419720000000  0.4124870000000 1.0
C      1  0.3969790000000  0.5423490000000  0.4746910000000 1.0
C      1  0.5147080000000  0.4135230000000  0.5414980000000 1.0
C      1  0.5945180000000  0.3995470000000  0.4150750000000 1.0
C      1  0.5449190000000  0.4632370000000  0.4152270000000 1.0
C      1  0.4231700000000  0.4884050000000  0.5671260000000 1.0
C      1  0.5791910000000  0.4210680000000  0.4129780000000 1.0
C      1  0.5671750000000  0.4608590000000  0.5981970000000 1.0
C      1  0.5037460000000  0.5334470000000  0.4880680000000 1.0
C      1  0.5422100000000  0.5162140000000  0.5373430000000 1.0
C      1  0.5561740000000  0.4434830000000  0.4863770000000 1.0
C      1  0.4822320000000  0.5000340000000  0.5743450000000 1.0
C      1  0.4500650000000  0.5490600000000  0.4988900000000 1.0
C      1  0.4460620000000  0.4376640000000  0.5164860000000 1.0
C      1  0.5493200000000  0.5232060000000  0.5645210000000 1.0
C      1  0.4701420000000  0.4454610000000  0.3927160000000 1.0
C      1  0.4866770000000  0.4492310000000  0.4795820000000 1.0
C      1  0.5833950000000  0.5093830000000  0.5115890000000 1.0
C      1  0.5333190000000  0.5820690000000  0.5961090000000 1.0
C      1  0.5126880000000  0.5143790000000  0.5342620000000 1.0
C      1  0.5599950000000  0.4693450000000  0.4776230000000 1.0
C      1  0.4913300000000  0.3763230000000  0.5279810000000 1.0
C      1  0.4545990000000  0.4166570000000  0.5766630000000 1.0
C      1  0.5771990000000  0.4691280000000  0.5731720000000 1.0
C      1  0.5744010000000  0.5016710000000  0.4156630000000 1.0
C      1  0.4158670000000  0.5317260000000  0.4534200000000 1.0
C      1  0.4311980000000  0.5037050000000  0.5006750000000 1.0
C      1  0.5193390000000  0.4901930000000  0.4675200000000 1.0
C      1  0.6094020000000  0.3782720000000  0.4174160000000 1.0
C      1  0.3654190000000  0.4622430000000  0.4596860000000 1.0
C      1  0.5074140000000  0.4328070000000  0.4261940000000 1.0
C      1  0.4654480000000  0.4968870000000  0.3808110000000 1.0
C      1  0.5822910000000  0.5525320000000  0.4777340000000 1.0
C      1  0.4612730000000  0.4693690000000  0.3847860000000 1.0
C      1  0.5009740000000  0.3894370000000  0.5044610000000 1.0
C      1  0.4704070000000  0.4900870000000  0.5954120000000 1.0
C      1  0.5367630000000  0.4927980000000  0.6217900000000 1.0
C      1  0.4858750000000  0.4511700000000  0.5435980000000 1.0
C      1  0.5203250000000  0.4464450000000  0.5770880000000 1.0
C      1  0.5229530000000  0.4084600000000  0.5123440000000 1.0
C      1  0.5394900000000  0.5506710000000  0.4429420000000 1.0
C      1  0.4874700000000  0.4304980000000  0.4065730000000 1.0
C      1  0.5946240000000  0.5800520000000  0.5210620000000 1.0
C      1  0.5323560000000  0.4092730000000  0.4633980000000 1.0
C      1  0.4745860000000  0.3994060000000  0.5698090000000 1.0
C      1  0.4277620000000  0.5148650000000  0.5590100000000 1.0
C      1  0.4813360000000  0.4690770000000  0.4581100000000 1.0
C      1  0.4782790000000  0.5819940000000  0.4234110000000 1.0
C      1  0.5074390000000  0.4756860000000  0.4464330000000 1.0
C      1  0.6184880000000  0.4952010000000  0.5758570000000 1.0
C      1  0.3592410000000  0.4860370000000  0.4490830000000 1.0
C      1  0.4828170000000  0.3996020000000  0.4855030000000 1.0
C      1  0.5266520000000  0.5128080000000  0.6071010000000 1.0
C      1  0.4918440000000  0.6170160000000  0.4525720000000 1.0
C      1  0.4879300000000  0.4223070000000  0.4699170000000 1.0
C      1  0.5645810000000  0.5563470000000  0.4540630000000 1.0
C      1  0.5040110000000  0.4615060000000  0.5010680000000 1.0
C      1  0.4827770000000  0.5756150000000  0.6034270000000 1.0
C      1  0.5399520000000  0.4193920000000  0.4895850000000 1.0
C      1  0.5594330000000  0.5825770000000  0.5896360000000 1.0
C      1  0.5161660000000  0.6117630000000  0.4625230000000 1.0
C      1  0.5064780000000  0.5792320000000  0.5880780000000 1.0
C      1  0.4257050000000  0.4384280000000  0.4993790000000 1.0
C      1  0.4428940000000  0.5318530000000  0.4433120000000 1.0
C      1  0.4502390000000  0.5165270000000  0.3937370000000 1.0
C      1  0.6091570000000  0.5024510000000  0.5170860000000 1.0
C      1  0.5305530000000  0.5429920000000  0.4878170000000 1.0
C      1  0.5765020000000  0.5272300000000  0.4905620000000 1.0
C      1  0.4601950000000  0.5480600000000  0.5529070000000 1.0
C      1  0.5463920000000  0.4944950000000  0.4724060000000 1.0
C      1  0.4894290000000  0.5046400000000  0.3685530000000 1.0
C      1  0.5343310000000  0.5808760000000  0.5183940000000 1.0
C      1  0.4827650000000  0.5630390000000  0.5465640000000 1.0
C      1  0.5255210000000  0.5201330000000  0.5801470000000 1.0
C      1  0.5016370000000  0.5760750000000  0.5603710000000 1.0
C      1  0.4716780000000  0.5987850000000  0.4451410000000 1.0
C      1  0.4504530000000  0.5719070000000  0.4851790000000 1.0
C      1  0.5940990000000  0.5714310000000  0.4953340000000 1.0
C      1  0.3706160000000  0.5314240000000  0.4679910000000 1.0
C      1  0.5515270000000  0.5935720000000  0.5340260000000 1.0
C      1  0.4183000000000  0.5409040000000  0.5701300000000 1.0
C      1  0.4483590000000  0.5248290000000  0.5404160000000 1.0
C      1  0.5047120000000  0.4889600000000  0.4926870000000 1.0
C      1  0.5091380000000  0.4387380000000  0.5535380000000 1.0
C      1  0.5524500000000  0.4713950000000  0.6179930000000 1.0
C      1  0.5525930000000  0.4887850000000  0.4053310000000 1.0
C      1  0.3984470000000  0.5545280000000  0.5000710000000 1.0
C      1  0.5786160000000  0.5835670000000  0.5705880000000 1.0
C      1  0.4285600000000  0.4623950000000  0.5720480000000 1.0
C      1  0.3952590000000  0.5576450000000  0.5266010000000 1.0
C      1  0.5528580000000  0.4703870000000  0.5296840000000 1.0
C      1  0.5501500000000  0.5214570000000  0.4819680000000 1.0
C      1  0.4446670000000  0.5316940000000  0.4149630000000 1.0
C      1  0.5279590000000  0.4599780000000  0.5183850000000 1.0
C      1  0.5158630000000  0.5057980000000  0.3708360000000 1.0
C      1  0.5200040000000  0.4586300000000  0.4279120000000 1.0
C      1  0.3715430000000  0.5109120000000  0.4479160000000 1.0
C      1  0.4445550000000  0.5250560000000  0.5125650000000 1.0
C      1  0.4950040000000  0.3929460000000  0.5510990000000 1.0
C      1  0.5775120000000  0.5870920000000  0.5425960000000 1.0
C      1  0.3981330000000  0.5142490000000  0.4373650000000 1.0
C      1  0.3995260000000  0.5536980000000  0.5529680000000 1.0
C      1  0.4546340000000  0.5890690000000  0.4652190000000 1.0
C      1  0.4153070000000  0.4839660000000  0.4929600000000 1.0
C      1  0.4920250000000  0.5339140000000  0.4614600000000 1.0
C      1  0.4575770000000  0.5671950000000  0.5976530000000 1.0
END
