TITL C-627109-622-948 -4.08300700132409e-07 125000 -1170.47488196747 0 0 192 (C1) n - 1
REM
REM in /home/nfs/bkarasulu/CARBON/AIRSS/Generating-Clusters/LCBOP/Only-C1/SD-CG/FIRE-CG
REM
REM
REM
REM
REM
REM ./C.cell (11c1c37f851c82e70ff6c80c92926a4b)
REM AIRSS Version 0.9.1 bugfix July 2018 build 013d7b7c2542+ Fri, 06 Jul 2018 19:26:36 +0100
REM compiler GCC version 9.2.1 20190827 (Red Hat 9.2.1-1)
REM options -cpp -mtune=generic -march=x86-64 -g -O0 -fpre-include=/usr/include/finclude/math-vector-fortran.h
REM seed -374948062 -1736056274 -1341492422 618371962 -1913266170 1482200416 1152825330 -173123914 1959516584 -1278723047 663701334 1190301568 -974102842 -1281104418 -353538126 -960419383 306740193 -2117964710 -1647520491 930231828 -563541540 1813405459 1598815992 1107571519 -1618677072 -866148289 321787592 -990110899 1366094530 1002098029 -1529074125 1881072767 1526330850
REM
CELL 1.54180   50.00000   50.00000   50.00000   90.00000   90.00000   90.00000
LATT -1
SFAC C  
C      1  0.3882960000000  0.4800700000000  0.4984650000000 1.0
C      1  0.4097380000000  0.5713480000000  0.4916140000000 1.0
C      1  0.3961220000000  0.5017860000000  0.4172360000000 1.0
C      1  0.5652130000000  0.4288120000000  0.4662320000000 1.0
C      1  0.3840520000000  0.4725330000000  0.5429680000000 1.0
C      1  0.4764690000000  0.5705590000000  0.5619270000000 1.0
C      1  0.4800040000000  0.4305410000000  0.4516310000000 1.0
C      1  0.4633120000000  0.5937400000000  0.5463690000000 1.0
C      1  0.5280450000000  0.5333310000000  0.4685040000000 1.0
C      1  0.5083440000000  0.5800630000000  0.5975740000000 1.0
C      1  0.4814080000000  0.5364420000000  0.6359350000000 1.0
C      1  0.4203900000000  0.4941130000000  0.4054400000000 1.0
C      1  0.4829720000000  0.5292920000000  0.5137410000000 1.0
C      1  0.5535200000000  0.5794300000000  0.5927370000000 1.0
C      1  0.3717200000000  0.4707530000000  0.4432660000000 1.0
C      1  0.5054710000000  0.4804850000000  0.3769050000000 1.0
C      1  0.5036900000000  0.5737020000000  0.5690780000000 1.0
C      1  0.4269280000000  0.5779610000000  0.5143960000000 1.0
C      1  0.6081850000000  0.5248050000000  0.5236420000000 1.0
C      1  0.5043500000000  0.6092080000000  0.4670800000000 1.0
C      1  0.6286860000000  0.3749790000000  0.5047110000000 1.0
C      1  0.5155490000000  0.3818600000000  0.4571670000000 1.0
C      1  0.4448040000000  0.3910420000000  0.5087670000000 1.0
C      1  0.5541640000000  0.5800910000000  0.4345710000000 1.0
C      1  0.4558500000000  0.3470050000000  0.4473900000000 1.0
C      1  0.4675470000000  0.5220920000000  0.5609800000000 1.0
C      1  0.4345550000000  0.5920080000000  0.5580750000000 1.0
C      1  0.5924180000000  0.5846040000000  0.5627010000000 1.0
C      1  0.5384520000000  0.4726680000000  0.5315460000000 1.0
C      1  0.4780570000000  0.5470920000000  0.4919140000000 1.0
C      1  0.5216690000000  0.4679180000000  0.6087200000000 1.0
C      1  0.4154450000000  0.5811000000000  0.4649090000000 1.0
C      1  0.5433870000000  0.4686820000000  0.4852610000000 1.0
C      1  0.4600690000000  0.5016120000000  0.3802010000000 1.0
C      1  0.4456140000000  0.3742500000000  0.4873600000000 1.0
C      1  0.5074650000000  0.4865380000000  0.6256000000000 1.0
C      1  0.5111400000000  0.5220850000000  0.5143770000000 1.0
C      1  0.4898120000000  0.6151300000000  0.4919430000000 1.0
C      1  0.5060780000000  0.6212830000000  0.5157980000000 1.0
C      1  0.4660500000000  0.5192540000000  0.5328490000000 1.0
C      1  0.5212430000000  0.4015550000000  0.4353190000000 1.0
C      1  0.5425290000000  0.5516280000000  0.5975630000000 1.0
C      1  0.5889010000000  0.4446980000000  0.4703790000000 1.0
C      1  0.5626960000000  0.5338380000000  0.5371440000000 1.0
C      1  0.6081200000000  0.4766520000000  0.5261230000000 1.0
C      1  0.4612260000000  0.4961020000000  0.4328380000000 1.0
C      1  0.3709280000000  0.5193600000000  0.4553770000000 1.0
C      1  0.3932380000000  0.5476100000000  0.4937320000000 1.0
C      1  0.4513750000000  0.4374700000000  0.4479200000000 1.0
C      1  0.4054130000000  0.4344330000000  0.4312350000000 1.0
C      1  0.3825230000000  0.4464960000000  0.4389060000000 1.0
C      1  0.5931550000000  0.4597880000000  0.4453390000000 1.0
C      1  0.5632810000000  0.4065360000000  0.5159750000000 1.0
C      1  0.5290970000000  0.5460280000000  0.5277510000000 1.0
C      1  0.3701100000000  0.4816660000000  0.5190490000000 1.0
C      1  0.4595180000000  0.5409320000000  0.6214790000000 1.0
C      1  0.5129070000000  0.5355870000000  0.3901620000000 1.0
C      1  0.5005790000000  0.5798750000000  0.4012360000000 1.0
C      1  0.4628640000000  0.3656100000000  0.4659470000000 1.0
C      1  0.5315740000000  0.5974730000000  0.6009720000000 1.0
C      1  0.5946560000000  0.4887420000000  0.4434030000000 1.0
C      1  0.4313820000000  0.4772450000000  0.5317060000000 1.0
C      1  0.6083220000000  0.5101130000000  0.4588870000000 1.0
C      1  0.5502350000000  0.5033590000000  0.6239370000000 1.0
C      1  0.5347580000000  0.5196120000000  0.3807090000000 1.0
C      1  0.5765150000000  0.5944720000000  0.5043550000000 1.0
C      1  0.5507590000000  0.4266280000000  0.5337100000000 1.0
C      1  0.6137540000000  0.5004100000000  0.5110590000000 1.0
C      1  0.4499450000000  0.4565230000000  0.5479590000000 1.0
C      1  0.5332430000000  0.6142160000000  0.5054230000000 1.0
C      1  0.5728380000000  0.5028170000000  0.4296310000000 1.0
C      1  0.5493750000000  0.4884340000000  0.4247000000000 1.0
C      1  0.4958270000000  0.4518880000000  0.5691100000000 1.0
C      1  0.3752550000000  0.5385270000000  0.4737700000000 1.0
C      1  0.5895960000000  0.5434790000000  0.5334030000000 1.0
C      1  0.4564290000000  0.4068830000000  0.5297360000000 1.0
C      1  0.4243480000000  0.5132500000000  0.4926110000000 1.0
C      1  0.4377440000000  0.5137580000000  0.3934210000000 1.0
C      1  0.4608780000000  0.3928820000000  0.5539500000000 1.0
C      1  0.4056890000000  0.5264300000000  0.5083040000000 1.0
C      1  0.5419160000000  0.5514780000000  0.4845570000000 1.0
C      1  0.4775830000000  0.5910370000000  0.5005190000000 1.0
C      1  0.5424290000000  0.3887140000000  0.5059040000000 1.0
C      1  0.4385540000000  0.5415110000000  0.4030750000000 1.0
C      1  0.5605050000000  0.4536230000000  0.5322360000000 1.0
C      1  0.6008270000000  0.5659800000000  0.5455480000000 1.0
C      1  0.5827380000000  0.4448930000000  0.4218390000000 1.0
C      1  0.4311770000000  0.4678220000000  0.4104330000000 1.0
C      1  0.5222490000000  0.4193770000000  0.5387310000000 1.0
C      1  0.4364320000000  0.4958260000000  0.4744560000000 1.0
C      1  0.4885970000000  0.5918440000000  0.4500480000000 1.0
C      1  0.5874200000000  0.5568010000000  0.4729610000000 1.0
C      1  0.4549030000000  0.5877370000000  0.5164950000000 1.0
C      1  0.5940070000000  0.4396600000000  0.4985880000000 1.0
C      1  0.4957490000000  0.5278490000000  0.4127340000000 1.0
C      1  0.4298330000000  0.4569720000000  0.5937590000000 1.0
C      1  0.5654960000000  0.4044970000000  0.4522650000000 1.0
C      1  0.5870530000000  0.4584720000000  0.5194790000000 1.0
C      1  0.4110700000000  0.5653210000000  0.4411600000000 1.0
C      1  0.5959730000000  0.5374680000000  0.4527310000000 1.0
C      1  0.5897300000000  0.4120690000000  0.5068760000000 1.0
C      1  0.5195710000000  0.3941540000000  0.5239630000000 1.0
C      1  0.5258920000000  0.4483530000000  0.4426500000000 1.0
C      1  0.5868420000000  0.5185980000000  0.5947400000000 1.0
C      1  0.4970870000000  0.5756030000000  0.4292670000000 1.0
C      1  0.4393910000000  0.5961260000000  0.4624520000000 1.0
C      1  0.5098240000000  0.4474390000000  0.5935390000000 1.0
C      1  0.5782350000000  0.5847360000000  0.4771950000000 1.0
C      1  0.5618030000000  0.4894120000000  0.4838010000000 1.0
C      1  0.5148900000000  0.5141950000000  0.4849720000000 1.0
C      1  0.4630590000000  0.5474600000000  0.5730720000000 1.0
C      1  0.5190840000000  0.4283980000000  0.4833340000000 1.0
C      1  0.4948190000000  0.3872340000000  0.5135170000000 1.0
C      1  0.4537930000000  0.5614370000000  0.3893040000000 1.0
C      1  0.4512210000000  0.4977310000000  0.5244350000000 1.0
C      1  0.5117270000000  0.4211920000000  0.6032030000000 1.0
C      1  0.5005850000000  0.4916560000000  0.4730250000000 1.0
C      1  0.4482330000000  0.5087310000000  0.4532210000000 1.0
C      1  0.4626920000000  0.5535610000000  0.4684920000000 1.0
C      1  0.4475740000000  0.5367090000000  0.4513670000000 1.0
C      1  0.4662170000000  0.3768820000000  0.5738280000000 1.0
C      1  0.5175990000000  0.5566090000000  0.6128840000000 1.0
C      1  0.4179090000000  0.5731450000000  0.5425650000000 1.0
C      1  0.5346310000000  0.5295040000000  0.5814120000000 1.0
C      1  0.4713900000000  0.4970330000000  0.5737950000000 1.0
C      1  0.5497490000000  0.4054320000000  0.4281910000000 1.0
C      1  0.5247030000000  0.5642670000000  0.5031390000000 1.0
C      1  0.4334000000000  0.4687850000000  0.4814460000000 1.0
C      1  0.4330010000000  0.4429890000000  0.5702510000000 1.0
C      1  0.5781410000000  0.5005960000000  0.5742440000000 1.0
C      1  0.5352790000000  0.3791470000000  0.4793710000000 1.0
C      1  0.5062450000000  0.4273360000000  0.4369450000000 1.0
C      1  0.4050350000000  0.5217240000000  0.5370070000000 1.0
C      1  0.4970620000000  0.4716740000000  0.4958520000000 1.0
C      1  0.4193020000000  0.4249550000000  0.4896510000000 1.0
C      1  0.4206980000000  0.4187750000000  0.5676250000000 1.0
C      1  0.6198640000000  0.5024190000000  0.4835440000000 1.0
C      1  0.4636650000000  0.5819800000000  0.4602390000000 1.0
C      1  0.5472100000000  0.5884930000000  0.5462480000000 1.0
C      1  0.5737870000000  0.5186020000000  0.6189300000000 1.0
C      1  0.4319930000000  0.4442390000000  0.4264900000000 1.0
C      1  0.5226670000000  0.5108770000000  0.6313490000000 1.0
C      1  0.5161520000000  0.3973180000000  0.6126680000000 1.0
C      1  0.4758760000000  0.5771060000000  0.3871040000000 1.0
C      1  0.5678610000000  0.4764560000000  0.5868120000000 1.0
C      1  0.4308000000000  0.5476150000000  0.4305030000000 1.0
C      1  0.5537460000000  0.6010680000000  0.5207730000000 1.0
C      1  0.5566920000000  0.5330340000000  0.3918200000000 1.0
C      1  0.4069870000000  0.4924920000000  0.5455410000000 1.0
C      1  0.3778870000000  0.4979290000000  0.4383970000000 1.0
C      1  0.4734090000000  0.4700250000000  0.5658370000000 1.0
C      1  0.5555000000000  0.5936920000000  0.4602760000000 1.0
C      1  0.5643370000000  0.4260060000000  0.4129800000000 1.0
C      1  0.5633410000000  0.5087800000000  0.5507030000000 1.0
C      1  0.4221020000000  0.5583770000000  0.5985080000000 1.0
C      1  0.4886770000000  0.4259040000000  0.4815680000000 1.0
C      1  0.4961670000000  0.5692320000000  0.4983000000000 1.0
C      1  0.4830630000000  0.4888140000000  0.3918510000000 1.0
C      1  0.5229370000000  0.5089660000000  0.5678460000000 1.0
C      1  0.3910430000000  0.4439600000000  0.5364070000000 1.0
C      1  0.5680060000000  0.5417380000000  0.4881540000000 1.0
C      1  0.5488400000000  0.4780530000000  0.6079070000000 1.0
C      1  0.4162910000000  0.4673720000000  0.5059830000000 1.0
C      1  0.5045220000000  0.4895060000000  0.4433450000000 1.0
C      1  0.4081360000000  0.5471920000000  0.5500210000000 1.0
C      1  0.5490450000000  0.5524400000000  0.4220290000000 1.0
C      1  0.4880780000000  0.3790690000000  0.4665840000000 1.0
C      1  0.5332320000000  0.6079010000000  0.4746980000000 1.0
C      1  0.5399580000000  0.4437430000000  0.4691830000000 1.0
C      1  0.4874570000000  0.4997380000000  0.4203220000000 1.0
C      1  0.5753360000000  0.5314100000000  0.4328550000000 1.0
C      1  0.5243660000000  0.4709610000000  0.5069600000000 1.0
C      1  0.5087480000000  0.5357850000000  0.6297840000000 1.0
C      1  0.5282260000000  0.4940690000000  0.3715560000000 1.0
C      1  0.5269060000000  0.4748830000000  0.4341560000000 1.0
C      1  0.5696070000000  0.5138530000000  0.4906570000000 1.0
C      1  0.6099510000000  0.3930350000000  0.5061590000000 1.0
C      1  0.4072980000000  0.4385500000000  0.5124900000000 1.0
C      1  0.6245940000000  0.4703540000000  0.5472030000000 1.0
C      1  0.4858620000000  0.3973200000000  0.4889250000000 1.0
C      1  0.4883800000000  0.6151490000000  0.5397690000000 1.0
C      1  0.4693500000000  0.4363410000000  0.5291190000000 1.0
C      1  0.4365390000000  0.4416310000000  0.4726670000000 1.0
C      1  0.5010400000000  0.5472040000000  0.4332630000000 1.0
C      1  0.5382820000000  0.4945150000000  0.5488360000000 1.0
C      1  0.4990370000000  0.4344200000000  0.5467720000000 1.0
C      1  0.5250670000000  0.5686830000000  0.5493740000000 1.0
C      1  0.5271100000000  0.5410500000000  0.4421030000000 1.0
C      1  0.4478110000000  0.5491020000000  0.5973580000000 1.0
C      1  0.5224220000000  0.5621710000000  0.3954140000000 1.0
C      1  0.4805330000000  0.4478630000000  0.5011870000000 1.0
C      1  0.5654150000000  0.5877160000000  0.5685180000000 1.0
END
