TITL C-627109-622-853 9.78483715943723e-07 125000 -383.208411336806 0 0 65 (C1) n - 1
REM
REM in /home/nfs/bkarasulu/CARBON/AIRSS/Generating-Clusters/LCBOP/Only-C1/SD-CG/FIRE-CG
REM
REM
REM
REM
REM
REM ./C.cell (11c1c37f851c82e70ff6c80c92926a4b)
REM AIRSS Version 0.9.1 bugfix July 2018 build 013d7b7c2542+ Fri, 06 Jul 2018 19:26:36 +0100
REM compiler GCC version 9.2.1 20190827 (Red Hat 9.2.1-1)
REM options -cpp -mtune=generic -march=x86-64 -g -O0 -fpre-include=/usr/include/finclude/math-vector-fortran.h
REM seed -1495883524 1494316549 -1308934035 -1127472979 179389228 1097283612 1549218223 426818153 -1779703705 -255778017 855019897 277184555 -528135310 -119366747 -888747154 -1899089351 1490828015 -27271037 -811740637 871281572 -1136515244 18145904 -1028652117 42555308 1725177603 477173490 -216188597 -193614727 -118837293 -182668968 54128446 -159738521 167576238
REM
CELL 1.54180   50.00000   50.00000   50.00000   90.00000   90.00000   90.00000
LATT -1
SFAC C  
C      1  0.4365440000000  0.5333790000000  0.4812110000000 1.0
C      1  0.5226760000000  0.5041350000000  0.4263730000000 1.0
C      1  0.4292000000000  0.4308140000000  0.4357980000000 1.0
C      1  0.4435290000000  0.5016280000000  0.4339570000000 1.0
C      1  0.4745000000000  0.4635170000000  0.5419720000000 1.0
C      1  0.4663830000000  0.5396440000000  0.5558950000000 1.0
C      1  0.5910660000000  0.4802030000000  0.5059800000000 1.0
C      1  0.4588580000000  0.5501020000000  0.4844010000000 1.0
C      1  0.5088120000000  0.5766700000000  0.5195290000000 1.0
C      1  0.5662920000000  0.4956620000000  0.5089610000000 1.0
C      1  0.4184650000000  0.4866350000000  0.4740610000000 1.0
C      1  0.5433650000000  0.4772300000000  0.5716760000000 1.0
C      1  0.5178170000000  0.4703480000000  0.5738260000000 1.0
C      1  0.4248860000000  0.4799800000000  0.5310750000000 1.0
C      1  0.4801970000000  0.5493120000000  0.4650220000000 1.0
C      1  0.4469330000000  0.4733840000000  0.5470150000000 1.0
C      1  0.4690900000000  0.5079770000000  0.4434460000000 1.0
C      1  0.4879220000000  0.5319480000000  0.5698260000000 1.0
C      1  0.6123170000000  0.4830180000000  0.5240070000000 1.0
C      1  0.4855790000000  0.4763680000000  0.5156880000000 1.0
C      1  0.5686390000000  0.4530420000000  0.4722300000000 1.0
C      1  0.5185770000000  0.5511870000000  0.5104320000000 1.0
C      1  0.4408530000000  0.4099400000000  0.4475320000000 1.0
C      1  0.5605080000000  0.5054450000000  0.5356780000000 1.0
C      1  0.4781480000000  0.4308350000000  0.5050240000000 1.0
C      1  0.4892770000000  0.5240810000000  0.4547810000000 1.0
C      1  0.4701530000000  0.4095950000000  0.4891020000000 1.0
C      1  0.4734050000000  0.4342580000000  0.5330170000000 1.0
C      1  0.5390000000000  0.5177270000000  0.4695380000000 1.0
C      1  0.4141660000000  0.5397370000000  0.3694480000000 1.0
C      1  0.4237790000000  0.5053300000000  0.5183600000000 1.0
C      1  0.4931980000000  0.4672150000000  0.5643820000000 1.0
C      1  0.5650100000000  0.4890180000000  0.5586720000000 1.0
C      1  0.4903440000000  0.5725510000000  0.4545830000000 1.0
C      1  0.5024880000000  0.5278740000000  0.5093060000000 1.0
C      1  0.5514930000000  0.5319460000000  0.5397730000000 1.0
C      1  0.5165800000000  0.5154990000000  0.4514880000000 1.0
C      1  0.4921340000000  0.4607980000000  0.4684290000000 1.0
C      1  0.5221160000000  0.5866520000000  0.5425080000000 1.0
C      1  0.5903100000000  0.4587340000000  0.4874570000000 1.0
C      1  0.5284130000000  0.4926930000000  0.4036730000000 1.0
C      1  0.5359000000000  0.5723740000000  0.5611260000000 1.0
C      1  0.5377180000000  0.5437620000000  0.5623300000000 1.0
C      1  0.4826060000000  0.5829690000000  0.5118110000000 1.0
C      1  0.6640970000000  0.4807460000000  0.5755410000000 1.0
C      1  0.4111660000000  0.4604430000000  0.5156010000000 1.0
C      1  0.4555470000000  0.5508340000000  0.5340470000000 1.0
C      1  0.5475440000000  0.4700670000000  0.4723370000000 1.0
C      1  0.5554280000000  0.5395930000000  0.4662150000000 1.0
C      1  0.4562420000000  0.4018920000000  0.4677380000000 1.0
C      1  0.6158030000000  0.4831500000000  0.5519040000000 1.0
C      1  0.5916850000000  0.4846690000000  0.5663120000000 1.0
C      1  0.4622530000000  0.5634170000000  0.5095650000000 1.0
C      1  0.6407080000000  0.4819070000000  0.5641010000000 1.0
C      1  0.5145880000000  0.5314120000000  0.5729420000000 1.0
C      1  0.5457860000000  0.5462070000000  0.5159920000000 1.0
C      1  0.5484450000000  0.4955530000000  0.4853460000000 1.0
C      1  0.4277730000000  0.4823380000000  0.4475830000000 1.0
C      1  0.4333600000000  0.5144800000000  0.4113570000000 1.0
C      1  0.4863350000000  0.4564330000000  0.4946080000000 1.0
C      1  0.4236840000000  0.5271790000000  0.3902160000000 1.0
C      1  0.4932740000000  0.5030970000000  0.5131470000000 1.0
C      1  0.4246890000000  0.5097790000000  0.4901720000000 1.0
C      1  0.4078600000000  0.4645930000000  0.4889030000000 1.0
C      1  0.4244880000000  0.4569970000000  0.4359710000000 1.0
END
