TITL C-627112-676-317 -0.00208992704874027 125000 -356.882532814766 0 0 60 (C1) n - 1
REM
REM in /home/nfs/bkarasulu/CARBON/AIRSS/Generating-Clusters/LCBOP/Only-C1/SD-CG/FIRE-CG
REM
REM
REM
REM
REM
REM ./C.cell (11c1c37f851c82e70ff6c80c92926a4b)
REM AIRSS Version 0.9.1 bugfix July 2018 build 013d7b7c2542+ Fri, 06 Jul 2018 19:26:36 +0100
REM compiler GCC version 9.2.1 20190827 (Red Hat 9.2.1-1)
REM options -cpp -mtune=generic -march=x86-64 -g -O0 -fpre-include=/usr/include/finclude/math-vector-fortran.h
REM seed 1771592662 1541567913 -872601616 87485695 338452786 -193348060 -851335190 2120250233 899338657 -2145009713 -2114292140 -1210924420 1597244049 1067418678 1751081106 585656607 196885250 1306799295 1195721821 -1494580407 2085065015 -608922064 -2118387784 -1006177759 292995197 1105254346 357208305 1729944834 1271063833 1726922726 -1577643889 1741847884 920835054
REM
CELL 1.54180   50.00000   50.00000   50.00000   90.00000   90.00000   90.00000
LATT -1
SFAC C  
C      1  0.4742560000000  0.4592900000000  0.5683950000000 1.0
C      1  0.4294180000000  0.4585430000000  0.4688630000000 1.0
C      1  0.4420260000000  0.4419620000000  0.4879530000000 1.0
C      1  0.5012600000000  0.5591610000000  0.5190530000000 1.0
C      1  0.5166270000000  0.4744200000000  0.4806920000000 1.0
C      1  0.6004680000000  0.5147490000000  0.6141330000000 1.0
C      1  0.4056350000000  0.5040850000000  0.5188330000000 1.0
C      1  0.5269910000000  0.4546050000000  0.4993280000000 1.0
C      1  0.5267010000000  0.5297120000000  0.5464870000000 1.0
C      1  0.5498360000000  0.5303510000000  0.4686660000000 1.0
C      1  0.5512040000000  0.5032810000000  0.4593450000000 1.0
C      1  0.4368270000000  0.4613870000000  0.5315050000000 1.0
C      1  0.4073890000000  0.4737150000000  0.4778850000000 1.0
C      1  0.4525920000000  0.5336680000000  0.4554130000000 1.0
C      1  0.4843540000000  0.5058980000000  0.5604530000000 1.0
C      1  0.4696190000000  0.5582320000000  0.4572590000000 1.0
C      1  0.4946030000000  0.4212840000000  0.5102840000000 1.0
C      1  0.5174980000000  0.4754380000000  0.4330100000000 1.0
C      1  0.4781710000000  0.4372060000000  0.5533620000000 1.0
C      1  0.3986480000000  0.4905590000000  0.4967540000000 1.0
C      1  0.4907610000000  0.5156700000000  0.4313520000000 1.0
C      1  0.5267130000000  0.5510670000000  0.5278020000000 1.0
C      1  0.5606910000000  0.4794740000000  0.5637280000000 1.0
C      1  0.5062830000000  0.5098050000000  0.5432730000000 1.0
C      1  0.4968040000000  0.4900820000000  0.4955760000000 1.0
C      1  0.4650820000000  0.4853940000000  0.5617490000000 1.0
C      1  0.5827210000000  0.5099750000000  0.5950480000000 1.0
C      1  0.4713840000000  0.4969100000000  0.4854960000000 1.0
C      1  0.4929430000000  0.4873540000000  0.4271080000000 1.0
C      1  0.6179300000000  0.5194460000000  0.6329120000000 1.0
C      1  0.4422140000000  0.4654000000000  0.4448520000000 1.0
C      1  0.4290230000000  0.5089780000000  0.5340500000000 1.0
C      1  0.5292910000000  0.4567790000000  0.4170180000000 1.0
C      1  0.5350560000000  0.4083770000000  0.4866860000000 1.0
C      1  0.4854860000000  0.5478090000000  0.4992710000000 1.0
C      1  0.5470940000000  0.5566250000000  0.5091140000000 1.0
C      1  0.4932640000000  0.5446070000000  0.4712510000000 1.0
C      1  0.5473940000000  0.5250770000000  0.5647120000000 1.0
C      1  0.4735110000000  0.4307930000000  0.5260770000000 1.0
C      1  0.4419620000000  0.4859220000000  0.5448230000000 1.0
C      1  0.4607860000000  0.5160710000000  0.4344110000000 1.0
C      1  0.5294230000000  0.4842120000000  0.4576170000000 1.0
C      1  0.5088410000000  0.4909360000000  0.5223740000000 1.0
C      1  0.4498680000000  0.4424880000000  0.5149130000000 1.0
C      1  0.5467340000000  0.4666280000000  0.5449810000000 1.0
C      1  0.4592020000000  0.5372390000000  0.5043820000000 1.0
C      1  0.4540550000000  0.5197200000000  0.4816030000000 1.0
C      1  0.5136230000000  0.5798080000000  0.4456440000000 1.0
C      1  0.4838760000000  0.5822000000000  0.4478690000000 1.0
C      1  0.5764750000000  0.4940870000000  0.4512180000000 1.0
C      1  0.4441230000000  0.5319460000000  0.5273170000000 1.0
C      1  0.5460430000000  0.5562100000000  0.4807080000000 1.0
C      1  0.5185010000000  0.5545860000000  0.4319030000000 1.0
C      1  0.5994770000000  0.4846980000000  0.4433530000000 1.0
C      1  0.4579210000000  0.4825230000000  0.4305720000000 1.0
C      1  0.5061450000000  0.5334400000000  0.4466850000000 1.0
C      1  0.5194280000000  0.4274090000000  0.4983710000000 1.0
C      1  0.5334610000000  0.5786760000000  0.4669890000000 1.0
C      1  0.5281880000000  0.4690660000000  0.5244970000000 1.0
C      1  0.5640980000000  0.5049690000000  0.5750260000000 1.0
END
