TITL C-627107-135-1673 -9.59733311452408 125000 -598.530993758187 0 0 98 (C1) n - 1
REM
REM in /home/nfs/bkarasulu/CARBON/AIRSS/Generating-Clusters/LCBOP/Only-C1/SD-CG/FIRE-CG
REM
REM
REM
REM
REM
REM ./C.cell (11c1c37f851c82e70ff6c80c92926a4b)
REM AIRSS Version 0.9.1 bugfix July 2018 build 013d7b7c2542+ Fri, 06 Jul 2018 19:26:36 +0100
REM compiler GCC version 9.2.1 20190827 (Red Hat 9.2.1-1)
REM options -cpp -mtune=generic -march=x86-64 -g -O0 -fpre-include=/usr/include/finclude/math-vector-fortran.h
REM seed 16854987 -1654756090 -545108587 -1891639918 1376661321 -2030169179 1890993099 1628583981 -1616554918 -2100202067 900690273 1578017049 -1852887405 995126403 1557480257 1267987970 -1301260024 265993405 991915718 193852954 1664582778 -1309520564 1726783506 -271789555 -500487562 -1268913206 268003413 -96098159 1897964593 -2016463422 -1830133090 2134364166 1750675608
REM
CELL 1.54180   50.00000   50.00000   50.00000   90.00000   90.00000   90.00000
LATT -1
SFAC C  
C      1  0.5821230000000  0.4452800000000  0.5098810000000 1.0
C      1  0.3588750000000  0.4959460000000  0.5412800000000 1.0
C      1  0.4610170000000  0.5714990000000  0.4269800000000 1.0
C      1  0.4566490000000  0.4380870000000  0.5024130000000 1.0
C      1  0.6035210000000  0.5801540000000  0.4497880000000 1.0
C      1  0.5329500000000  0.4819360000000  0.4856260000000 1.0
C      1  0.4464890000000  0.4345940000000  0.5283770000000 1.0
C      1  0.4751740000000  0.5505830000000  0.4175080000000 1.0
C      1  0.4875720000000  0.5320730000000  0.4325390000000 1.0
C      1  0.5205220000000  0.4400740000000  0.5820280000000 1.0
C      1  0.5453260000000  0.4274170000000  0.5763030000000 1.0
C      1  0.4698420000000  0.4172130000000  0.4887210000000 1.0
C      1  0.5340820000000  0.5437090000000  0.4990890000000 1.0
C      1  0.4398030000000  0.5940090000000  0.4653070000000 1.0
C      1  0.5983420000000  0.4960170000000  0.3974250000000 1.0
C      1  0.4949210000000  0.4101380000000  0.4774080000000 1.0
C      1  0.5775760000000  0.5724400000000  0.4596790000000 1.0
C      1  0.3347130000000  0.4894090000000  0.5485650000000 1.0
C      1  0.5410910000000  0.5635820000000  0.5228350000000 1.0
C      1  0.4238750000000  0.5284280000000  0.5419350000000 1.0
C      1  0.4098080000000  0.4392110000000  0.4536390000000 1.0
C      1  0.5490770000000  0.4904860000000  0.5062890000000 1.0
C      1  0.5643600000000  0.4234940000000  0.5061320000000 1.0
C      1  0.5047480000000  0.5864860000000  0.4736550000000 1.0
C      1  0.4859280000000  0.5220970000000  0.4591900000000 1.0
C      1  0.4984860000000  0.4275130000000  0.5686450000000 1.0
C      1  0.5444830000000  0.4218120000000  0.4849110000000 1.0
C      1  0.4389920000000  0.5480390000000  0.5286970000000 1.0
C      1  0.4822060000000  0.5379730000000  0.5091550000000 1.0
C      1  0.4673010000000  0.4634720000000  0.4245130000000 1.0
C      1  0.5189490000000  0.4662380000000  0.4240250000000 1.0
C      1  0.4821910000000  0.5690860000000  0.4697610000000 1.0
C      1  0.5074980000000  0.4558640000000  0.5169860000000 1.0
C      1  0.5568730000000  0.4933700000000  0.5551690000000 1.0
C      1  0.4973700000000  0.5945660000000  0.5208750000000 1.0
C      1  0.5190310000000  0.4663220000000  0.5925990000000 1.0
C      1  0.4302890000000  0.4767240000000  0.4827120000000 1.0
C      1  0.4966160000000  0.4083780000000  0.4494880000000 1.0
C      1  0.4727320000000  0.5836100000000  0.5299640000000 1.0
C      1  0.5612890000000  0.5808940000000  0.5065010000000 1.0
C      1  0.4304830000000  0.5248120000000  0.5697180000000 1.0
C      1  0.5574890000000  0.4135640000000  0.5566830000000 1.0
C      1  0.3834420000000  0.5025430000000  0.5338770000000 1.0
C      1  0.5789660000000  0.4765570000000  0.5509400000000 1.0
C      1  0.5719780000000  0.5461360000000  0.4455340000000 1.0
C      1  0.4981390000000  0.4714170000000  0.5377670000000 1.0
C      1  0.5579960000000  0.5833190000000  0.4773590000000 1.0
C      1  0.5001920000000  0.6047850000000  0.4946730000000 1.0
C      1  0.4215800000000  0.6075540000000  0.4780970000000 1.0
C      1  0.5462190000000  0.4344780000000  0.4593220000000 1.0
C      1  0.5173370000000  0.5404720000000  0.5922490000000 1.0
C      1  0.5882150000000  0.4614870000000  0.5305850000000 1.0
C      1  0.5426350000000  0.4827920000000  0.4596180000000 1.0
C      1  0.5402670000000  0.5062300000000  0.4424410000000 1.0
C      1  0.4962380000000  0.5185890000000  0.5262040000000 1.0
C      1  0.5237790000000  0.5207420000000  0.5335380000000 1.0
C      1  0.4544130000000  0.5119160000000  0.5777740000000 1.0
C      1  0.4801070000000  0.4947680000000  0.4607670000000 1.0
C      1  0.5428330000000  0.4999090000000  0.5313000000000 1.0
C      1  0.5027260000000  0.5159790000000  0.5985780000000 1.0
C      1  0.4108340000000  0.4545380000000  0.4758620000000 1.0
C      1  0.5176860000000  0.4156080000000  0.4939410000000 1.0
C      1  0.4649490000000  0.5569590000000  0.5226730000000 1.0
C      1  0.4842550000000  0.4956020000000  0.5385010000000 1.0
C      1  0.4508750000000  0.4331470000000  0.5547340000000 1.0
C      1  0.5476510000000  0.5322790000000  0.4514790000000 1.0
C      1  0.4825100000000  0.4769600000000  0.4824260000000 1.0
C      1  0.4235760000000  0.4367020000000  0.4306870000000 1.0
C      1  0.5383380000000  0.4577400000000  0.4452310000000 1.0
C      1  0.4602990000000  0.5788960000000  0.4542080000000 1.0
C      1  0.4608210000000  0.4852190000000  0.4419090000000 1.0
C      1  0.4352930000000  0.4886970000000  0.4547020000000 1.0
C      1  0.4205830000000  0.4959790000000  0.5035030000000 1.0
C      1  0.4564740000000  0.5987840000000  0.5460040000000 1.0
C      1  0.5973540000000  0.5176930000000  0.4118580000000 1.0
C      1  0.5394810000000  0.5360900000000  0.5739570000000 1.0
C      1  0.4833330000000  0.5416880000000  0.4801120000000 1.0
C      1  0.4452850000000  0.4466190000000  0.4183050000000 1.0
C      1  0.5080070000000  0.4701290000000  0.4925240000000 1.0
C      1  0.5610570000000  0.4088330000000  0.5303950000000 1.0
C      1  0.6131780000000  0.5615380000000  0.4317660000000 1.0
C      1  0.4940070000000  0.4523480000000  0.4225200000000 1.0
C      1  0.5307390000000  0.5761260000000  0.4684540000000 1.0
C      1  0.4575260000000  0.4643880000000  0.4909100000000 1.0
C      1  0.5324410000000  0.5466830000000  0.4709030000000 1.0
C      1  0.4709240000000  0.4312270000000  0.5725700000000 1.0
C      1  0.4636630000000  0.4961030000000  0.5566700000000 1.0
C      1  0.5051780000000  0.4160580000000  0.5433710000000 1.0
C      1  0.5450620000000  0.5064940000000  0.5776860000000 1.0
C      1  0.4096080000000  0.5089820000000  0.5262920000000 1.0
C      1  0.5109750000000  0.4279600000000  0.5187210000000 1.0
C      1  0.5369090000000  0.5436670000000  0.5462790000000 1.0
C      1  0.5254540000000  0.4946300000000  0.4199200000000 1.0
C      1  0.5213160000000  0.5846950000000  0.5313400000000 1.0
C      1  0.4743890000000  0.5159450000000  0.5974960000000 1.0
C      1  0.5221800000000  0.4943770000000  0.5921380000000 1.0
C      1  0.5944760000000  0.5397800000000  0.4281570000000 1.0
C      1  0.4955920000000  0.4245650000000  0.4281780000000 1.0
END
