TITL C-627106-156-1235 0.0963746198898069 125000 -1111.33250965059 0 0 178 (C1) n - 1
REM
REM in /home/nfs/bkarasulu/CARBON/AIRSS/Generating-Clusters/LCBOP/Only-C1/SD-CG/FIRE-CG
REM
REM
REM
REM
REM
REM ./C.cell (11c1c37f851c82e70ff6c80c92926a4b)
REM AIRSS Version 0.9.1 bugfix July 2018 build 013d7b7c2542+ Fri, 06 Jul 2018 19:26:36 +0100
REM compiler GCC version 9.2.1 20190827 (Red Hat 9.2.1-1)
REM options -cpp -mtune=generic -march=x86-64 -g -O0 -fpre-include=/usr/include/finclude/math-vector-fortran.h
REM seed -267424430 -619253337 -879492155 2110838165 209548461 1310769769 771199649 -216601303 -1467551521 1887670587 -882079664 -463608723 -1603544348 301910225 1530225586 1034240058 430584895 -549078940 211109556 41111924 1365752369 618113765 -1148736222 989229424 -1213517586 1222292942 -529360266 1476898933 1610373214 677315408 1426800345 -1765871350 -853468878
REM
CELL 1.54180   50.00000   50.00000   50.00000   90.00000   90.00000   90.00000
LATT -1
SFAC C  
C      1  0.4599980000000  0.5215570000000  0.4154720000000 1.0
C      1  0.3856670000000  0.5336000000000  0.4675120000000 1.0
C      1  0.5621480000000  0.5110250000000  0.3567520000000 1.0
C      1  0.4707750000000  0.4349420000000  0.4257720000000 1.0
C      1  0.4280420000000  0.5416390000000  0.5422050000000 1.0
C      1  0.4549340000000  0.4913610000000  0.5847360000000 1.0
C      1  0.6098840000000  0.4684100000000  0.4702440000000 1.0
C      1  0.4330640000000  0.5641580000000  0.4278410000000 1.0
C      1  0.4853530000000  0.4123520000000  0.4362870000000 1.0
C      1  0.4623820000000  0.6086820000000  0.4275230000000 1.0
C      1  0.4926820000000  0.4597030000000  0.4945880000000 1.0
C      1  0.5402630000000  0.4479970000000  0.5996670000000 1.0
C      1  0.5602140000000  0.4546860000000  0.4610050000000 1.0
C      1  0.4463400000000  0.3933960000000  0.4625330000000 1.0
C      1  0.4195490000000  0.4826890000000  0.4411160000000 1.0
C      1  0.5199290000000  0.4637480000000  0.6091080000000 1.0
C      1  0.5168230000000  0.5594180000000  0.4222450000000 1.0
C      1  0.4623950000000  0.5456410000000  0.6083380000000 1.0
C      1  0.4372050000000  0.5767630000000  0.5783610000000 1.0
C      1  0.4204120000000  0.5355690000000  0.3915270000000 1.0
C      1  0.5035990000000  0.4917340000000  0.3904670000000 1.0
C      1  0.4996290000000  0.5360850000000  0.5795160000000 1.0
C      1  0.4405580000000  0.5793650000000  0.4711880000000 1.0
C      1  0.5731440000000  0.5739450000000  0.4667660000000 1.0
C      1  0.4005850000000  0.5189130000000  0.6019310000000 1.0
C      1  0.4884300000000  0.5756440000000  0.4775590000000 1.0
C      1  0.5293260000000  0.5726360000000  0.5008020000000 1.0
C      1  0.4556680000000  0.5023140000000  0.5578190000000 1.0
C      1  0.5507690000000  0.5026160000000  0.4671490000000 1.0
C      1  0.6262630000000  0.4626120000000  0.5252590000000 1.0
C      1  0.4115600000000  0.4948150000000  0.6055030000000 1.0
C      1  0.5265740000000  0.6015190000000  0.5800970000000 1.0
C      1  0.4045010000000  0.5159690000000  0.5070980000000 1.0
C      1  0.6341560000000  0.4861750000000  0.5152640000000 1.0
C      1  0.5181190000000  0.4171230000000  0.5073030000000 1.0
C      1  0.5910300000000  0.4266520000000  0.4848550000000 1.0
C      1  0.4737920000000  0.6228070000000  0.4474550000000 1.0
C      1  0.4735680000000  0.4193050000000  0.5255860000000 1.0
C      1  0.5457520000000  0.5173390000000  0.5840280000000 1.0
C      1  0.4227500000000  0.4548080000000  0.5805900000000 1.0
C      1  0.5918900000000  0.4002960000000  0.4449620000000 1.0
C      1  0.4190200000000  0.5988820000000  0.5366740000000 1.0
C      1  0.5934750000000  0.5217010000000  0.4096630000000 1.0
C      1  0.5058100000000  0.5074840000000  0.4999670000000 1.0
C      1  0.5017480000000  0.5005200000000  0.3646610000000 1.0
C      1  0.6095420000000  0.4965940000000  0.4755440000000 1.0
C      1  0.5183450000000  0.4506600000000  0.5585340000000 1.0
C      1  0.4479070000000  0.3737070000000  0.4843760000000 1.0
C      1  0.5075000000000  0.4805030000000  0.5068480000000 1.0
C      1  0.4632330000000  0.5633160000000  0.4748720000000 1.0
C      1  0.4553560000000  0.5516600000000  0.5325570000000 1.0
C      1  0.5151050000000  0.4486500000000  0.4258670000000 1.0
C      1  0.4037960000000  0.4365360000000  0.4663050000000 1.0
C      1  0.3898490000000  0.5103270000000  0.4829960000000 1.0
C      1  0.4846600000000  0.6152770000000  0.5390210000000 1.0
C      1  0.4209420000000  0.5670040000000  0.4543120000000 1.0
C      1  0.4672850000000  0.5368220000000  0.5121890000000 1.0
C      1  0.5137480000000  0.4392630000000  0.4888840000000 1.0
C      1  0.5999680000000  0.5505950000000  0.5017720000000 1.0
C      1  0.4732600000000  0.5690060000000  0.5459260000000 1.0
C      1  0.4495560000000  0.4486030000000  0.4676610000000 1.0
C      1  0.4306840000000  0.4787550000000  0.5926370000000 1.0
C      1  0.5159530000000  0.5988000000000  0.5064940000000 1.0
C      1  0.4595430000000  0.5723840000000  0.5981060000000 1.0
C      1  0.5554760000000  0.4346160000000  0.5810310000000 1.0
C      1  0.4178840000000  0.4041780000000  0.5003580000000 1.0
C      1  0.6195270000000  0.4345360000000  0.4170560000000 1.0
C      1  0.4958070000000  0.4671690000000  0.5623280000000 1.0
C      1  0.4646010000000  0.4625940000000  0.5036720000000 1.0
C      1  0.4866480000000  0.5183350000000  0.5190460000000 1.0
C      1  0.4821070000000  0.5267610000000  0.6003980000000 1.0
C      1  0.4038450000000  0.5407830000000  0.5870190000000 1.0
C      1  0.5762150000000  0.5621000000000  0.4922020000000 1.0
C      1  0.5125640000000  0.4226150000000  0.5549790000000 1.0
C      1  0.6083590000000  0.5235720000000  0.5920860000000 1.0
C      1  0.5140480000000  0.5843560000000  0.5989050000000 1.0
C      1  0.4322910000000  0.4811630000000  0.4157960000000 1.0
C      1  0.5447400000000  0.5394350000000  0.6026400000000 1.0
C      1  0.4979200000000  0.4799650000000  0.6104290000000 1.0
C      1  0.5904680000000  0.4281010000000  0.5131340000000 1.0
C      1  0.4231960000000  0.4945530000000  0.5194000000000 1.0
C      1  0.5507830000000  0.5325800000000  0.5231820000000 1.0
C      1  0.4939410000000  0.6027190000000  0.4866450000000 1.0
C      1  0.6207960000000  0.5286920000000  0.6144070000000 1.0
C      1  0.4482060000000  0.4877140000000  0.5002480000000 1.0
C      1  0.5487160000000  0.5252110000000  0.3760370000000 1.0
C      1  0.5289540000000  0.6089350000000  0.5544160000000 1.0
C      1  0.5635550000000  0.5072730000000  0.5192240000000 1.0
C      1  0.4682070000000  0.3908740000000  0.4437680000000 1.0
C      1  0.5276340000000  0.4928290000000  0.4063330000000 1.0
C      1  0.5013610000000  0.4149250000000  0.5296780000000 1.0
C      1  0.4321780000000  0.3803820000000  0.5057860000000 1.0
C      1  0.5038690000000  0.5400090000000  0.4380160000000 1.0
C      1  0.4335890000000  0.5998920000000  0.4898380000000 1.0
C      1  0.4631520000000  0.4457230000000  0.5278770000000 1.0
C      1  0.6259120000000  0.4852400000000  0.4176190000000 1.0
C      1  0.4035660000000  0.5649810000000  0.5014130000000 1.0
C      1  0.4390720000000  0.5969850000000  0.5571260000000 1.0
C      1  0.4922980000000  0.5573360000000  0.5624610000000 1.0
C      1  0.6320700000000  0.4588310000000  0.4555930000000 1.0
C      1  0.5316830000000  0.4723620000000  0.4262700000000 1.0
C      1  0.5308160000000  0.5318170000000  0.5427810000000 1.0
C      1  0.4763190000000  0.5052760000000  0.4567810000000 1.0
C      1  0.5666150000000  0.5214420000000  0.4208100000000 1.0
C      1  0.6196880000000  0.5056470000000  0.5007580000000 1.0
C      1  0.5499780000000  0.4677620000000  0.5015240000000 1.0
C      1  0.4849940000000  0.5864360000000  0.6013510000000 1.0
C      1  0.5304830000000  0.5622470000000  0.6076650000000 1.0
C      1  0.4079890000000  0.5423680000000  0.5187520000000 1.0
C      1  0.5020660000000  0.4950180000000  0.5590820000000 1.0
C      1  0.4474650000000  0.5876600000000  0.4198430000000 1.0
C      1  0.4882150000000  0.4541580000000  0.4150180000000 1.0
C      1  0.5203310000000  0.5174740000000  0.5673800000000 1.0
C      1  0.5134760000000  0.4041130000000  0.5751410000000 1.0
C      1  0.4049710000000  0.4701160000000  0.5232080000000 1.0
C      1  0.4756640000000  0.6216310000000  0.4758790000000 1.0
C      1  0.5799990000000  0.4045940000000  0.4702930000000 1.0
C      1  0.6058060000000  0.4129180000000  0.4256090000000 1.0
C      1  0.4504770000000  0.6224440000000  0.4893440000000 1.0
C      1  0.6296730000000  0.4588650000000  0.4273100000000 1.0
C      1  0.3862710000000  0.4658930000000  0.5004790000000 1.0
C      1  0.5453110000000  0.4072940000000  0.5059570000000 1.0
C      1  0.6122100000000  0.5082810000000  0.4266960000000 1.0
C      1  0.5483510000000  0.4773500000000  0.4484080000000 1.0
C      1  0.4809050000000  0.5236630000000  0.4349020000000 1.0
C      1  0.5654450000000  0.4179720000000  0.5263730000000 1.0
C      1  0.4505260000000  0.4434770000000  0.4423350000000 1.0
C      1  0.4028560000000  0.4237270000000  0.5138800000000 1.0
C      1  0.4016940000000  0.4659500000000  0.4563230000000 1.0
C      1  0.4090000000000  0.4433220000000  0.5346940000000 1.0
C      1  0.4328540000000  0.5102280000000  0.5438890000000 1.0
C      1  0.5373620000000  0.4690040000000  0.5464830000000 1.0
C      1  0.5593360000000  0.5784820000000  0.4442280000000 1.0
C      1  0.4138500000000  0.4362490000000  0.5616070000000 1.0
C      1  0.5381640000000  0.5498090000000  0.3702830000000 1.0
C      1  0.5228850000000  0.5150050000000  0.4769430000000 1.0
C      1  0.5524710000000  0.5570370000000  0.5075070000000 1.0
C      1  0.5997510000000  0.5114030000000  0.4535620000000 1.0
C      1  0.5389570000000  0.5740890000000  0.4273040000000 1.0
C      1  0.6019330000000  0.4496350000000  0.5286000000000 1.0
C      1  0.5664680000000  0.4334460000000  0.5541630000000 1.0
C      1  0.4213680000000  0.5538340000000  0.5694720000000 1.0
C      1  0.4299110000000  0.5039120000000  0.4572050000000 1.0
C      1  0.5709810000000  0.5180080000000  0.4501430000000 1.0
C      1  0.5522310000000  0.4009060000000  0.4771650000000 1.0
C      1  0.6101150000000  0.5282300000000  0.5155340000000 1.0
C      1  0.4773450000000  0.4983750000000  0.6017760000000 1.0
C      1  0.5463800000000  0.5140120000000  0.4023650000000 1.0
C      1  0.5873920000000  0.4512290000000  0.4704350000000 1.0
C      1  0.5300520000000  0.4722130000000  0.5199880000000 1.0
C      1  0.4098290000000  0.4097560000000  0.5697280000000 1.0
C      1  0.4812410000000  0.4786500000000  0.4025680000000 1.0
C      1  0.4153720000000  0.5903990000000  0.5096070000000 1.0
C      1  0.4567160000000  0.4934150000000  0.4072090000000 1.0
C      1  0.5121830000000  0.5607870000000  0.4806050000000 1.0
C      1  0.5685360000000  0.5048350000000  0.5704480000000 1.0
C      1  0.3890830000000  0.4383730000000  0.4927360000000 1.0
C      1  0.5327040000000  0.4062030000000  0.4557090000000 1.0
C      1  0.5152080000000  0.5386150000000  0.4642690000000 1.0
C      1  0.5643170000000  0.4837130000000  0.5492550000000 1.0
C      1  0.5824170000000  0.4588180000000  0.5478090000000 1.0
C      1  0.5407410000000  0.4495900000000  0.4817300000000 1.0
C      1  0.4380310000000  0.5403330000000  0.4122490000000 1.0
C      1  0.6053050000000  0.5255240000000  0.5435190000000 1.0
C      1  0.4225890000000  0.4120260000000  0.4708090000000 1.0
C      1  0.5941320000000  0.5182130000000  0.5686470000000 1.0
C      1  0.4585050000000  0.5372240000000  0.4858770000000 1.0
C      1  0.3998360000000  0.5579010000000  0.4722260000000 1.0
C      1  0.4657930000000  0.5965570000000  0.5471330000000 1.0
C      1  0.4529050000000  0.5084940000000  0.4759370000000 1.0
C      1  0.4805960000000  0.5057620000000  0.5440720000000 1.0
C      1  0.3876130000000  0.4825400000000  0.4772270000000 1.0
C      1  0.4068670000000  0.3847110000000  0.5762930000000 1.0
C      1  0.5139910000000  0.4207680000000  0.4391460000000 1.0
C      1  0.4709620000000  0.4574430000000  0.5525210000000 1.0
C      1  0.4723080000000  0.3663930000000  0.4319160000000 1.0
C      1  0.5616780000000  0.4930750000000  0.4950710000000 1.0
C      1  0.5118920000000  0.6104800000000  0.5321470000000 1.0
END
