TITL C-627107-135-1660 0.000923408361039818 125000 -363.379906468349 0 0 60 (C1) n - 1
REM
REM in /home/nfs/bkarasulu/CARBON/AIRSS/Generating-Clusters/LCBOP/Only-C1/SD-CG/FIRE-CG
REM
REM
REM
REM
REM
REM ./C.cell (11c1c37f851c82e70ff6c80c92926a4b)
REM AIRSS Version 0.9.1 bugfix July 2018 build 013d7b7c2542+ Fri, 06 Jul 2018 19:26:36 +0100
REM compiler GCC version 9.2.1 20190827 (Red Hat 9.2.1-1)
REM options -cpp -mtune=generic -march=x86-64 -g -O0 -fpre-include=/usr/include/finclude/math-vector-fortran.h
REM seed -2080122442 1393647916 318391357 1013405267 -1117456848 -1848034130 15449764 1515772254 2140502667 729583284 1812533570 -652630289 -1818347979 -385383037 641821527 -400628757 1376228961 1107987660 -1498146228 1725720640 -412913005 414752693 -1973189484 -1019137547 1295938348 1125966785 -1765861812 -1088868632 11219594 747145294 -119594825 -1688678684 1036968629
REM
CELL 1.54180   50.00000   50.00000   50.00000   90.00000   90.00000   90.00000
LATT -1
SFAC C  
C      1  0.5826740000000  0.5198170000000  0.5546320000000 1.0
C      1  0.5085170000000  0.5512010000000  0.5914380000000 1.0
C      1  0.4381780000000  0.4633600000000  0.5646350000000 1.0
C      1  0.3777450000000  0.4679020000000  0.4306480000000 1.0
C      1  0.5451810000000  0.4420230000000  0.5230760000000 1.0
C      1  0.5065510000000  0.4830730000000  0.4762810000000 1.0
C      1  0.5040960000000  0.5695860000000  0.3796540000000 1.0
C      1  0.6053460000000  0.5287530000000  0.5436510000000 1.0
C      1  0.5061240000000  0.5438510000000  0.5435420000000 1.0
C      1  0.6032640000000  0.5359170000000  0.4948440000000 1.0
C      1  0.5037650000000  0.5509110000000  0.6177490000000 1.0
C      1  0.5077650000000  0.5340460000000  0.6382820000000 1.0
C      1  0.5012370000000  0.5605600000000  0.4982200000000 1.0
C      1  0.5194960000000  0.5582250000000  0.4497520000000 1.0
C      1  0.4703420000000  0.4371200000000  0.3987750000000 1.0
C      1  0.4976360000000  0.5404430000000  0.5171340000000 1.0
C      1  0.5778820000000  0.5293230000000  0.4847030000000 1.0
C      1  0.5172300000000  0.5376590000000  0.5684250000000 1.0
C      1  0.4336920000000  0.4849490000000  0.5477170000000 1.0
C      1  0.4871200000000  0.5150400000000  0.5092100000000 1.0
C      1  0.4550330000000  0.5042190000000  0.5440430000000 1.0
C      1  0.5259260000000  0.4865160000000  0.5203390000000 1.0
C      1  0.4468060000000  0.4507530000000  0.4002520000000 1.0
C      1  0.5314610000000  0.4960680000000  0.6189780000000 1.0
C      1  0.5055700000000  0.4944380000000  0.5018460000000 1.0
C      1  0.5672740000000  0.5404160000000  0.4613920000000 1.0
C      1  0.4802210000000  0.5329550000000  0.4375130000000 1.0
C      1  0.4603120000000  0.5095810000000  0.5158840000000 1.0
C      1  0.6011450000000  0.3940620000000  0.4944710000000 1.0
C      1  0.4246320000000  0.4868040000000  0.4316440000000 1.0
C      1  0.5006400000000  0.5506100000000  0.4300180000000 1.0
C      1  0.5078490000000  0.4530310000000  0.5516630000000 1.0
C      1  0.5066200000000  0.4730250000000  0.4516360000000 1.0
C      1  0.4702740000000  0.4864870000000  0.4234740000000 1.0
C      1  0.6142880000000  0.5355770000000  0.5193160000000 1.0
C      1  0.5638800000000  0.4258220000000  0.5136240000000 1.0
C      1  0.5261690000000  0.4605400000000  0.5319110000000 1.0
C      1  0.4926770000000  0.4692980000000  0.4277220000000 1.0
C      1  0.5022990000000  0.5605080000000  0.4040160000000 1.0
C      1  0.5558330000000  0.5128930000000  0.5500530000000 1.0
C      1  0.5464580000000  0.5508570000000  0.4484940000000 1.0
C      1  0.3987590000000  0.4811030000000  0.4426690000000 1.0
C      1  0.3995580000000  0.4922520000000  0.4693250000000 1.0
C      1  0.4650810000000  0.5099580000000  0.4396150000000 1.0
C      1  0.4359860000000  0.5009030000000  0.5018830000000 1.0
C      1  0.4207490000000  0.4857640000000  0.5219290000000 1.0
C      1  0.4926850000000  0.4459110000000  0.4116530000000 1.0
C      1  0.4256010000000  0.5037470000000  0.4761170000000 1.0
C      1  0.5196930000000  0.5099110000000  0.6387740000000 1.0
C      1  0.3582950000000  0.4551660000000  0.4188720000000 1.0
C      1  0.4390560000000  0.5053390000000  0.4506470000000 1.0
C      1  0.5367370000000  0.4996940000000  0.5930200000000 1.0
C      1  0.4445000000000  0.4746140000000  0.4150210000000 1.0
C      1  0.5480380000000  0.5040800000000  0.5240360000000 1.0
C      1  0.4858780000000  0.4466020000000  0.5651560000000 1.0
C      1  0.5614590000000  0.5136010000000  0.5012810000000 1.0
C      1  0.5826660000000  0.4098090000000  0.5039690000000 1.0
C      1  0.5364670000000  0.5164830000000  0.5704980000000 1.0
C      1  0.4599200000000  0.4489870000000  0.5707410000000 1.0
C      1  0.5096630000000  0.5678590000000  0.4741390000000 1.0
END
