TITL C-627109-622-1642 645586.506747937 125000 -1040.15819469822 0 0 171 (C1) n - 1
REM
REM in /home/nfs/bkarasulu/CARBON/AIRSS/Generating-Clusters/LCBOP/Only-C1/SD-CG/FIRE-CG
REM
REM
REM
REM
REM
REM ./C.cell (11c1c37f851c82e70ff6c80c92926a4b)
REM AIRSS Version 0.9.1 bugfix July 2018 build 013d7b7c2542+ Fri, 06 Jul 2018 19:26:36 +0100
REM compiler GCC version 9.2.1 20190827 (Red Hat 9.2.1-1)
REM options -cpp -mtune=generic -march=x86-64 -g -O0 -fpre-include=/usr/include/finclude/math-vector-fortran.h
REM seed 1824345719 240571464 -2092882841 -213135815 -764187086 199395420 1325002646 -1044616978 1788312551 314376467 1159026323 1141925105 1720566371 1059916639 -1060669869 1916687542 -1044945574 1229029077 -312452660 -1122338319 32463790 -134450791 -727490359 457388888 873321404 737944232 842203401 -961003475 451883627 462228093 -50620031 -1044733014 674590675
REM
CELL 1.54180   50.00000   50.00000   50.00000   90.00000   90.00000   90.00000
LATT -1
SFAC C  
C      1  0.4451110000000  0.4442040000000  0.4021550000000 1.0
C      1  0.5334150000000  0.6122450000000  0.5504620000000 1.0
C      1  0.4698410000000  0.6036290000000  0.5459970000000 1.0
C      1  0.4351760000000  0.4442610000000  0.5705920000000 1.0
C      1  0.5246820000000  0.5079650000000  0.6006660000000 1.0
C      1  0.5093220000000  0.5640500000000  0.5959940000000 1.0
C      1  0.5138850000000  0.6138540000000  0.5292130000000 1.0
C      1  0.5178400000000  0.4512210000000  0.5370630000000 1.0
C      1  0.4715050000000  0.5357520000000  0.4536740000000 1.0
C      1  0.5560140000000  0.4573530000000  0.5032630000000 1.0
C      1  0.4442330000000  0.5659880000000  0.6010590000000 1.0
C      1  0.5399700000000  0.4610500000000  0.5561580000000 1.0
C      1  0.5325800000000  0.4613440000000  0.5848160000000 1.0
C      1  0.5443220000000  0.5949240000000  0.4934970000000 1.0
C      1  0.5734010000000  0.5525310000000  0.4704810000000 1.0
C      1  0.4907850000000  0.4143330000000  0.4283150000000 1.0
C      1  0.4161880000000  0.4913460000000  0.4472560000000 1.0
C      1  0.4753690000000  0.6338040000000  0.5084030000000 1.0
C      1  0.4867930000000  0.5465590000000  0.6009070000000 1.0
C      1  0.4087460000000  0.4671180000000  0.5071370000000 1.0
C      1  0.5678790000000  0.5535670000000  0.4082860000000 1.0
C      1  0.3931660000000  0.4756180000000  0.4835970000000 1.0
C      1  0.4066990000000  0.5376360000000  0.4117320000000 1.0
C      1  0.5085430000000  0.4853940000000  0.4716710000000 1.0
C      1  0.4212870000000  0.5625370000000  0.4502690000000 1.0
C      1  0.4772690000000  0.4673690000000  0.5669630000000 1.0
C      1  0.5591890000000  0.3949240000000  0.5766280000000 1.0
C      1  0.5168270000000  0.4399730000000  0.4850310000000 1.0
C      1  0.5157860000000  0.5366750000000  0.4272520000000 1.0
C      1  0.5292590000000  0.4457200000000  0.5107160000000 1.0
C      1  0.5604250000000  0.4385360000000  0.5550420000000 1.0
C      1  0.5229040000000  0.6073180000000  0.5764870000000 1.0
C      1  0.6047970000000  0.5196170000000  0.4920870000000 1.0
C      1  0.5601110000000  0.4825770000000  0.5148520000000 1.0
C      1  0.4965110000000  0.5220190000000  0.4124550000000 1.0
C      1  0.5512420000000  0.4865230000000  0.5439630000000 1.0
C      1  0.4859620000000  0.4716270000000  0.3913890000000 1.0
C      1  0.4217250000000  0.4862330000000  0.5251880000000 1.0
C      1  0.5096070000000  0.6054420000000  0.4598020000000 1.0
C      1  0.5442230000000  0.5269710000000  0.5075400000000 1.0
C      1  0.5883890000000  0.5462160000000  0.4955240000000 1.0
C      1  0.4796280000000  0.4047350000000  0.6057210000000 1.0
C      1  0.6018030000000  0.5330770000000  0.5744120000000 1.0
C      1  0.5773020000000  0.4958100000000  0.5554650000000 1.0
C      1  0.4511970000000  0.5935700000000  0.6001150000000 1.0
C      1  0.4358860000000  0.4306610000000  0.5472040000000 1.0
C      1  0.4607260000000  0.4714950000000  0.4636750000000 1.0
C      1  0.5595060000000  0.5060670000000  0.4991760000000 1.0
C      1  0.4338400000000  0.4234080000000  0.4155920000000 1.0
C      1  0.4621950000000  0.5454980000000  0.5157650000000 1.0
C      1  0.6135780000000  0.4361850000000  0.4508940000000 1.0
C      1  0.5655250000000  0.3896440000000  0.5064840000000 1.0
C      1  0.4439550000000  0.3721780000000  0.5234320000000 1.0
C      1  0.4863960000000  0.3893740000000  0.5108400000000 1.0
C      1  0.5131920000000  0.5587100000000  0.5441570000000 1.0
C      1  0.5251640000000  0.4037130000000  0.5432630000000 1.0
C      1  0.4440750000000  0.4971960000000  0.4573170000000 1.0
C      1  0.6019180000000  0.4602860000000  0.4409080000000 1.0
C      1  0.4162030000000  0.5345260000000  0.4983920000000 1.0
C      1  0.4708320000000  0.4844220000000  0.5133170000000 1.0
C      1  0.4315290000000  0.6124800000000  0.5942560000000 1.0
C      1  0.5407880000000  0.3998910000000  0.4373820000000 1.0
C      1  0.4736200000000  0.4607860000000  0.4371590000000 1.0
C      1  0.4709660000000  0.4554900000000  0.5239980000000 1.0
C      1  0.4457620000000  0.5177960000000  0.5873140000000 1.0
C      1  0.5340150000000  0.5522600000000  0.5866750000000 1.0
C      1  0.5955970000000  0.4218840000000  0.4658540000000 1.0
C      1  0.4245960000000  0.5294250000000  0.3934510000000 1.0
C      1  0.5591150000000  0.6034840000000  0.5397450000000 1.0
C      1  0.3859140000000  0.5046770000000  0.4789680000000 1.0
C      1  0.4356750000000  0.4946310000000  0.5727290000000 1.0
C      1  0.5200730000000  0.5942630000000  0.5092930000000 1.0
C      1  0.5862210000000  0.4045440000000  0.5153270000000 1.0
C      1  0.4059750000000  0.5396360000000  0.4401850000000 1.0
C      1  0.4468700000000  0.4403440000000  0.5230720000000 1.0
C      1  0.4814410000000  0.6114730000000  0.4615540000000 1.0
C      1  0.4689900000000  0.5153630000000  0.4132190000000 1.0
C      1  0.4605820000000  0.5988760000000  0.4454360000000 1.0
C      1  0.4304270000000  0.4480860000000  0.5018840000000 1.0
C      1  0.4493450000000  0.4683890000000  0.5746570000000 1.0
C      1  0.3983730000000  0.6357680000000  0.5612390000000 1.0
C      1  0.5034240000000  0.5021780000000  0.5854880000000 1.0
C      1  0.4699240000000  0.3790720000000  0.5325430000000 1.0
C      1  0.5279760000000  0.5286280000000  0.4521900000000 1.0
C      1  0.5483830000000  0.4122160000000  0.5582000000000 1.0
C      1  0.5789340000000  0.4817010000000  0.4027430000000 1.0
C      1  0.5754810000000  0.5600950000000  0.5196060000000 1.0
C      1  0.4497250000000  0.5199320000000  0.3933800000000 1.0
C      1  0.5969850000000  0.4259190000000  0.5280940000000 1.0
C      1  0.5677530000000  0.5286600000000  0.3978930000000 1.0
C      1  0.5933840000000  0.5011910000000  0.4710500000000 1.0
C      1  0.5906400000000  0.4750270000000  0.4618000000000 1.0
C      1  0.4386730000000  0.3801190000000  0.4979930000000 1.0
C      1  0.3984890000000  0.5143410000000  0.4533340000000 1.0
C      1  0.5172870000000  0.5222370000000  0.5002950000000 1.0
C      1  0.4823650000000  0.4799120000000  0.4836840000000 1.0
C      1  0.5127630000000  0.4145220000000  0.4745060000000 1.0
C      1  0.5091830000000  0.5082080000000  0.5243580000000 1.0
C      1  0.5493190000000  0.5706510000000  0.4211410000000 1.0
C      1  0.4899640000000  0.4519370000000  0.5450900000000 1.0
C      1  0.5275370000000  0.4627320000000  0.4673780000000 1.0
C      1  0.3798990000000  0.5207040000000  0.5272610000000 1.0
C      1  0.5557890000000  0.5323550000000  0.4591300000000 1.0
C      1  0.5855310000000  0.4585610000000  0.4171670000000 1.0
C      1  0.4321830000000  0.4188760000000  0.4439100000000 1.0
C      1  0.5229530000000  0.3965330000000  0.4572920000000 1.0
C      1  0.5646410000000  0.5878540000000  0.5151210000000 1.0
C      1  0.4655200000000  0.4627230000000  0.4090820000000 1.0
C      1  0.4633870000000  0.5762810000000  0.5476830000000 1.0
C      1  0.4534790000000  0.4014920000000  0.4567510000000 1.0
C      1  0.4468300000000  0.5755520000000  0.4556130000000 1.0
C      1  0.4362100000000  0.5142700000000  0.4891670000000 1.0
C      1  0.4655490000000  0.5581590000000  0.4677350000000 1.0
C      1  0.4735780000000  0.6289830000000  0.4821640000000 1.0
C      1  0.5869180000000  0.4461810000000  0.5455310000000 1.0
C      1  0.4598970000000  0.5148920000000  0.4400290000000 1.0
C      1  0.5593750000000  0.4572090000000  0.4725820000000 1.0
C      1  0.5044100000000  0.5774890000000  0.4015460000000 1.0
C      1  0.6169000000000  0.4855800000000  0.5304860000000 1.0
C      1  0.5146020000000  0.5132700000000  0.4730240000000 1.0
C      1  0.5107200000000  0.4804790000000  0.3855520000000 1.0
C      1  0.5311320000000  0.5070290000000  0.5401400000000 1.0
C      1  0.6188630000000  0.5059610000000  0.5127470000000 1.0
C      1  0.5811470000000  0.5246600000000  0.5580600000000 1.0
C      1  0.5047580000000  0.5922370000000  0.5926220000000 1.0
C      1  0.3898160000000  0.5226760000000  0.5007490000000 1.0
C      1  0.4047960000000  0.4657500000000  0.4571480000000 1.0
C      1  0.5413530000000  0.5290600000000  0.6007640000000 1.0
C      1  0.5383790000000  0.5533650000000  0.5581010000000 1.0
C      1  0.4820570000000  0.5919900000000  0.4006870000000 1.0
C      1  0.4739990000000  0.5318860000000  0.5374390000000 1.0
C      1  0.4765000000000  0.3800050000000  0.5595000000000 1.0
C      1  0.4835370000000  0.5040420000000  0.5359630000000 1.0
C      1  0.4586460000000  0.5417610000000  0.5973510000000 1.0
C      1  0.5689220000000  0.4351580000000  0.4133380000000 1.0
C      1  0.4138720000000  0.6260000000000  0.5797980000000 1.0
C      1  0.4732600000000  0.4445110000000  0.6393460000000 1.0
C      1  0.4435820000000  0.4971570000000  0.5101470000000 1.0
C      1  0.5521800000000  0.5887000000000  0.4428700000000 1.0
C      1  0.5224760000000  0.5622440000000  0.4163580000000 1.0
C      1  0.5650850000000  0.5461290000000  0.5451890000000 1.0
C      1  0.4787340000000  0.6007640000000  0.6000450000000 1.0
C      1  0.5145820000000  0.5685100000000  0.5180080000000 1.0
C      1  0.4222600000000  0.4421900000000  0.4572290000000 1.0
C      1  0.4769020000000  0.4237500000000  0.6239960000000 1.0
C      1  0.5502500000000  0.4205150000000  0.3651530000000 1.0
C      1  0.5617630000000  0.4269880000000  0.3876230000000 1.0
C      1  0.5152150000000  0.3919790000000  0.5183140000000 1.0
C      1  0.4878060000000  0.4935170000000  0.5641120000000 1.0
C      1  0.4740420000000  0.3955030000000  0.4378660000000 1.0
C      1  0.4928470000000  0.4398380000000  0.4368040000000 1.0
C      1  0.4420380000000  0.4508090000000  0.4761570000000 1.0
C      1  0.5682000000000  0.4299410000000  0.4617910000000 1.0
C      1  0.4854720000000  0.5549570000000  0.5518280000000 1.0
C      1  0.5659480000000  0.5091910000000  0.4719800000000 1.0
C      1  0.5585390000000  0.4215130000000  0.4361120000000 1.0
C      1  0.4201380000000  0.5583220000000  0.5145710000000 1.0
C      1  0.4439660000000  0.5643650000000  0.5286500000000 1.0
C      1  0.4634280000000  0.6012980000000  0.4175300000000 1.0
C      1  0.5316140000000  0.4536820000000  0.6097440000000 1.0
C      1  0.4863140000000  0.6207600000000  0.5307630000000 1.0
C      1  0.5604610000000  0.5014510000000  0.3949300000000 1.0
C      1  0.5391570000000  0.3835010000000  0.5047240000000 1.0
C      1  0.4158850000000  0.4968820000000  0.5511530000000 1.0
C      1  0.3920090000000  0.5122860000000  0.5502210000000 1.0
C      1  0.5373510000000  0.5979140000000  0.4653440000000 1.0
C      1  0.4794120000000  0.3893140000000  0.5841570000000 1.0
C      1  0.5346730000000  0.4926340000000  0.3869240000000 1.0
C      1  0.5965860000000  0.4746070000000  0.5473000000000 1.0
C      1  0.4598980000000  0.3929670000000  0.4843240000000 1.0
C      1  0.4738060000000  0.5568840000000  0.4936280000000 1.0
END
