TITL C-627108-131-1133 -2.56185142149059e-07 125000 -672.744672194204 0 0 113 (C1) n - 1
REM
REM in /home/nfs/bkarasulu/CARBON/AIRSS/Generating-Clusters/LCBOP/Only-C1/SD-CG/FIRE-CG
REM
REM
REM
REM
REM
REM ./C.cell (11c1c37f851c82e70ff6c80c92926a4b)
REM AIRSS Version 0.9.1 bugfix July 2018 build 013d7b7c2542+ Fri, 06 Jul 2018 19:26:36 +0100
REM compiler GCC version 9.2.1 20190827 (Red Hat 9.2.1-1)
REM options -cpp -mtune=generic -march=x86-64 -g -O0 -fpre-include=/usr/include/finclude/math-vector-fortran.h
REM seed -743975971 2035994444 -1047068849 -1462573817 1385301540 1272966198 -1516876698 579921805 1409267790 -948828554 116142489 622304352 1249229093 2109537438 394633227 -923394156 -892798557 1228496538 -376481083 -189787472 -954737958 986562094 -516905036 659104664 1789161414 1841764780 1978262486 -1150856911 1221444771 312123470 681398512 970990938 -116153653
REM
CELL 1.54180   50.00000   50.00000   50.00000   90.00000   90.00000   90.00000
LATT -1
SFAC C  
C      1  0.4544960000000  0.4765880000000  0.5599850000000 1.0
C      1  0.5792860000000  0.5436280000000  0.5283320000000 1.0
C      1  0.4847940000000  0.4361100000000  0.5472500000000 1.0
C      1  0.3877300000000  0.4699040000000  0.5277400000000 1.0
C      1  0.4351250000000  0.5792160000000  0.5212560000000 1.0
C      1  0.5197730000000  0.4725980000000  0.4463240000000 1.0
C      1  0.4204070000000  0.4720450000000  0.4416200000000 1.0
C      1  0.5356320000000  0.4758870000000  0.4890220000000 1.0
C      1  0.4345880000000  0.4293430000000  0.4617000000000 1.0
C      1  0.5007470000000  0.4757340000000  0.5753340000000 1.0
C      1  0.5423400000000  0.4782800000000  0.4623330000000 1.0
C      1  0.4569640000000  0.5297870000000  0.5567850000000 1.0
C      1  0.5012950000000  0.5234910000000  0.5906910000000 1.0
C      1  0.5373770000000  0.5494190000000  0.5461650000000 1.0
C      1  0.5295450000000  0.6287950000000  0.4989350000000 1.0
C      1  0.4881780000000  0.5470470000000  0.5880410000000 1.0
C      1  0.5774990000000  0.4836340000000  0.4277370000000 1.0
C      1  0.4279720000000  0.4666760000000  0.5620140000000 1.0
C      1  0.5078110000000  0.5853730000000  0.5460210000000 1.0
C      1  0.3947380000000  0.5549490000000  0.5745430000000 1.0
C      1  0.3841260000000  0.4976620000000  0.5233690000000 1.0
C      1  0.4973870000000  0.3891670000000  0.4775090000000 1.0
C      1  0.4780760000000  0.4166630000000  0.4363190000000 1.0
C      1  0.5119440000000  0.5525180000000  0.4367990000000 1.0
C      1  0.6102720000000  0.4790480000000  0.4930310000000 1.0
C      1  0.5462400000000  0.5179000000000  0.4370320000000 1.0
C      1  0.4443180000000  0.5374300000000  0.4581360000000 1.0
C      1  0.5339490000000  0.6024130000000  0.4906830000000 1.0
C      1  0.5227590000000  0.4620030000000  0.5861720000000 1.0
C      1  0.5835410000000  0.4868950000000  0.5416570000000 1.0
C      1  0.4774590000000  0.4743980000000  0.4631700000000 1.0
C      1  0.5480040000000  0.5843680000000  0.5089350000000 1.0
C      1  0.5040620000000  0.5038450000000  0.5705510000000 1.0
C      1  0.5126770000000  0.4034980000000  0.5240670000000 1.0
C      1  0.4791190000000  0.4609210000000  0.5624500000000 1.0
C      1  0.4334240000000  0.5192610000000  0.4394520000000 1.0
C      1  0.6013000000000  0.4562470000000  0.5074200000000 1.0
C      1  0.5128430000000  0.5437620000000  0.5020710000000 1.0
C      1  0.5243240000000  0.6527440000000  0.5077820000000 1.0
C      1  0.5807490000000  0.4611010000000  0.5274310000000 1.0
C      1  0.5061940000000  0.5133430000000  0.5436440000000 1.0
C      1  0.4335750000000  0.4658820000000  0.5138670000000 1.0
C      1  0.4142100000000  0.4500550000000  0.4587940000000 1.0
C      1  0.4909740000000  0.5358460000000  0.4242300000000 1.0
C      1  0.5375880000000  0.4389560000000  0.5458980000000 1.0
C      1  0.5118040000000  0.4267220000000  0.5404330000000 1.0
C      1  0.5249810000000  0.5943780000000  0.4647130000000 1.0
C      1  0.4626240000000  0.4849810000000  0.4180030000000 1.0
C      1  0.4724890000000  0.4626390000000  0.4859880000000 1.0
C      1  0.4436380000000  0.4257130000000  0.4894330000000 1.0
C      1  0.5159120000000  0.3994830000000  0.4966660000000 1.0
C      1  0.5307210000000  0.5360560000000  0.4520970000000 1.0
C      1  0.4640590000000  0.4199070000000  0.5349650000000 1.0
C      1  0.4521480000000  0.4259600000000  0.4398240000000 1.0
C      1  0.5260030000000  0.4901370000000  0.5106000000000 1.0
C      1  0.5515220000000  0.4321850000000  0.4995860000000 1.0
C      1  0.4784270000000  0.5842120000000  0.5024940000000 1.0
C      1  0.3939070000000  0.4508760000000  0.4786480000000 1.0
C      1  0.6219590000000  0.4539360000000  0.4315600000000 1.0
C      1  0.5409330000000  0.4478000000000  0.5723700000000 1.0
C      1  0.4502440000000  0.4523160000000  0.4979390000000 1.0
C      1  0.5178080000000  0.5293410000000  0.4775800000000 1.0
C      1  0.5399420000000  0.5073140000000  0.4093720000000 1.0
C      1  0.6039180000000  0.5301610000000  0.4885530000000 1.0
C      1  0.3856330000000  0.4541340000000  0.5041210000000 1.0
C      1  0.6123660000000  0.4310320000000  0.5033990000000 1.0
C      1  0.3984080000000  0.5800500000000  0.5627590000000 1.0
C      1  0.5633160000000  0.4910600000000  0.4035500000000 1.0
C      1  0.5904320000000  0.5542320000000  0.4868500000000 1.0
C      1  0.5163690000000  0.5365920000000  0.5306670000000 1.0
C      1  0.5608720000000  0.5293960000000  0.5128450000000 1.0
C      1  0.4254660000000  0.5163610000000  0.5021180000000 1.0
C      1  0.4004720000000  0.5152330000000  0.5113900000000 1.0
C      1  0.5140870000000  0.5797000000000  0.4446830000000 1.0
C      1  0.4991390000000  0.4955510000000  0.5215320000000 1.0
C      1  0.5608310000000  0.4950420000000  0.4489080000000 1.0
C      1  0.5525960000000  0.5286100000000  0.5612640000000 1.0
C      1  0.5350390000000  0.5773200000000  0.5361080000000 1.0
C      1  0.6046280000000  0.5055450000000  0.5318740000000 1.0
C      1  0.5327750000000  0.4193720000000  0.4828520000000 1.0
C      1  0.4885220000000  0.5036110000000  0.4217770000000 1.0
C      1  0.4971150000000  0.4049290000000  0.4536770000000 1.0
C      1  0.6007060000000  0.4689510000000  0.4301050000000 1.0
C      1  0.3846880000000  0.6018350000000  0.5719790000000 1.0
C      1  0.5471150000000  0.5058080000000  0.5217710000000 1.0
C      1  0.3926330000000  0.5310840000000  0.5848060000000 1.0
C      1  0.4162990000000  0.5825640000000  0.5414370000000 1.0
C      1  0.5129940000000  0.4994550000000  0.4035160000000 1.0
C      1  0.4372180000000  0.4925580000000  0.4306820000000 1.0
C      1  0.5145170000000  0.4460060000000  0.4385370000000 1.0
C      1  0.4038020000000  0.4630890000000  0.5503370000000 1.0
C      1  0.4274730000000  0.5714460000000  0.4950110000000 1.0
C      1  0.5718900000000  0.5723740000000  0.4964210000000 1.0
C      1  0.5205230000000  0.4239530000000  0.4567290000000 1.0
C      1  0.4586590000000  0.5025210000000  0.5476830000000 1.0
C      1  0.4702770000000  0.4999530000000  0.5207890000000 1.0
C      1  0.6217610000000  0.4071510000000  0.4988670000000 1.0
C      1  0.4797600000000  0.5755480000000  0.5485150000000 1.0
C      1  0.6094340000000  0.5053970000000  0.5028910000000 1.0
C      1  0.4942990000000  0.5160430000000  0.4682120000000 1.0
C      1  0.5571830000000  0.4439090000000  0.5252710000000 1.0
C      1  0.4309500000000  0.5580370000000  0.4719950000000 1.0
C      1  0.4681310000000  0.4565120000000  0.4184020000000 1.0
C      1  0.4904760000000  0.4405110000000  0.4234780000000 1.0
C      1  0.4630100000000  0.5823290000000  0.5259570000000 1.0
C      1  0.4512060000000  0.4104090000000  0.5125380000000 1.0
C      1  0.6006970000000  0.5322680000000  0.5406630000000 1.0
C      1  0.4701950000000  0.5307170000000  0.4670780000000 1.0
C      1  0.4512340000000  0.5090040000000  0.5022890000000 1.0
C      1  0.4968520000000  0.4921830000000  0.4499120000000 1.0
C      1  0.4723270000000  0.5529250000000  0.5651790000000 1.0
C      1  0.4979620000000  0.5670880000000  0.4968750000000 1.0
C      1  0.5592130000000  0.5020530000000  0.5485810000000 1.0
END
