TITL C-627110-360-1097 17.5345037578305 125000 -215.629178135264 0 0 36 (C1) n - 1
REM
REM in /home/nfs/bkarasulu/CARBON/AIRSS/Generating-Clusters/LCBOP/Only-C1/SD-CG/FIRE-CG
REM
REM
REM
REM
REM
REM ./C.cell (11c1c37f851c82e70ff6c80c92926a4b)
REM AIRSS Version 0.9.1 bugfix July 2018 build 013d7b7c2542+ Fri, 06 Jul 2018 19:26:36 +0100
REM compiler GCC version 9.2.1 20190827 (Red Hat 9.2.1-1)
REM options -cpp -mtune=generic -march=x86-64 -g -O0 -fpre-include=/usr/include/finclude/math-vector-fortran.h
REM seed 2131241116 324566704 -1277860069 1666652935 -1976811815 -506636968 -1094441393 1977619013 937913758 -572368742 761181715 -875301350 1963324181 -29326312 1869736093 -763153813 1091413494 196488011 77014113 -640357202 -345888638 -1828428813 1503428743 1141650542 1345500370 -1312278649 1280333499 -2038504864 1428124290 1556664049 1564696719 -850108546 1549440495
REM
CELL 1.54180   50.00000   50.00000   50.00000   90.00000   90.00000   90.00000
LATT -1
SFAC C  
C      1  0.4667100000000  0.5458360000000  0.4664240000000 1.0
C      1  0.4300230000000  0.5863770000000  0.5150580000000 1.0
C      1  0.5328910000000  0.3869470000000  0.5037600000000 1.0
C      1  0.5093880000000  0.5653660000000  0.5367960000000 1.0
C      1  0.5172330000000  0.4384470000000  0.5115770000000 1.0
C      1  0.5709640000000  0.2619190000000  0.4847250000000 1.0
C      1  0.5258980000000  0.5462410000000  0.5449340000000 1.0
C      1  0.4191760000000  0.5151550000000  0.5378580000000 1.0
C      1  0.5445860000000  0.4856460000000  0.5053980000000 1.0
C      1  0.5496910000000  0.4978490000000  0.4807280000000 1.0
C      1  0.4810080000000  0.5679930000000  0.4738590000000 1.0
C      1  0.4684800000000  0.4554660000000  0.5277810000000 1.0
C      1  0.4481440000000  0.4714160000000  0.5337550000000 1.0
C      1  0.5015750000000  0.5782020000000  0.4568050000000 1.0
C      1  0.4172970000000  0.5660930000000  0.5265560000000 1.0
C      1  0.4912790000000  0.4441890000000  0.5202920000000 1.0
C      1  0.5634490000000  0.2865980000000  0.4884820000000 1.0
C      1  0.4922240000000  0.5772940000000  0.5204730000000 1.0
C      1  0.4840710000000  0.6263990000000  0.4509160000000 1.0
C      1  0.5350380000000  0.4594880000000  0.5069170000000 1.0
C      1  0.5477790000000  0.5175570000000  0.4630220000000 1.0
C      1  0.5389700000000  0.5404950000000  0.4529350000000 1.0
C      1  0.4642050000000  0.6335320000000  0.4674550000000 1.0
C      1  0.4988460000000  0.6043970000000  0.4471150000000 1.0
C      1  0.4517240000000  0.5969870000000  0.5010930000000 1.0
C      1  0.4139340000000  0.5409370000000  0.5343560000000 1.0
C      1  0.5388720000000  0.5232370000000  0.5421600000000 1.0
C      1  0.5405300000000  0.3618610000000  0.4999410000000 1.0
C      1  0.5558080000000  0.3116900000000  0.4923020000000 1.0
C      1  0.4511250000000  0.6215420000000  0.4875380000000 1.0
C      1  0.5481690000000  0.3367760000000  0.4961220000000 1.0
C      1  0.5235140000000  0.5619900000000  0.4508820000000 1.0
C      1  0.4312150000000  0.4915140000000  0.5374000000000 1.0
C      1  0.5252550000000  0.4120210000000  0.5075770000000 1.0
C      1  0.4752890000000  0.5810020000000  0.4985800000000 1.0
C      1  0.5456410000000  0.5015410000000  0.5284270000000 1.0
END
