TITL C-627112-676-78 -5.1059304375637e-07 125000 -444.98573138252 0 0 74 (C1) n - 1
REM
REM in /home/nfs/bkarasulu/CARBON/AIRSS/Generating-Clusters/LCBOP/Only-C1/SD-CG/FIRE-CG
REM
REM
REM
REM
REM
REM ./C.cell (11c1c37f851c82e70ff6c80c92926a4b)
REM AIRSS Version 0.9.1 bugfix July 2018 build 013d7b7c2542+ Fri, 06 Jul 2018 19:26:36 +0100
REM compiler GCC version 9.2.1 20190827 (Red Hat 9.2.1-1)
REM options -cpp -mtune=generic -march=x86-64 -g -O0 -fpre-include=/usr/include/finclude/math-vector-fortran.h
REM seed 1805374641 1199646651 1036586315 1104369863 -2122915054 1146708394 -1420594087 -1357731212 -456881217 495132594 -161550266 -2078451778 -258157367 -719077550 1985656847 1590124040 -1654281581 -656787508 -590858198 -358429263 -1211631588 -43465570 1804912242 1454409599 -220401498 -1004450758 -1421322653 690135866 -583982965 1700895409 -878047590 -889993081 -1712935136
REM
CELL 1.54180   50.00000   50.00000   50.00000   90.00000   90.00000   90.00000
LATT -1
SFAC C  
C      1  0.4629960000000  0.5482700000000  0.5585540000000 1.0
C      1  0.5760970000000  0.5276170000000  0.5079520000000 1.0
C      1  0.4543670000000  0.4667120000000  0.5768540000000 1.0
C      1  0.5342520000000  0.4874930000000  0.5085860000000 1.0
C      1  0.5561070000000  0.4723650000000  0.5175590000000 1.0
C      1  0.4926480000000  0.5519780000000  0.4044420000000 1.0
C      1  0.5242740000000  0.4297540000000  0.4506600000000 1.0
C      1  0.4194200000000  0.5240340000000  0.5472680000000 1.0
C      1  0.4903460000000  0.4469580000000  0.5159250000000 1.0
C      1  0.4626660000000  0.5148600000000  0.5269850000000 1.0
C      1  0.4573570000000  0.4799730000000  0.4198360000000 1.0
C      1  0.4541180000000  0.5077280000000  0.4249590000000 1.0
C      1  0.5509010000000  0.5181940000000  0.4275050000000 1.0
C      1  0.5117090000000  0.4956960000000  0.5225130000000 1.0
C      1  0.5743010000000  0.4807690000000  0.5647490000000 1.0
C      1  0.4342640000000  0.4917500000000  0.4918410000000 1.0
C      1  0.4584200000000  0.4959010000000  0.4765170000000 1.0
C      1  0.5874910000000  0.4507580000000  0.4870110000000 1.0
C      1  0.4662780000000  0.4581660000000  0.5045860000000 1.0
C      1  0.5058370000000  0.4705740000000  0.4189580000000 1.0
C      1  0.4997360000000  0.4348810000000  0.4656920000000 1.0
C      1  0.4965110000000  0.5355120000000  0.4759440000000 1.0
C      1  0.5217340000000  0.4808490000000  0.4623380000000 1.0
C      1  0.5734880000000  0.4787940000000  0.4500510000000 1.0
C      1  0.5883290000000  0.5147320000000  0.4874510000000 1.0
C      1  0.5788840000000  0.4596220000000  0.5110960000000 1.0
C      1  0.5021540000000  0.4735720000000  0.5656950000000 1.0
C      1  0.4459830000000  0.5534460000000  0.4508750000000 1.0
C      1  0.5246700000000  0.5631590000000  0.5689810000000 1.0
C      1  0.4800880000000  0.4658450000000  0.4301340000000 1.0
C      1  0.5879680000000  0.4984870000000  0.4656830000000 1.0
C      1  0.4703500000000  0.4697010000000  0.4776590000000 1.0
C      1  0.4408240000000  0.4698580000000  0.5121000000000 1.0
C      1  0.4727010000000  0.5190690000000  0.4686860000000 1.0
C      1  0.4704720000000  0.5350310000000  0.5826250000000 1.0
C      1  0.4811150000000  0.5649980000000  0.5432470000000 1.0
C      1  0.4745410000000  0.5089020000000  0.5884470000000 1.0
C      1  0.5035520000000  0.5485490000000  0.5008760000000 1.0
C      1  0.5253770000000  0.4897970000000  0.5722520000000 1.0
C      1  0.5437400000000  0.5209640000000  0.4734260000000 1.0
C      1  0.5072090000000  0.4347590000000  0.4953390000000 1.0
C      1  0.5537530000000  0.4893870000000  0.4307510000000 1.0
C      1  0.4988570000000  0.4550910000000  0.5428480000000 1.0
C      1  0.5368840000000  0.5322690000000  0.4483280000000 1.0
C      1  0.4114520000000  0.5014170000000  0.5319750000000 1.0
C      1  0.4464880000000  0.5314730000000  0.5427600000000 1.0
C      1  0.5215650000000  0.5158070000000  0.5855030000000 1.0
C      1  0.5035990000000  0.5747740000000  0.5571450000000 1.0
C      1  0.4120860000000  0.5055450000000  0.5032150000000 1.0
C      1  0.4027090000000  0.5370990000000  0.5643270000000 1.0
C      1  0.4255600000000  0.4757140000000  0.5360210000000 1.0
C      1  0.5341260000000  0.4960400000000  0.4820770000000 1.0
C      1  0.4806970000000  0.4542860000000  0.4566380000000 1.0
C      1  0.4777580000000  0.4821030000000  0.5792710000000 1.0
C      1  0.4331180000000  0.4652000000000  0.5606910000000 1.0
C      1  0.4898210000000  0.5424180000000  0.4296860000000 1.0
C      1  0.5362760000000  0.4313950000000  0.4939430000000 1.0
C      1  0.5297170000000  0.5461250000000  0.5125390000000 1.0
C      1  0.4821060000000  0.5632900000000  0.5142210000000 1.0
C      1  0.4382560000000  0.4662720000000  0.4047910000000 1.0
C      1  0.4475770000000  0.5676430000000  0.4739860000000 1.0
C      1  0.4868470000000  0.5043910000000  0.5245800000000 1.0
C      1  0.5511750000000  0.4952020000000  0.5591170000000 1.0
C      1  0.5533750000000  0.5341060000000  0.5241440000000 1.0
C      1  0.4607510000000  0.5713570000000  0.4972240000000 1.0
C      1  0.5708520000000  0.4525070000000  0.4637050000000 1.0
C      1  0.5099670000000  0.5413980000000  0.4499910000000 1.0
C      1  0.5277910000000  0.4779060000000  0.4346740000000 1.0
C      1  0.5511950000000  0.5238180000000  0.5508240000000 1.0
C      1  0.4635840000000  0.5310840000000  0.4409030000000 1.0
C      1  0.4204640000000  0.4531620000000  0.3909790000000 1.0
C      1  0.5958360000000  0.4689770000000  0.5735040000000 1.0
C      1  0.5477500000000  0.4353670000000  0.4665740000000 1.0
C      1  0.5347320000000  0.5373010000000  0.5712130000000 1.0
END
