TITL C-627108-131-506 1077.38346976369 125000 -1036.79244178934 0 0 170 (C1) n - 1
REM
REM in /home/nfs/bkarasulu/CARBON/AIRSS/Generating-Clusters/LCBOP/Only-C1/SD-CG/FIRE-CG
REM
REM
REM
REM
REM
REM ./C.cell (11c1c37f851c82e70ff6c80c92926a4b)
REM AIRSS Version 0.9.1 bugfix July 2018 build 013d7b7c2542+ Fri, 06 Jul 2018 19:26:36 +0100
REM compiler GCC version 9.2.1 20190827 (Red Hat 9.2.1-1)
REM options -cpp -mtune=generic -march=x86-64 -g -O0 -fpre-include=/usr/include/finclude/math-vector-fortran.h
REM seed 745626272 204756871 784996020 1333449614 -1678055685 1290862288 1940374524 1018456001 -478637180 -466255925 -1199801716 -1778705942 -1213120071 2035804000 -1996501384 -1662228662 -1662839409 350011706 -919685616 1583591533 -1953588035 -507669524 -1410752898 -1826457730 1851568726 -1366311866 -1980259593 -393878419 1421285546 470323545 -200762185 -479573138 -637857775
REM
CELL 1.54180   50.00000   50.00000   50.00000   90.00000   90.00000   90.00000
LATT -1
SFAC C  
C      1  0.4431880000000  0.3844620000000  0.5306080000000 1.0
C      1  0.4634810000000  0.4112710000000  0.4966790000000 1.0
C      1  0.4595090000000  0.4047600000000  0.4318740000000 1.0
C      1  0.4011190000000  0.4858970000000  0.3645520000000 1.0
C      1  0.5572900000000  0.4545030000000  0.4661570000000 1.0
C      1  0.5800850000000  0.5222360000000  0.4757900000000 1.0
C      1  0.3978430000000  0.4870620000000  0.4984890000000 1.0
C      1  0.5751630000000  0.4883860000000  0.5629970000000 1.0
C      1  0.4717110000000  0.5289960000000  0.3962430000000 1.0
C      1  0.4149680000000  0.4325190000000  0.4893430000000 1.0
C      1  0.3931870000000  0.5405520000000  0.4948820000000 1.0
C      1  0.5518470000000  0.4975480000000  0.5763020000000 1.0
C      1  0.4685140000000  0.5086630000000  0.6476770000000 1.0
C      1  0.5432440000000  0.4954960000000  0.5152840000000 1.0
C      1  0.5549670000000  0.4783510000000  0.4008050000000 1.0
C      1  0.4662810000000  0.3895110000000  0.5150840000000 1.0
C      1  0.4396340000000  0.4167660000000  0.4812370000000 1.0
C      1  0.5674670000000  0.5815440000000  0.5621240000000 1.0
C      1  0.5166180000000  0.4938920000000  0.4239630000000 1.0
C      1  0.5888940000000  0.5355010000000  0.5648800000000 1.0
C      1  0.5941230000000  0.5091900000000  0.5611210000000 1.0
C      1  0.3981380000000  0.5226830000000  0.4391320000000 1.0
C      1  0.4921960000000  0.4537800000000  0.4510100000000 1.0
C      1  0.5814860000000  0.4343680000000  0.5055710000000 1.0
C      1  0.3782110000000  0.4951520000000  0.5578850000000 1.0
C      1  0.5247920000000  0.4490260000000  0.5279440000000 1.0
C      1  0.5124070000000  0.4632850000000  0.5948890000000 1.0
C      1  0.5190160000000  0.5396560000000  0.5440320000000 1.0
C      1  0.5590700000000  0.4430020000000  0.5698100000000 1.0
C      1  0.4488480000000  0.6109160000000  0.5169600000000 1.0
C      1  0.5900140000000  0.5877520000000  0.4695020000000 1.0
C      1  0.5487200000000  0.4135420000000  0.4193210000000 1.0
C      1  0.5419080000000  0.3979950000000  0.5038430000000 1.0
C      1  0.6137690000000  0.5733160000000  0.4746410000000 1.0
C      1  0.4902790000000  0.4451680000000  0.5939230000000 1.0
C      1  0.4096470000000  0.5606920000000  0.4884380000000 1.0
C      1  0.5773000000000  0.5862580000000  0.4443390000000 1.0
C      1  0.6259180000000  0.5523860000000  0.4860700000000 1.0
C      1  0.4010710000000  0.4378470000000  0.5138600000000 1.0
C      1  0.4769950000000  0.5214290000000  0.4886130000000 1.0
C      1  0.4577950000000  0.5844290000000  0.4776220000000 1.0
C      1  0.5116120000000  0.4051950000000  0.4558010000000 1.0
C      1  0.4849970000000  0.4750300000000  0.3906110000000 1.0
C      1  0.3981110000000  0.4765340000000  0.4687210000000 1.0
C      1  0.4727790000000  0.5725980000000  0.4565940000000 1.0
C      1  0.4771600000000  0.5230870000000  0.6262220000000 1.0
C      1  0.3885530000000  0.4642510000000  0.5173750000000 1.0
C      1  0.5753800000000  0.4609730000000  0.5535860000000 1.0
C      1  0.4794510000000  0.4717960000000  0.5463410000000 1.0
C      1  0.4877770000000  0.4270600000000  0.4949150000000 1.0
C      1  0.5488790000000  0.5450700000000  0.5389160000000 1.0
C      1  0.4871660000000  0.4296860000000  0.5700680000000 1.0
C      1  0.4825790000000  0.5759230000000  0.6163570000000 1.0
C      1  0.5806670000000  0.4850270000000  0.4172310000000 1.0
C      1  0.4044490000000  0.4179010000000  0.5335120000000 1.0
C      1  0.4463130000000  0.5443040000000  0.3930100000000 1.0
C      1  0.4351780000000  0.4711710000000  0.5296520000000 1.0
C      1  0.5904790000000  0.4507480000000  0.5297890000000 1.0
C      1  0.5544030000000  0.5252580000000  0.4110620000000 1.0
C      1  0.4959430000000  0.3825490000000  0.5521020000000 1.0
C      1  0.4958020000000  0.5998520000000  0.5087960000000 1.0
C      1  0.5069350000000  0.5260880000000  0.4994200000000 1.0
C      1  0.4311040000000  0.5750230000000  0.4812820000000 1.0
C      1  0.5368050000000  0.5041910000000  0.4639530000000 1.0
C      1  0.5007200000000  0.4898290000000  0.5379750000000 1.0
C      1  0.4235640000000  0.5369330000000  0.4354680000000 1.0
C      1  0.5355420000000  0.4067910000000  0.4414690000000 1.0
C      1  0.4731050000000  0.5494430000000  0.5351480000000 1.0
C      1  0.4172900000000  0.5874220000000  0.5511030000000 1.0
C      1  0.5699960000000  0.4034240000000  0.5413610000000 1.0
C      1  0.5171580000000  0.4653940000000  0.4888490000000 1.0
C      1  0.4377060000000  0.5553080000000  0.4188840000000 1.0
C      1  0.4674270000000  0.4571840000000  0.4352850000000 1.0
C      1  0.4998470000000  0.5605250000000  0.5337920000000 1.0
C      1  0.5122310000000  0.4661080000000  0.4311800000000 1.0
C      1  0.5051240000000  0.5166180000000  0.5288220000000 1.0
C      1  0.4423630000000  0.4965500000000  0.5684130000000 1.0
C      1  0.4396840000000  0.4936610000000  0.4017090000000 1.0
C      1  0.5628880000000  0.5744210000000  0.4250790000000 1.0
C      1  0.4784900000000  0.5514640000000  0.6265070000000 1.0
C      1  0.4954500000000  0.4733260000000  0.4731810000000 1.0
C      1  0.4688460000000  0.4579850000000  0.4074390000000 1.0
C      1  0.5128970000000  0.5546220000000  0.4866400000000 1.0
C      1  0.5863450000000  0.5244510000000  0.4480030000000 1.0
C      1  0.5315380000000  0.5099380000000  0.4921630000000 1.0
C      1  0.5272780000000  0.6161740000000  0.5743660000000 1.0
C      1  0.5025270000000  0.5389530000000  0.4400340000000 1.0
C      1  0.4916710000000  0.4020230000000  0.5700130000000 1.0
C      1  0.4249810000000  0.4422210000000  0.4460130000000 1.0
C      1  0.4308440000000  0.6043540000000  0.5355880000000 1.0
C      1  0.5446110000000  0.4593740000000  0.4909040000000 1.0
C      1  0.4641630000000  0.5384490000000  0.5606960000000 1.0
C      1  0.5640210000000  0.5426650000000  0.4891670000000 1.0
C      1  0.5561660000000  0.5966120000000  0.5399350000000 1.0
C      1  0.5635290000000  0.6333050000000  0.6108610000000 1.0
C      1  0.5631030000000  0.4800420000000  0.5026020000000 1.0
C      1  0.5087710000000  0.4552900000000  0.3864410000000 1.0
C      1  0.4099410000000  0.5638550000000  0.5611850000000 1.0
C      1  0.4636410000000  0.5636180000000  0.4304450000000 1.0
C      1  0.4713190000000  0.3810580000000  0.4426750000000 1.0
C      1  0.5756890000000  0.5965390000000  0.4923270000000 1.0
C      1  0.4268710000000  0.4921980000000  0.5102360000000 1.0
C      1  0.5785070000000  0.5141390000000  0.4229470000000 1.0
C      1  0.5387910000000  0.4557030000000  0.3915780000000 1.0
C      1  0.5811760000000  0.6408970000000  0.6284840000000 1.0
C      1  0.5059430000000  0.5734650000000  0.5090080000000 1.0
C      1  0.6153630000000  0.5023960000000  0.5018230000000 1.0
C      1  0.5524910000000  0.5531370000000  0.4123770000000 1.0
C      1  0.5457720000000  0.6252940000000  0.5929070000000 1.0
C      1  0.5515830000000  0.4805890000000  0.4536200000000 1.0
C      1  0.4728630000000  0.4427470000000  0.6148410000000 1.0
C      1  0.6273130000000  0.4825980000000  0.5176370000000 1.0
C      1  0.4853080000000  0.5108020000000  0.6018610000000 1.0
C      1  0.5056510000000  0.6144170000000  0.5316560000000 1.0
C      1  0.4381670000000  0.5182530000000  0.5242620000000 1.0
C      1  0.5990260000000  0.4689010000000  0.4661050000000 1.0
C      1  0.5178490000000  0.3863630000000  0.5092540000000 1.0
C      1  0.4022850000000  0.4935530000000  0.4444140000000 1.0
C      1  0.4426380000000  0.5163810000000  0.4453350000000 1.0
C      1  0.5892530000000  0.4949300000000  0.4880490000000 1.0
C      1  0.5636200000000  0.4157130000000  0.5644540000000 1.0
C      1  0.4960520000000  0.3816320000000  0.4535510000000 1.0
C      1  0.4846310000000  0.5295270000000  0.5789430000000 1.0
C      1  0.4061530000000  0.4485290000000  0.4666380000000 1.0
C      1  0.5080070000000  0.4916920000000  0.5978220000000 1.0
C      1  0.4406450000000  0.4178130000000  0.4507390000000 1.0
C      1  0.4423240000000  0.4908840000000  0.4852060000000 1.0
C      1  0.4886590000000  0.5966480000000  0.6005480000000 1.0
C      1  0.4971860000000  0.5580850000000  0.4614680000000 1.0
C      1  0.5673770000000  0.5531050000000  0.5602500000000 1.0
C      1  0.3861710000000  0.5149190000000  0.4990040000000 1.0
C      1  0.4115340000000  0.5359120000000  0.5630330000000 1.0
C      1  0.4509750000000  0.5138760000000  0.4715730000000 1.0
C      1  0.4683330000000  0.5003680000000  0.3932230000000 1.0
C      1  0.4917050000000  0.4999710000000  0.4664120000000 1.0
C      1  0.4523510000000  0.4769290000000  0.5511310000000 1.0
C      1  0.4413220000000  0.4641790000000  0.4408920000000 1.0
C      1  0.5133140000000  0.5308540000000  0.5717680000000 1.0
C      1  0.4200520000000  0.4895070000000  0.3820840000000 1.0
C      1  0.5411300000000  0.5535630000000  0.4758150000000 1.0
C      1  0.4990180000000  0.6122220000000  0.5798390000000 1.0
C      1  0.5273260000000  0.5084580000000  0.5833990000000 1.0
C      1  0.4375030000000  0.5232030000000  0.5558170000000 1.0
C      1  0.3896260000000  0.5182570000000  0.5652200000000 1.0
C      1  0.5656730000000  0.4104390000000  0.5139250000000 1.0
C      1  0.5117320000000  0.5116440000000  0.4473590000000 1.0
C      1  0.5616340000000  0.5553880000000  0.5148110000000 1.0
C      1  0.5377930000000  0.4522960000000  0.5865470000000 1.0
C      1  0.4839520000000  0.5437430000000  0.4184570000000 1.0
C      1  0.4994950000000  0.4362290000000  0.5212600000000 1.0
C      1  0.4616690000000  0.5329640000000  0.5133880000000 1.0
C      1  0.4684770000000  0.6014280000000  0.4988060000000 1.0
C      1  0.4933140000000  0.3827400000000  0.5238880000000 1.0
C      1  0.4954650000000  0.4270370000000  0.3932400000000 1.0
C      1  0.5972400000000  0.4723220000000  0.4373980000000 1.0
C      1  0.5639520000000  0.5847670000000  0.5149670000000 1.0
C      1  0.5838120000000  0.4464530000000  0.4765270000000 1.0
C      1  0.5378200000000  0.5018910000000  0.4065540000000 1.0
C      1  0.5496920000000  0.4304050000000  0.3986050000000 1.0
C      1  0.4754710000000  0.4145810000000  0.4085220000000 1.0
C      1  0.4844550000000  0.4433810000000  0.5450500000000 1.0
C      1  0.4315420000000  0.4905910000000  0.4319590000000 1.0
C      1  0.4206420000000  0.3969600000000  0.5382310000000 1.0
C      1  0.6172290000000  0.4601990000000  0.5282720000000 1.0
C      1  0.5260860000000  0.4776710000000  0.5314960000000 1.0
C      1  0.4982620000000  0.4280220000000  0.4670170000000 1.0
C      1  0.4870810000000  0.6178200000000  0.5541830000000 1.0
C      1  0.6263950000000  0.5278580000000  0.4967350000000 1.0
C      1  0.3771330000000  0.4739350000000  0.5414700000000 1.0
C      1  0.5324200000000  0.6115910000000  0.5455770000000 1.0
END
