TITL C-627106-156-80 7.88584453493817e-05 125000 -272.842940692076 0 0 46 (C1) n - 1
REM
REM in /home/nfs/bkarasulu/CARBON/AIRSS/Generating-Clusters/LCBOP/Only-C1/SD-CG/FIRE-CG
REM
REM
REM
REM
REM
REM ./C.cell (11c1c37f851c82e70ff6c80c92926a4b)
REM AIRSS Version 0.9.1 bugfix July 2018 build 013d7b7c2542+ Fri, 06 Jul 2018 19:26:36 +0100
REM compiler GCC version 9.2.1 20190827 (Red Hat 9.2.1-1)
REM options -cpp -mtune=generic -march=x86-64 -g -O0 -fpre-include=/usr/include/finclude/math-vector-fortran.h
REM seed -558021082 2016163804 -1160051190 -1342560692 -1978504118 -676175002 -561105569 -357183415 869281951 -1778418816 -56322607 -591344226 -900451160 -1739400686 -515117196 -494255640 942700162 1686819570 -663911900 -370816221 -1380101351 351427220 -1030694889 1128637480 -1577255444 543792427 -1953333090 -1427474432 -2014836048 1407188307 -1220276650 -596100978 -1907039
REM
CELL 1.54180   50.00000   50.00000   50.00000   90.00000   90.00000   90.00000
LATT -1
SFAC C  
C      1  0.5065290000000  0.4764960000000  0.5141780000000 1.0
C      1  0.5195100000000  0.4818340000000  0.5598230000000 1.0
C      1  0.4717590000000  0.4903990000000  0.5691240000000 1.0
C      1  0.5028600000000  0.5064440000000  0.4713550000000 1.0
C      1  0.3731170000000  0.5070620000000  0.4646210000000 1.0
C      1  0.5619580000000  0.4554090000000  0.4843020000000 1.0
C      1  0.5887310000000  0.5218700000000  0.5032060000000 1.0
C      1  0.4500300000000  0.4939310000000  0.4987950000000 1.0
C      1  0.5806120000000  0.4998900000000  0.4876890000000 1.0
C      1  0.5789920000000  0.5430150000000  0.5163250000000 1.0
C      1  0.3947180000000  0.5218290000000  0.4536700000000 1.0
C      1  0.5239410000000  0.4390230000000  0.5415420000000 1.0
C      1  0.5234950000000  0.5531830000000  0.4617600000000 1.0
C      1  0.5162540000000  0.5702160000000  0.4830100000000 1.0
C      1  0.4191410000000  0.5156320000000  0.4667090000000 1.0
C      1  0.4239970000000  0.4975230000000  0.4880570000000 1.0
C      1  0.4577870000000  0.4983700000000  0.5476810000000 1.0
C      1  0.5088370000000  0.5619000000000  0.5089740000000 1.0
C      1  0.5215030000000  0.5214580000000  0.5315870000000 1.0
C      1  0.5285320000000  0.5473570000000  0.5236300000000 1.0
C      1  0.4574800000000  0.4533930000000  0.4727500000000 1.0
C      1  0.4010430000000  0.4832640000000  0.4980430000000 1.0
C      1  0.5557700000000  0.5539620000000  0.5238190000000 1.0
C      1  0.3923370000000  0.5396420000000  0.4332900000000 1.0
C      1  0.5496520000000  0.5515040000000  0.4516410000000 1.0
C      1  0.4642870000000  0.5364380000000  0.5184380000000 1.0
C      1  0.5777890000000  0.4699470000000  0.5279730000000 1.0
C      1  0.4568810000000  0.5094730000000  0.5217980000000 1.0
C      1  0.4976310000000  0.4806920000000  0.4845430000000 1.0
C      1  0.5116790000000  0.4361640000000  0.4915500000000 1.0
C      1  0.5080410000000  0.5297320000000  0.4597160000000 1.0
C      1  0.4819220000000  0.5561640000000  0.5148480000000 1.0
C      1  0.5108470000000  0.4471090000000  0.5179370000000 1.0
C      1  0.4676330000000  0.4755700000000  0.4854020000000 1.0
C      1  0.3766090000000  0.4895040000000  0.4849880000000 1.0
C      1  0.4024780000000  0.4651380000000  0.5183700000000 1.0
C      1  0.5155990000000  0.4945350000000  0.5341600000000 1.0
C      1  0.5762910000000  0.4742110000000  0.5001670000000 1.0
C      1  0.5369510000000  0.4592410000000  0.5570520000000 1.0
C      1  0.5690970000000  0.5053030000000  0.4615850000000 1.0
C      1  0.5517310000000  0.4855510000000  0.4505030000000 1.0
C      1  0.5150550000000  0.4576400000000  0.4718530000000 1.0
C      1  0.4969410000000  0.4841010000000  0.5765090000000 1.0
C      1  0.5640050000000  0.4640420000000  0.5503150000000 1.0
C      1  0.5676650000000  0.5315810000000  0.4516920000000 1.0
C      1  0.5422800000000  0.4632580000000  0.4650170000000 1.0
END
