TITL C-627107-135-1045 -1.48943594436223e-07 125000 -1220.79145132235 0 0 197 (C1) n - 1
REM
REM in /home/nfs/bkarasulu/CARBON/AIRSS/Generating-Clusters/LCBOP/Only-C1/SD-CG/FIRE-CG
REM
REM
REM
REM
REM
REM ./C.cell (11c1c37f851c82e70ff6c80c92926a4b)
REM AIRSS Version 0.9.1 bugfix July 2018 build 013d7b7c2542+ Fri, 06 Jul 2018 19:26:36 +0100
REM compiler GCC version 9.2.1 20190827 (Red Hat 9.2.1-1)
REM options -cpp -mtune=generic -march=x86-64 -g -O0 -fpre-include=/usr/include/finclude/math-vector-fortran.h
REM seed 2081124323 1050211912 -503743342 -520965923 -713410480 -1433349914 -452518048 -1128023517 1955739889 -1935802987 1932533678 -974749463 -492213480 1387658206 -1692300897 -989733699 267855964 -1735718441 -1861974303 -1123749990 918036067 2123409515 -454522396 -1399323650 -363217864 -1944508898 696410616 -1412423140 -434870157 -1558251336 1643104959 246510484 1140069023
REM
CELL 1.54180   50.00000   50.00000   50.00000   90.00000   90.00000   90.00000
LATT -1
SFAC C  
C      1  0.5616780000000  0.4038970000000  0.4366290000000 1.0
C      1  0.4758870000000  0.4851260000000  0.3832690000000 1.0
C      1  0.5847460000000  0.4155510000000  0.5550220000000 1.0
C      1  0.4190440000000  0.5930470000000  0.4846130000000 1.0
C      1  0.5138220000000  0.5904930000000  0.4608990000000 1.0
C      1  0.6140070000000  0.4712520000000  0.5142650000000 1.0
C      1  0.5407000000000  0.3973870000000  0.5770580000000 1.0
C      1  0.5241590000000  0.5506160000000  0.6031020000000 1.0
C      1  0.4395860000000  0.4889650000000  0.5979930000000 1.0
C      1  0.5299810000000  0.4104820000000  0.5994540000000 1.0
C      1  0.5867970000000  0.5726890000000  0.4424400000000 1.0
C      1  0.4675790000000  0.4683810000000  0.5636120000000 1.0
C      1  0.4757630000000  0.4325440000000  0.4988510000000 1.0
C      1  0.4873920000000  0.4117600000000  0.4241380000000 1.0
C      1  0.5099910000000  0.4200910000000  0.4678370000000 1.0
C      1  0.4195130000000  0.4774900000000  0.4511970000000 1.0
C      1  0.4830140000000  0.4329800000000  0.5264030000000 1.0
C      1  0.5635380000000  0.4094610000000  0.5078250000000 1.0
C      1  0.6158160000000  0.4808130000000  0.5416130000000 1.0
C      1  0.4884840000000  0.6034210000000  0.4627980000000 1.0
C      1  0.3992320000000  0.5859330000000  0.5037550000000 1.0
C      1  0.4167320000000  0.4522330000000  0.5656930000000 1.0
C      1  0.5244780000000  0.4617170000000  0.4274610000000 1.0
C      1  0.3683930000000  0.4911840000000  0.5690640000000 1.0
C      1  0.5153360000000  0.5173690000000  0.4060900000000 1.0
C      1  0.5753260000000  0.4874990000000  0.5720170000000 1.0
C      1  0.5467720000000  0.5777210000000  0.4023410000000 1.0
C      1  0.4148490000000  0.4766320000000  0.4998090000000 1.0
C      1  0.4279640000000  0.4026050000000  0.4944510000000 1.0
C      1  0.3848750000000  0.5328840000000  0.4673460000000 1.0
C      1  0.5841170000000  0.5271710000000  0.5263290000000 1.0
C      1  0.4903900000000  0.5048000000000  0.4779950000000 1.0
C      1  0.5116820000000  0.4117720000000  0.4400480000000 1.0
C      1  0.5980380000000  0.4605780000000  0.4399020000000 1.0
C      1  0.3761130000000  0.5339750000000  0.4419260000000 1.0
C      1  0.4572670000000  0.5570960000000  0.6166400000000 1.0
C      1  0.5328170000000  0.4391990000000  0.4121280000000 1.0
C      1  0.4819880000000  0.4827650000000  0.4970290000000 1.0
C      1  0.4651990000000  0.6086330000000  0.4753900000000 1.0
C      1  0.4507630000000  0.3840460000000  0.4905790000000 1.0
C      1  0.4676780000000  0.3808910000000  0.5149830000000 1.0
C      1  0.4887050000000  0.5847660000000  0.5899270000000 1.0
C      1  0.5364730000000  0.3756910000000  0.4734170000000 1.0
C      1  0.5277870000000  0.4835740000000  0.3716690000000 1.0
C      1  0.4693820000000  0.4572430000000  0.4854040000000 1.0
C      1  0.5634760000000  0.6061870000000  0.4704440000000 1.0
C      1  0.4242860000000  0.4173440000000  0.4421020000000 1.0
C      1  0.4913860000000  0.5301640000000  0.4917170000000 1.0
C      1  0.5374720000000  0.5332540000000  0.4960140000000 1.0
C      1  0.4717760000000  0.4163850000000  0.5464720000000 1.0
C      1  0.4266570000000  0.4571420000000  0.4046590000000 1.0
C      1  0.5370430000000  0.6051750000000  0.4668460000000 1.0
C      1  0.3970330000000  0.4861420000000  0.4357240000000 1.0
C      1  0.5128990000000  0.5397520000000  0.3876550000000 1.0
C      1  0.6122630000000  0.5179690000000  0.5720730000000 1.0
C      1  0.5217220000000  0.4602830000000  0.5997890000000 1.0
C      1  0.4832790000000  0.5802910000000  0.5608940000000 1.0
C      1  0.3802910000000  0.5588160000000  0.5456630000000 1.0
C      1  0.4960110000000  0.5482250000000  0.4413280000000 1.0
C      1  0.4686930000000  0.5051820000000  0.6348480000000 1.0
C      1  0.4880970000000  0.5757050000000  0.5029080000000 1.0
C      1  0.4220530000000  0.4912850000000  0.3980740000000 1.0
C      1  0.5260070000000  0.4633220000000  0.4916100000000 1.0
C      1  0.4656410000000  0.5356610000000  0.5771120000000 1.0
C      1  0.4623270000000  0.4886570000000  0.5809050000000 1.0
C      1  0.4633510000000  0.4202600000000  0.4146120000000 1.0
C      1  0.5683510000000  0.4007540000000  0.5724950000000 1.0
C      1  0.5668360000000  0.4145860000000  0.4802280000000 1.0
C      1  0.3872230000000  0.5743390000000  0.5248400000000 1.0
C      1  0.5899290000000  0.4134170000000  0.4352210000000 1.0
C      1  0.5413330000000  0.4405380000000  0.5342820000000 1.0
C      1  0.4123660000000  0.4638520000000  0.4750950000000 1.0
C      1  0.5370650000000  0.4145750000000  0.4255270000000 1.0
C      1  0.4762330000000  0.4156840000000  0.5732540000000 1.0
C      1  0.4292300000000  0.4131990000000  0.5236300000000 1.0
C      1  0.5397780000000  0.5530020000000  0.3892250000000 1.0
C      1  0.4457440000000  0.4865900000000  0.4408830000000 1.0
C      1  0.4841990000000  0.5109710000000  0.5411440000000 1.0
C      1  0.4075630000000  0.5037230000000  0.4986000000000 1.0
C      1  0.4284160000000  0.4638630000000  0.5213390000000 1.0
C      1  0.4389710000000  0.5428450000000  0.5694540000000 1.0
C      1  0.5145310000000  0.3701540000000  0.4889940000000 1.0
C      1  0.4736100000000  0.5112890000000  0.5675690000000 1.0
C      1  0.5180010000000  0.3959380000000  0.5281900000000 1.0
C      1  0.5734160000000  0.5943740000000  0.5595780000000 1.0
C      1  0.4535740000000  0.3986620000000  0.5342530000000 1.0
C      1  0.5497710000000  0.5368700000000  0.5618750000000 1.0
C      1  0.5416170000000  0.4870510000000  0.5604010000000 1.0
C      1  0.6129940000000  0.5271170000000  0.5226700000000 1.0
C      1  0.5564420000000  0.3937310000000  0.4632610000000 1.0
C      1  0.5937030000000  0.4412730000000  0.5621850000000 1.0
C      1  0.5705540000000  0.5173730000000  0.4112260000000 1.0
C      1  0.4473810000000  0.5126670000000  0.4300710000000 1.0
C      1  0.5189750000000  0.6120030000000  0.5260070000000 1.0
C      1  0.5341910000000  0.6184700000000  0.5468780000000 1.0
C      1  0.5742180000000  0.5045660000000  0.5122570000000 1.0
C      1  0.4849760000000  0.4137600000000  0.4790770000000 1.0
C      1  0.4528300000000  0.5751530000000  0.4285360000000 1.0
C      1  0.5682860000000  0.4430760000000  0.4724340000000 1.0
C      1  0.5951230000000  0.4693840000000  0.5598860000000 1.0
C      1  0.6192270000000  0.5335730000000  0.4949410000000 1.0
C      1  0.4679850000000  0.5542470000000  0.4401360000000 1.0
C      1  0.5484380000000  0.5404990000000  0.5907440000000 1.0
C      1  0.5060510000000  0.4701820000000  0.5101710000000 1.0
C      1  0.5004840000000  0.4742100000000  0.4381290000000 1.0
C      1  0.4989810000000  0.3800620000000  0.5119200000000 1.0
C      1  0.4351460000000  0.5476520000000  0.5204680000000 1.0
C      1  0.6079380000000  0.4339840000000  0.4471930000000 1.0
C      1  0.5315340000000  0.4962210000000  0.3955360000000 1.0
C      1  0.4668020000000  0.4514210000000  0.4579220000000 1.0
C      1  0.6211210000000  0.5095180000000  0.5455980000000 1.0
C      1  0.5316910000000  0.6008280000000  0.3986910000000 1.0
C      1  0.6122740000000  0.5310710000000  0.4665360000000 1.0
C      1  0.4952040000000  0.4646730000000  0.5587340000000 1.0
C      1  0.4498410000000  0.5334380000000  0.4486990000000 1.0
C      1  0.5161950000000  0.6216370000000  0.3962550000000 1.0
C      1  0.4771080000000  0.5422180000000  0.6015140000000 1.0
C      1  0.4697770000000  0.4951750000000  0.5215960000000 1.0
C      1  0.5556140000000  0.4928800000000  0.4107970000000 1.0
C      1  0.5021750000000  0.5343850000000  0.6127430000000 1.0
C      1  0.4086430000000  0.5246770000000  0.4797810000000 1.0
C      1  0.5805670000000  0.5712640000000  0.5482440000000 1.0
C      1  0.5929710000000  0.5453450000000  0.4492630000000 1.0
C      1  0.5703530000000  0.4592800000000  0.4478810000000 1.0
C      1  0.5731300000000  0.5280670000000  0.4375440000000 1.0
C      1  0.4523940000000  0.5992660000000  0.5221920000000 1.0
C      1  0.4242370000000  0.5755600000000  0.4319360000000 1.0
C      1  0.5360390000000  0.5974140000000  0.5903380000000 1.0
C      1  0.4674590000000  0.5127880000000  0.3837140000000 1.0
C      1  0.5874370000000  0.5101130000000  0.5848470000000 1.0
C      1  0.4704700000000  0.4689150000000  0.4345390000000 1.0
C      1  0.4317190000000  0.5333750000000  0.5439180000000 1.0
C      1  0.5077950000000  0.5291680000000  0.5382410000000 1.0
C      1  0.5163560000000  0.5785550000000  0.5975410000000 1.0
C      1  0.6219120000000  0.4360780000000  0.4730210000000 1.0
C      1  0.4946600000000  0.5138820000000  0.6315010000000 1.0
C      1  0.4712450000000  0.4676410000000  0.4037010000000 1.0
C      1  0.3589910000000  0.5146880000000  0.5579320000000 1.0
C      1  0.3936530000000  0.4952780000000  0.5826410000000 1.0
C      1  0.4299630000000  0.5052860000000  0.5425770000000 1.0
C      1  0.5249030000000  0.4351610000000  0.6084070000000 1.0
C      1  0.4157580000000  0.4767630000000  0.5847040000000 1.0
C      1  0.5736610000000  0.4594790000000  0.4945350000000 1.0
C      1  0.5244850000000  0.3897120000000  0.5551980000000 1.0
C      1  0.5321380000000  0.5166200000000  0.5524070000000 1.0
C      1  0.4747530000000  0.5525320000000  0.4940780000000 1.0
C      1  0.5062880000000  0.5001290000000  0.4519810000000 1.0
C      1  0.4643330000000  0.5989830000000  0.5483480000000 1.0
C      1  0.5712460000000  0.5450410000000  0.5445770000000 1.0
C      1  0.4169160000000  0.4155150000000  0.4703420000000 1.0
C      1  0.5041260000000  0.5223340000000  0.4317960000000 1.0
C      1  0.4365800000000  0.4311000000000  0.4191310000000 1.0
C      1  0.4345070000000  0.5354260000000  0.4731940000000 1.0
C      1  0.5493320000000  0.6065760000000  0.5672930000000 1.0
C      1  0.5831620000000  0.4079740000000  0.5278210000000 1.0
C      1  0.5369270000000  0.5446780000000  0.4691770000000 1.0
C      1  0.4857880000000  0.5347880000000  0.3773730000000 1.0
C      1  0.5374420000000  0.4971720000000  0.4556640000000 1.0
C      1  0.4991790000000  0.4548670000000  0.5329330000000 1.0
C      1  0.4093150000000  0.5557600000000  0.4169550000000 1.0
C      1  0.4220240000000  0.4400580000000  0.5373910000000 1.0
C      1  0.5496780000000  0.5247100000000  0.4528520000000 1.0
C      1  0.5878170000000  0.4801090000000  0.5062670000000 1.0
C      1  0.5504000000000  0.5080210000000  0.4989530000000 1.0
C      1  0.4155530000000  0.5873900000000  0.4566400000000 1.0
C      1  0.5177250000000  0.4735300000000  0.5753480000000 1.0
C      1  0.5851640000000  0.5927520000000  0.4620860000000 1.0
C      1  0.4664250000000  0.5837480000000  0.6096900000000 1.0
C      1  0.5457860000000  0.4662590000000  0.5394240000000 1.0
C      1  0.3770190000000  0.5368980000000  0.5629290000000 1.0
C      1  0.4684670000000  0.3927830000000  0.4704340000000 1.0
C      1  0.3964330000000  0.5254320000000  0.5825360000000 1.0
C      1  0.4473370000000  0.4817680000000  0.5348110000000 1.0
C      1  0.4443300000000  0.5115050000000  0.4010880000000 1.0
C      1  0.4449530000000  0.6020800000000  0.4944350000000 1.0
C      1  0.4435630000000  0.5082700000000  0.6204800000000 1.0
C      1  0.4013070000000  0.4383060000000  0.4758910000000 1.0
C      1  0.5701810000000  0.5775540000000  0.4191630000000 1.0
C      1  0.5357420000000  0.4176750000000  0.5158630000000 1.0
C      1  0.6204280000000  0.5064630000000  0.4544030000000 1.0
C      1  0.3996510000000  0.5036570000000  0.4130850000000 1.0
C      1  0.5494810000000  0.4772750000000  0.4360260000000 1.0
C      1  0.3935300000000  0.5317360000000  0.4193890000000 1.0
C      1  0.4198750000000  0.5390770000000  0.5907880000000 1.0
C      1  0.5048800000000  0.5944470000000  0.5118850000000 1.0
C      1  0.5712620000000  0.5269520000000  0.6012740000000 1.0
C      1  0.4473870000000  0.5476000000000  0.4953910000000 1.0
C      1  0.5133040000000  0.5331430000000  0.5093740000000 1.0
C      1  0.5626530000000  0.5350600000000  0.3900270000000 1.0
C      1  0.5399870000000  0.4867710000000  0.4832370000000 1.0
C      1  0.4346300000000  0.5369320000000  0.6158460000000 1.0
C      1  0.4979530000000  0.5575600000000  0.5493070000000 1.0
C      1  0.5256960000000  0.4349660000000  0.4866080000000 1.0
C      1  0.5162600000000  0.5619990000000  0.4570600000000 1.0
C      1  0.6249790000000  0.4514990000000  0.4959130000000 1.0
C      1  0.6135280000000  0.4837660000000  0.4419640000000 1.0
C      1  0.4571500000000  0.6206570000000  0.5641240000000 1.0
END
