TITL C-627107-135-1844 0.226093178370773 125000 -203.09375207045 0 0 35 (C1) n - 1
REM
REM in /home/nfs/bkarasulu/CARBON/AIRSS/Generating-Clusters/LCBOP/Only-C1/SD-CG/FIRE-CG
REM
REM
REM
REM
REM
REM ./C.cell (11c1c37f851c82e70ff6c80c92926a4b)
REM AIRSS Version 0.9.1 bugfix July 2018 build 013d7b7c2542+ Fri, 06 Jul 2018 19:26:36 +0100
REM compiler GCC version 9.2.1 20190827 (Red Hat 9.2.1-1)
REM options -cpp -mtune=generic -march=x86-64 -g -O0 -fpre-include=/usr/include/finclude/math-vector-fortran.h
REM seed -643084607 66184266 1311510183 -1984389952 1308952 -1919329997 -1127248553 936619701 -1189506575 -1580288662 -164175987 1960441602 1100879907 -542800165 197798781 1951914088 -514047951 1611583333 1068378234 -182680276 -166145321 544889781 1359349684 -680760946 1303240336 1587363488 -1621222167 -731456387 843765639 477389616 1844779656 1099491788 -1818582955
REM
CELL 1.54180   50.00000   50.00000   50.00000   90.00000   90.00000   90.00000
LATT -1
SFAC C  
C      1  0.5718520000000  0.4360530000000  0.4521060000000 1.0
C      1  0.5583430000000  0.4619080000000  0.5419330000000 1.0
C      1  0.3976180000000  0.6365760000000  0.5141160000000 1.0
C      1  0.3663370000000  0.6465660000000  0.5551620000000 1.0
C      1  0.5534100000000  0.4694050000000  0.4175250000000 1.0
C      1  0.4719580000000  0.4343210000000  0.4706260000000 1.0
C      1  0.4137240000000  0.6468260000000  0.4700820000000 1.0
C      1  0.5966210000000  0.4450680000000  0.5760180000000 1.0
C      1  0.5665240000000  0.4500010000000  0.4301190000000 1.0
C      1  0.5173500000000  0.5224970000000  0.5194960000000 1.0
C      1  0.4143620000000  0.6310480000000  0.4924160000000 1.0
C      1  0.4995240000000  0.4334130000000  0.5789810000000 1.0
C      1  0.5016020000000  0.4314100000000  0.5066770000000 1.0
C      1  0.3818470000000  0.6416210000000  0.5348000000000 1.0
C      1  0.4645690000000  0.5677110000000  0.4969060000000 1.0
C      1  0.4897380000000  0.4782300000000  0.4880770000000 1.0
C      1  0.4980660000000  0.5249790000000  0.4993940000000 1.0
C      1  0.5083590000000  0.4345070000000  0.5544890000000 1.0
C      1  0.5355090000000  0.4890670000000  0.4180850000000 1.0
C      1  0.4481680000000  0.5884650000000  0.4953440000000 1.0
C      1  0.5782400000000  0.4534970000000  0.5595790000000 1.0
C      1  0.4317650000000  0.6092070000000  0.4938040000000 1.0
C      1  0.4877070000000  0.4506710000000  0.4888970000000 1.0
C      1  0.4809500000000  0.5469510000000  0.4984090000000 1.0
C      1  0.4758280000000  0.4073950000000  0.4761100000000 1.0
C      1  0.5037490000000  0.5088460000000  0.4535020000000 1.0
C      1  0.5599430000000  0.4329450000000  0.5026580000000 1.0
C      1  0.5175480000000  0.5033940000000  0.4314650000000 1.0
C      1  0.4962650000000  0.5042360000000  0.4800580000000 1.0
C      1  0.4934330000000  0.4049920000000  0.4974280000000 1.0
C      1  0.5184660000000  0.4364710000000  0.5284940000000 1.0
C      1  0.5691060000000  0.4303300000000  0.4778960000000 1.0
C      1  0.5356180000000  0.5095030000000  0.5336840000000 1.0
C      1  0.5501050000000  0.4886070000000  0.5412270000000 1.0
C      1  0.5457960000000  0.4432820000000  0.5244380000000 1.0
END
