TITL C-627108-131-747 -1.3840071633545e-06 125000 -935.32209178759 0 0 151 (C1) n - 1
REM
REM in /home/nfs/bkarasulu/CARBON/AIRSS/Generating-Clusters/LCBOP/Only-C1/SD-CG/FIRE-CG
REM
REM
REM
REM
REM
REM ./C.cell (11c1c37f851c82e70ff6c80c92926a4b)
REM AIRSS Version 0.9.1 bugfix July 2018 build 013d7b7c2542+ Fri, 06 Jul 2018 19:26:36 +0100
REM compiler GCC version 9.2.1 20190827 (Red Hat 9.2.1-1)
REM options -cpp -mtune=generic -march=x86-64 -g -O0 -fpre-include=/usr/include/finclude/math-vector-fortran.h
REM seed -398623609 30540317 1235475010 -1153040711 594909617 1968665100 971983585 771612868 -1500977707 299110222 -477610996 1297570325 1374580667 -1631745526 -801730537 72398127 -1721270467 429077787 1285445224 -499604257 870251529 -800652550 -1701552310 -863006536 437096763 -606900146 1693385281 1154179688 -1139356281 1486158555 -236322165 -421673690 530546779
REM
CELL 1.54180   50.00000   50.00000   50.00000   90.00000   90.00000   90.00000
LATT -1
SFAC C  
C      1  0.4234550000000  0.5398150000000  0.4467170000000 1.0
C      1  0.4826060000000  0.4774040000000  0.3973730000000 1.0
C      1  0.4763580000000  0.4555490000000  0.4431970000000 1.0
C      1  0.6077620000000  0.4973350000000  0.4822000000000 1.0
C      1  0.5148310000000  0.3929220000000  0.5482190000000 1.0
C      1  0.6035160000000  0.4616390000000  0.5155500000000 1.0
C      1  0.4778650000000  0.4959800000000  0.4893430000000 1.0
C      1  0.4564440000000  0.5070130000000  0.5713110000000 1.0
C      1  0.5681080000000  0.5328800000000  0.4045220000000 1.0
C      1  0.5528750000000  0.6141040000000  0.5304030000000 1.0
C      1  0.5186970000000  0.4737550000000  0.4919240000000 1.0
C      1  0.4674720000000  0.5604810000000  0.4386470000000 1.0
C      1  0.4367380000000  0.4774820000000  0.5019900000000 1.0
C      1  0.5712100000000  0.5661050000000  0.4718830000000 1.0
C      1  0.5457560000000  0.5877890000000  0.5328210000000 1.0
C      1  0.4131740000000  0.3913880000000  0.4779490000000 1.0
C      1  0.5284940000000  0.4607670000000  0.4020450000000 1.0
C      1  0.4630170000000  0.5915160000000  0.4768080000000 1.0
C      1  0.4441190000000  0.4400440000000  0.5966450000000 1.0
C      1  0.5609030000000  0.4080750000000  0.5390580000000 1.0
C      1  0.3992500000000  0.4884760000000  0.4607000000000 1.0
C      1  0.4858110000000  0.5420520000000  0.4267290000000 1.0
C      1  0.4604170000000  0.4993760000000  0.4393220000000 1.0
C      1  0.4017630000000  0.4669750000000  0.4437220000000 1.0
C      1  0.4801990000000  0.4776260000000  0.5445810000000 1.0
C      1  0.3840650000000  0.4735870000000  0.5257740000000 1.0
C      1  0.4437980000000  0.5665040000000  0.5704170000000 1.0
C      1  0.5829540000000  0.4242120000000  0.5335200000000 1.0
C      1  0.4260540000000  0.4194620000000  0.4409010000000 1.0
C      1  0.4833750000000  0.4085810000000  0.4194840000000 1.0
C      1  0.5719090000000  0.4994880000000  0.5158320000000 1.0
C      1  0.5201670000000  0.5797530000000  0.5433080000000 1.0
C      1  0.4532260000000  0.4123600000000  0.5259820000000 1.0
C      1  0.5511520000000  0.4736340000000  0.4579390000000 1.0
C      1  0.4576720000000  0.4740920000000  0.4538610000000 1.0
C      1  0.4354980000000  0.5785370000000  0.4959910000000 1.0
C      1  0.5299790000000  0.4208060000000  0.4855210000000 1.0
C      1  0.3920360000000  0.5497790000000  0.5129000000000 1.0
C      1  0.4356730000000  0.5200600000000  0.5560070000000 1.0
C      1  0.5098270000000  0.4445590000000  0.4887360000000 1.0
C      1  0.5590760000000  0.5574860000000  0.4468690000000 1.0
C      1  0.4880920000000  0.5938870000000  0.4932560000000 1.0
C      1  0.5478930000000  0.4472000000000  0.4486200000000 1.0
C      1  0.5140780000000  0.5521920000000  0.5498110000000 1.0
C      1  0.4272870000000  0.5138850000000  0.5296670000000 1.0
C      1  0.5951500000000  0.4394690000000  0.5558640000000 1.0
C      1  0.5048250000000  0.5483720000000  0.4060710000000 1.0
C      1  0.5201730000000  0.4827800000000  0.5212440000000 1.0
C      1  0.4548600000000  0.5798250000000  0.5473020000000 1.0
C      1  0.4945960000000  0.5410640000000  0.5107960000000 1.0
C      1  0.5010440000000  0.4402350000000  0.5186790000000 1.0
C      1  0.5495190000000  0.5639080000000  0.5954870000000 1.0
C      1  0.4120420000000  0.4426750000000  0.4356870000000 1.0
C      1  0.4652270000000  0.5396950000000  0.6046220000000 1.0
C      1  0.4525460000000  0.4404130000000  0.5283570000000 1.0
C      1  0.4488390000000  0.5488070000000  0.4557330000000 1.0
C      1  0.4219240000000  0.4441180000000  0.4775600000000 1.0
C      1  0.3770380000000  0.5000370000000  0.5261430000000 1.0
C      1  0.4239210000000  0.5242000000000  0.4226910000000 1.0
C      1  0.4086890000000  0.5367420000000  0.4710760000000 1.0
C      1  0.5333930000000  0.5123100000000  0.4443920000000 1.0
C      1  0.5858370000000  0.5278690000000  0.5484830000000 1.0
C      1  0.5030840000000  0.4991280000000  0.5407210000000 1.0
C      1  0.4762060000000  0.5848680000000  0.4497080000000 1.0
C      1  0.5955250000000  0.4552720000000  0.4622850000000 1.0
C      1  0.3975850000000  0.4070060000000  0.4938910000000 1.0
C      1  0.5053450000000  0.5294390000000  0.3849350000000 1.0
C      1  0.4022970000000  0.4346500000000  0.4966560000000 1.0
C      1  0.5230680000000  0.5073200000000  0.3857740000000 1.0
C      1  0.5394850000000  0.5378790000000  0.4526380000000 1.0
C      1  0.5539060000000  0.4290600000000  0.4707760000000 1.0
C      1  0.5998870000000  0.4842260000000  0.4577730000000 1.0
C      1  0.5624220000000  0.4695450000000  0.5803370000000 1.0
C      1  0.4989750000000  0.5987170000000  0.5398240000000 1.0
C      1  0.5683890000000  0.5048810000000  0.5439890000000 1.0
C      1  0.5294880000000  0.5631550000000  0.4088300000000 1.0
C      1  0.5220950000000  0.3973970000000  0.4431660000000 1.0
C      1  0.5478300000000  0.4858570000000  0.5598310000000 1.0
C      1  0.4953330000000  0.6099710000000  0.5145560000000 1.0
C      1  0.4758740000000  0.5188150000000  0.5889550000000 1.0
C      1  0.3797260000000  0.5270310000000  0.5222730000000 1.0
C      1  0.5503530000000  0.5158930000000  0.3890340000000 1.0
C      1  0.5808290000000  0.4364270000000  0.4802320000000 1.0
C      1  0.4440500000000  0.5051780000000  0.4161750000000 1.0
C      1  0.4596240000000  0.4948910000000  0.3940140000000 1.0
C      1  0.4620030000000  0.4803500000000  0.5657180000000 1.0
C      1  0.4224170000000  0.5017810000000  0.5043530000000 1.0
C      1  0.5244730000000  0.4389590000000  0.5365940000000 1.0
C      1  0.4612970000000  0.3948350000000  0.4710460000000 1.0
C      1  0.5158140000000  0.5504340000000  0.4938830000000 1.0
C      1  0.5892810000000  0.5190290000000  0.4182190000000 1.0
C      1  0.4777590000000  0.6070610000000  0.5821800000000 1.0
C      1  0.6260920000000  0.5288460000000  0.5147920000000 1.0
C      1  0.5522490000000  0.5081510000000  0.4968440000000 1.0
C      1  0.5841490000000  0.4992230000000  0.4377690000000 1.0
C      1  0.5567700000000  0.5571640000000  0.4173500000000 1.0
C      1  0.5559020000000  0.4948140000000  0.4407730000000 1.0
C      1  0.4767280000000  0.4546080000000  0.4139320000000 1.0
C      1  0.4309550000000  0.4578600000000  0.5226690000000 1.0
C      1  0.5113840000000  0.4817460000000  0.3927710000000 1.0
C      1  0.5887470000000  0.4372880000000  0.5076830000000 1.0
C      1  0.4021540000000  0.4520270000000  0.5199600000000 1.0
C      1  0.5632960000000  0.5568680000000  0.4987160000000 1.0
C      1  0.4999000000000  0.4135810000000  0.4422480000000 1.0
C      1  0.5738110000000  0.5534060000000  0.5497890000000 1.0
C      1  0.5052780000000  0.5833940000000  0.4539260000000 1.0
C      1  0.5022800000000  0.5297540000000  0.5354080000000 1.0
C      1  0.4781850000000  0.4529940000000  0.5298130000000 1.0
C      1  0.5050240000000  0.5139430000000  0.5892420000000 1.0
C      1  0.4267430000000  0.5448000000000  0.5659760000000 1.0
C      1  0.5337970000000  0.4131350000000  0.5436910000000 1.0
C      1  0.4515620000000  0.5699420000000  0.5198940000000 1.0
C      1  0.5012400000000  0.4908440000000  0.4761370000000 1.0
C      1  0.4106690000000  0.5586950000000  0.4918530000000 1.0
C      1  0.4795770000000  0.5849990000000  0.5997980000000 1.0
C      1  0.4741990000000  0.4284990000000  0.4037600000000 1.0
C      1  0.5668740000000  0.5629880000000  0.5753120000000 1.0
C      1  0.6126280000000  0.4579510000000  0.5422660000000 1.0
C      1  0.4587770000000  0.5130060000000  0.4843680000000 1.0
C      1  0.4932850000000  0.4380690000000  0.4578260000000 1.0
C      1  0.5095110000000  0.5766200000000  0.4815840000000 1.0
C      1  0.5446770000000  0.4834730000000  0.4830470000000 1.0
C      1  0.4685330000000  0.5504800000000  0.5065250000000 1.0
C      1  0.5112620000000  0.3977700000000  0.4879950000000 1.0
C      1  0.5397450000000  0.4459480000000  0.4216080000000 1.0
C      1  0.5196820000000  0.4998250000000  0.5681010000000 1.0
C      1  0.4756560000000  0.5983220000000  0.5551840000000 1.0
C      1  0.5197330000000  0.5282520000000  0.6093500000000 1.0
C      1  0.5802680000000  0.4493990000000  0.5775730000000 1.0
C      1  0.5042480000000  0.5754690000000  0.6096740000000 1.0
C      1  0.5947620000000  0.4861810000000  0.5053480000000 1.0
C      1  0.5644360000000  0.5671370000000  0.5260730000000 1.0
C      1  0.4594180000000  0.5654430000000  0.5948820000000 1.0
C      1  0.4574380000000  0.5403460000000  0.4817570000000 1.0
C      1  0.4526660000000  0.4595400000000  0.5816120000000 1.0
C      1  0.5247660000000  0.5563500000000  0.6063510000000 1.0
C      1  0.4822370000000  0.3933930000000  0.4910920000000 1.0
C      1  0.5385420000000  0.5013710000000  0.6521930000000 1.0
C      1  0.5072820000000  0.5039070000000  0.4516160000000 1.0
C      1  0.5360910000000  0.4651240000000  0.5390120000000 1.0
C      1  0.4071180000000  0.5089790000000  0.4800450000000 1.0
C      1  0.5291690000000  0.5147110000000  0.6318640000000 1.0
C      1  0.4912630000000  0.3847400000000  0.5383390000000 1.0
C      1  0.6245570000000  0.5186960000000  0.4896620000000 1.0
C      1  0.4777180000000  0.6331040000000  0.5899470000000 1.0
C      1  0.4346650000000  0.3999470000000  0.4609160000000 1.0
C      1  0.5422930000000  0.5364030000000  0.4964410000000 1.0
C      1  0.6123120000000  0.5278970000000  0.5379830000000 1.0
C      1  0.4731790000000  0.3936510000000  0.5186110000000 1.0
C      1  0.4849610000000  0.5151540000000  0.4384130000000 1.0
C      1  0.4408650000000  0.4655890000000  0.4760330000000 1.0
END
