TITL C-627113-6568-1349 7.51910782696378e-07 125000 -819.745127442941 0 0 134 (C1) n - 1
REM
REM in /home/nfs/bkarasulu/CARBON/AIRSS/Generating-Clusters/LCBOP/Only-C1/SD-CG/FIRE-CG
REM
REM
REM
REM
REM
REM ./C.cell (11c1c37f851c82e70ff6c80c92926a4b)
REM AIRSS Version 0.9.1 bugfix July 2018 build 013d7b7c2542+ Fri, 06 Jul 2018 19:26:36 +0100
REM compiler GCC version 9.2.1 20190827 (Red Hat 9.2.1-1)
REM options -cpp -mtune=generic -march=x86-64 -g -O0 -fpre-include=/usr/include/finclude/math-vector-fortran.h
REM seed 1492952128 482008426 -1780265048 1770730583 -775240589 -24676384 -364773973 -210921696 1694026590 320570379 2004818875 -226182475 -1536175307 -2045787360 1246644015 323109665 -1657450958 -1318628081 -566370658 -336399855 -473123776 -1993772093 41842195 332097134 741051724 362736560 1937240826 -531990510 -1060704696 -281228029 2066871355 -701436315 1040436247
REM
CELL 1.54180   50.00000   50.00000   50.00000   90.00000   90.00000   90.00000
LATT -1
SFAC C  
C      1  0.4904690000000  0.4439180000000  0.4816610000000 1.0
C      1  0.4967970000000  0.5296310000000  0.4871210000000 1.0
C      1  0.5964100000000  0.4157320000000  0.4832600000000 1.0
C      1  0.4763240000000  0.5168990000000  0.5336470000000 1.0
C      1  0.4593910000000  0.4968480000000  0.4073690000000 1.0
C      1  0.4028720000000  0.4672080000000  0.4475440000000 1.0
C      1  0.4348700000000  0.5507000000000  0.5658730000000 1.0
C      1  0.3984350000000  0.5028710000000  0.4817330000000 1.0
C      1  0.4650940000000  0.4779340000000  0.4536990000000 1.0
C      1  0.4538930000000  0.4448740000000  0.5828700000000 1.0
C      1  0.5655710000000  0.4772090000000  0.5104850000000 1.0
C      1  0.4643010000000  0.5694590000000  0.4317430000000 1.0
C      1  0.5198610000000  0.5542070000000  0.5293000000000 1.0
C      1  0.5861410000000  0.5160150000000  0.5564590000000 1.0
C      1  0.5585000000000  0.4723120000000  0.5630290000000 1.0
C      1  0.5440690000000  0.5179440000000  0.4119460000000 1.0
C      1  0.5647610000000  0.4224540000000  0.5629250000000 1.0
C      1  0.5827340000000  0.4857560000000  0.5543470000000 1.0
C      1  0.4842110000000  0.5581720000000  0.5622000000000 1.0
C      1  0.4830760000000  0.5846630000000  0.4768730000000 1.0
C      1  0.4690640000000  0.6060380000000  0.4612490000000 1.0
C      1  0.4890950000000  0.5561110000000  0.4391860000000 1.0
C      1  0.4149260000000  0.4251120000000  0.5095970000000 1.0
C      1  0.5432550000000  0.5507970000000  0.4498540000000 1.0
C      1  0.4124980000000  0.5137360000000  0.4573920000000 1.0
C      1  0.4687370000000  0.4978930000000  0.5153120000000 1.0
C      1  0.5601120000000  0.4359190000000  0.4313720000000 1.0
C      1  0.5134360000000  0.4837580000000  0.4579060000000 1.0
C      1  0.5491570000000  0.4449570000000  0.5578410000000 1.0
C      1  0.4289910000000  0.4847480000000  0.5708070000000 1.0
C      1  0.5635850000000  0.5879930000000  0.4971660000000 1.0
C      1  0.4981320000000  0.6039950000000  0.4198880000000 1.0
C      1  0.5034410000000  0.4113470000000  0.5370660000000 1.0
C      1  0.4435310000000  0.6073210000000  0.4744300000000 1.0
C      1  0.4567060000000  0.5677670000000  0.5597000000000 1.0
C      1  0.5774920000000  0.5695540000000  0.5107260000000 1.0
C      1  0.4753920000000  0.5140230000000  0.3949170000000 1.0
C      1  0.4959440000000  0.5349550000000  0.5734710000000 1.0
C      1  0.5869060000000  0.5423020000000  0.5981260000000 1.0
C      1  0.5955860000000  0.5252260000000  0.5294680000000 1.0
C      1  0.4931400000000  0.4828130000000  0.5607880000000 1.0
C      1  0.4968600000000  0.4926950000000  0.6033840000000 1.0
C      1  0.6060900000000  0.5016060000000  0.5148500000000 1.0
C      1  0.5044660000000  0.4041090000000  0.5082920000000 1.0
C      1  0.4977190000000  0.6182820000000  0.5239110000000 1.0
C      1  0.4239020000000  0.4951970000000  0.5180830000000 1.0
C      1  0.4924180000000  0.5361580000000  0.3951280000000 1.0
C      1  0.3999370000000  0.5337370000000  0.5267460000000 1.0
C      1  0.4996200000000  0.4443030000000  0.5916350000000 1.0
C      1  0.4601610000000  0.5924800000000  0.5451230000000 1.0
C      1  0.4459420000000  0.4959540000000  0.4988920000000 1.0
C      1  0.5589890000000  0.4611200000000  0.4449330000000 1.0
C      1  0.4145890000000  0.5790000000000  0.5023920000000 1.0
C      1  0.4229540000000  0.5389150000000  0.4494080000000 1.0
C      1  0.5235520000000  0.5984410000000  0.4333020000000 1.0
C      1  0.5453070000000  0.4347570000000  0.3853500000000 1.0
C      1  0.4759350000000  0.4290810000000  0.5930130000000 1.0
C      1  0.4385860000000  0.5354720000000  0.5896300000000 1.0
C      1  0.5145550000000  0.4238060000000  0.4881380000000 1.0
C      1  0.4533220000000  0.4139700000000  0.5421970000000 1.0
C      1  0.5824180000000  0.4327540000000  0.4982580000000 1.0
C      1  0.4670410000000  0.4928890000000  0.6017880000000 1.0
C      1  0.5302600000000  0.5784470000000  0.4560870000000 1.0
C      1  0.5323250000000  0.5392490000000  0.4255640000000 1.0
C      1  0.4947840000000  0.4040680000000  0.4250620000000 1.0
C      1  0.5213850000000  0.5402670000000  0.5865520000000 1.0
C      1  0.4412410000000  0.4509600000000  0.4824260000000 1.0
C      1  0.4483640000000  0.4389140000000  0.5549240000000 1.0
C      1  0.4872690000000  0.5959760000000  0.5352360000000 1.0
C      1  0.5373850000000  0.5084070000000  0.5387470000000 1.0
C      1  0.3979350000000  0.4679820000000  0.4762590000000 1.0
C      1  0.5079270000000  0.5086000000000  0.4713360000000 1.0
C      1  0.5407200000000  0.4290920000000  0.4117310000000 1.0
C      1  0.4393240000000  0.4102450000000  0.5171640000000 1.0
C      1  0.4025400000000  0.5114590000000  0.5092330000000 1.0
C      1  0.5140210000000  0.5446580000000  0.5036630000000 1.0
C      1  0.5202290000000  0.4419090000000  0.5465590000000 1.0
C      1  0.4794440000000  0.4035740000000  0.5802490000000 1.0
C      1  0.5806430000000  0.4177260000000  0.4371440000000 1.0
C      1  0.5730630000000  0.5334430000000  0.5756000000000 1.0
C      1  0.5452940000000  0.5914560000000  0.4779680000000 1.0
C      1  0.5611920000000  0.4508250000000  0.5006160000000 1.0
C      1  0.4626900000000  0.5678370000000  0.4898770000000 1.0
C      1  0.4888320000000  0.5110910000000  0.5582160000000 1.0
C      1  0.5373860000000  0.4920410000000  0.5646480000000 1.0
C      1  0.5184270000000  0.4546960000000  0.5200190000000 1.0
C      1  0.4958730000000  0.5823570000000  0.3739350000000 1.0
C      1  0.5041300000000  0.4571670000000  0.5667450000000 1.0
C      1  0.4578340000000  0.4067760000000  0.4953340000000 1.0
C      1  0.6110020000000  0.4992910000000  0.4871120000000 1.0
C      1  0.5171390000000  0.4163110000000  0.4196140000000 1.0
C      1  0.5785750000000  0.5416680000000  0.5131220000000 1.0
C      1  0.4500260000000  0.4611040000000  0.5378170000000 1.0
C      1  0.4700680000000  0.5404610000000  0.4880870000000 1.0
C      1  0.5359550000000  0.4777970000000  0.4408660000000 1.0
C      1  0.5996640000000  0.5504300000000  0.6193460000000 1.0
C      1  0.4194510000000  0.4914110000000  0.4403440000000 1.0
C      1  0.4489390000000  0.4778410000000  0.4773440000000 1.0
C      1  0.4384680000000  0.5838260000000  0.4905940000000 1.0
C      1  0.5348540000000  0.4419090000000  0.5000280000000 1.0
C      1  0.4912300000000  0.4657330000000  0.4594740000000 1.0
C      1  0.4727030000000  0.5982650000000  0.4335990000000 1.0
C      1  0.4978330000000  0.6024320000000  0.3916750000000 1.0
C      1  0.4793140000000  0.4038740000000  0.5515170000000 1.0
C      1  0.4295930000000  0.4812280000000  0.5422690000000 1.0
C      1  0.5365810000000  0.5368360000000  0.5442980000000 1.0
C      1  0.4475500000000  0.4807380000000  0.4287990000000 1.0
C      1  0.4397570000000  0.5562070000000  0.4370120000000 1.0
C      1  0.5013260000000  0.5716110000000  0.5422520000000 1.0
C      1  0.5592720000000  0.5263660000000  0.4967520000000 1.0
C      1  0.5457580000000  0.5414610000000  0.5711380000000 1.0
C      1  0.4935820000000  0.5556240000000  0.3748750000000 1.0
C      1  0.5949820000000  0.4973610000000  0.4636440000000 1.0
C      1  0.5382110000000  0.4923330000000  0.4168140000000 1.0
C      1  0.4809270000000  0.3907510000000  0.4989100000000 1.0
C      1  0.5826170000000  0.4735890000000  0.4546240000000 1.0
C      1  0.5221910000000  0.4937970000000  0.5908290000000 1.0
C      1  0.5046990000000  0.5430270000000  0.4199530000000 1.0
C      1  0.5017790000000  0.5697250000000  0.4616390000000 1.0
C      1  0.4491580000000  0.4730120000000  0.5890630000000 1.0
C      1  0.5820740000000  0.5212340000000  0.4554570000000 1.0
C      1  0.4925570000000  0.4587460000000  0.5091580000000 1.0
C      1  0.5793090000000  0.4010350000000  0.5658390000000 1.0
C      1  0.5957460000000  0.4089760000000  0.4573700000000 1.0
C      1  0.5493860000000  0.5019390000000  0.5119460000000 1.0
C      1  0.4624230000000  0.4315750000000  0.4818300000000 1.0
C      1  0.4721710000000  0.4705260000000  0.5228360000000 1.0
C      1  0.5895600000000  0.4805460000000  0.5262850000000 1.0
C      1  0.4537210000000  0.5182340000000  0.6038420000000 1.0
C      1  0.4377640000000  0.4530240000000  0.4196670000000 1.0
C      1  0.4137770000000  0.5451880000000  0.5472940000000 1.0
C      1  0.4137820000000  0.4475200000000  0.4909440000000 1.0
C      1  0.4131160000000  0.4464580000000  0.4305100000000 1.0
C      1  0.5596220000000  0.5338580000000  0.4679270000000 1.0
END
