TITL C-627107-135-1854 -391.091507881643 125000 -959.625063719539 0 0 159 (C1) n - 1
REM
REM in /home/nfs/bkarasulu/CARBON/AIRSS/Generating-Clusters/LCBOP/Only-C1/SD-CG/FIRE-CG
REM
REM
REM
REM
REM
REM ./C.cell (11c1c37f851c82e70ff6c80c92926a4b)
REM AIRSS Version 0.9.1 bugfix July 2018 build 013d7b7c2542+ Fri, 06 Jul 2018 19:26:36 +0100
REM compiler GCC version 9.2.1 20190827 (Red Hat 9.2.1-1)
REM options -cpp -mtune=generic -march=x86-64 -g -O0 -fpre-include=/usr/include/finclude/math-vector-fortran.h
REM seed 1393709707 -1170166529 -1292548431 -301703428 -974813771 1925536427 -1387219866 1227922360 1434803580 -876260836 2028186267 -315676032 938256052 -1250045787 -1367472894 163685572 -1282547100 -629459452 -357539738 -553736787 1942873701 337213242 974267156 -1373237885 -598355415 -928939392 1566388671 1607811181 497794008 -251571714 -2075710944 1116046110 -1205971748
REM
CELL 1.54180   50.00000   50.00000   50.00000   90.00000   90.00000   90.00000
LATT -1
SFAC C  
C      1  0.4727840000000  0.5499900000000  0.4072320000000 1.0
C      1  0.5446300000000  0.5519800000000  0.4949230000000 1.0
C      1  0.5521260000000  0.5035700000000  0.4027660000000 1.0
C      1  0.5153080000000  0.3956960000000  0.4410090000000 1.0
C      1  0.4946390000000  0.5299010000000  0.5273090000000 1.0
C      1  0.5012390000000  0.3778080000000  0.4829960000000 1.0
C      1  0.4596290000000  0.4963430000000  0.6117960000000 1.0
C      1  0.3955750000000  0.4684430000000  0.5752070000000 1.0
C      1  0.5178130000000  0.5570450000000  0.4276710000000 1.0
C      1  0.5105800000000  0.4755410000000  0.5443620000000 1.0
C      1  0.5839430000000  0.4145590000000  0.4656360000000 1.0
C      1  0.5937220000000  0.4198290000000  0.5326210000000 1.0
C      1  0.5134490000000  0.5659550000000  0.5859900000000 1.0
C      1  0.5176910000000  0.5754410000000  0.4495400000000 1.0
C      1  0.4365180000000  0.5200470000000  0.4368860000000 1.0
C      1  0.4356000000000  0.4758220000000  0.5712740000000 1.0
C      1  0.4386880000000  0.4954050000000  0.5933470000000 1.0
C      1  0.5176820000000  0.4256440000000  0.5859880000000 1.0
C      1  0.4472900000000  0.4946510000000  0.4724980000000 1.0
C      1  0.4966910000000  0.5090460000000  0.5063190000000 1.0
C      1  0.4848380000000  0.5015780000000  0.6221480000000 1.0
C      1  0.4193030000000  0.4082310000000  0.5443910000000 1.0
C      1  0.5265380000000  0.5890360000000  0.5770850000000 1.0
C      1  0.5586820000000  0.4912530000000  0.6144000000000 1.0
C      1  0.6174750000000  0.5283080000000  0.4387240000000 1.0
C      1  0.5145030000000  0.4110250000000  0.5158980000000 1.0
C      1  0.5321570000000  0.6360550000000  0.4766700000000 1.0
C      1  0.4936890000000  0.3861580000000  0.4569890000000 1.0
C      1  0.5415760000000  0.5414380000000  0.4317840000000 1.0
C      1  0.5327340000000  0.4951110000000  0.6244600000000 1.0
C      1  0.4158400000000  0.4271960000000  0.5650460000000 1.0
C      1  0.4040640000000  0.4775890000000  0.5050840000000 1.0
C      1  0.5247340000000  0.5144480000000  0.5644110000000 1.0
C      1  0.5831080000000  0.4688210000000  0.4391950000000 1.0
C      1  0.5314570000000  0.4877330000000  0.5591070000000 1.0
C      1  0.4692640000000  0.4273230000000  0.4119410000000 1.0
C      1  0.5453720000000  0.6226580000000  0.4973910000000 1.0
C      1  0.5934610000000  0.4828890000000  0.4982130000000 1.0
C      1  0.5719740000000  0.6127940000000  0.4938430000000 1.0
C      1  0.4816720000000  0.5760420000000  0.5006580000000 1.0
C      1  0.6202460000000  0.5641720000000  0.4721270000000 1.0
C      1  0.3982630000000  0.4474570000000  0.4447790000000 1.0
C      1  0.5018000000000  0.4942750000000  0.3953920000000 1.0
C      1  0.4535870000000  0.4582280000000  0.5300880000000 1.0
C      1  0.4255780000000  0.3980080000000  0.5200810000000 1.0
C      1  0.5953100000000  0.4647230000000  0.4721650000000 1.0
C      1  0.5049770000000  0.4119390000000  0.5422550000000 1.0
C      1  0.5027750000000  0.4312560000000  0.5629680000000 1.0
C      1  0.4220180000000  0.5351360000000  0.4763080000000 1.0
C      1  0.5063810000000  0.4812380000000  0.6217060000000 1.0
C      1  0.3892990000000  0.4428930000000  0.4697700000000 1.0
C      1  0.4538280000000  0.6101690000000  0.5179700000000 1.0
C      1  0.4751830000000  0.4399280000000  0.6152270000000 1.0
C      1  0.3922540000000  0.4549440000000  0.4935540000000 1.0
C      1  0.4240180000000  0.5338800000000  0.5648500000000 1.0
C      1  0.4932900000000  0.5506920000000  0.5731130000000 1.0
C      1  0.6091310000000  0.4900320000000  0.5218400000000 1.0
C      1  0.5601830000000  0.4491360000000  0.5460580000000 1.0
C      1  0.5697160000000  0.4462810000000  0.4276480000000 1.0
C      1  0.4248700000000  0.4909170000000  0.5455290000000 1.0
C      1  0.5415030000000  0.4459630000000  0.4950620000000 1.0
C      1  0.5030830000000  0.6137240000000  0.5252340000000 1.0
C      1  0.6047090000000  0.5753260000000  0.4906830000000 1.0
C      1  0.5785820000000  0.4939400000000  0.4247630000000 1.0
C      1  0.4367220000000  0.4746890000000  0.4545670000000 1.0
C      1  0.5359900000000  0.5194920000000  0.4484660000000 1.0
C      1  0.4965490000000  0.4549600000000  0.6215860000000 1.0
C      1  0.4617650000000  0.5671730000000  0.4283550000000 1.0
C      1  0.5281020000000  0.4558850000000  0.4472840000000 1.0
C      1  0.4070840000000  0.5120950000000  0.4399840000000 1.0
C      1  0.4803410000000  0.6021650000000  0.5122090000000 1.0
C      1  0.5783380000000  0.4932290000000  0.5958840000000 1.0
C      1  0.4128750000000  0.5978870000000  0.4519200000000 1.0
C      1  0.5351250000000  0.4163000000000  0.6029920000000 1.0
C      1  0.4236760000000  0.5769380000000  0.4952090000000 1.0
C      1  0.5803550000000  0.5859630000000  0.4987950000000 1.0
C      1  0.5642540000000  0.5526440000000  0.4202030000000 1.0
C      1  0.5477580000000  0.5232630000000  0.4953890000000 1.0
C      1  0.4155530000000  0.4678170000000  0.4358880000000 1.0
C      1  0.4964850000000  0.5146280000000  0.4767630000000 1.0
C      1  0.5028320000000  0.5301020000000  0.5552570000000 1.0
C      1  0.3959830000000  0.5049660000000  0.4973940000000 1.0
C      1  0.4554490000000  0.5073090000000  0.4217780000000 1.0
C      1  0.4532880000000  0.4346160000000  0.6007160000000 1.0
C      1  0.5435070000000  0.4361450000000  0.4332180000000 1.0
C      1  0.5170730000000  0.4365370000000  0.5040250000000 1.0
C      1  0.4850360000000  0.5397900000000  0.4705470000000 1.0
C      1  0.4061930000000  0.4906730000000  0.4201960000000 1.0
C      1  0.4351330000000  0.4408980000000  0.5808600000000 1.0
C      1  0.4868490000000  0.5554050000000  0.5187770000000 1.0
C      1  0.5533810000000  0.5122790000000  0.4692580000000 1.0
C      1  0.4615280000000  0.4068390000000  0.4275260000000 1.0
C      1  0.6000770000000  0.5117500000000  0.4270420000000 1.0
C      1  0.4669710000000  0.5612070000000  0.5767210000000 1.0
C      1  0.5444090000000  0.4985690000000  0.5114460000000 1.0
C      1  0.4171900000000  0.5493720000000  0.5004030000000 1.0
C      1  0.5621320000000  0.4515520000000  0.5155130000000 1.0
C      1  0.4534640000000  0.5373730000000  0.3894000000000 1.0
C      1  0.4557380000000  0.5745040000000  0.4558210000000 1.0
C      1  0.4961630000000  0.4579070000000  0.5022210000000 1.0
C      1  0.5443230000000  0.5864550000000  0.5294210000000 1.0
C      1  0.4976190000000  0.5254980000000  0.6314980000000 1.0
C      1  0.5100830000000  0.4838910000000  0.5150250000000 1.0
C      1  0.5160500000000  0.5176470000000  0.3997950000000 1.0
C      1  0.4237390000000  0.5193420000000  0.5893350000000 1.0
C      1  0.4439880000000  0.4006810000000  0.4985970000000 1.0
C      1  0.5583290000000  0.5006100000000  0.3771300000000 1.0
C      1  0.3927960000000  0.4437810000000  0.5667640000000 1.0
C      1  0.4318050000000  0.4766730000000  0.5198020000000 1.0
C      1  0.4443500000000  0.5528480000000  0.5626100000000 1.0
C      1  0.5460710000000  0.5849310000000  0.5572320000000 1.0
C      1  0.5180830000000  0.6269140000000  0.4557790000000 1.0
C      1  0.5564280000000  0.4740730000000  0.5592960000000 1.0
C      1  0.4821990000000  0.4504090000000  0.4075490000000 1.0
C      1  0.4661640000000  0.3921330000000  0.4512670000000 1.0
C      1  0.5300710000000  0.6085950000000  0.5172030000000 1.0
C      1  0.5401930000000  0.4092430000000  0.4426770000000 1.0
C      1  0.5803840000000  0.4873560000000  0.5682470000000 1.0
C      1  0.5417420000000  0.4614870000000  0.4714470000000 1.0
C      1  0.4481980000000  0.4912360000000  0.4998260000000 1.0
C      1  0.5868810000000  0.4341750000000  0.5087880000000 1.0
C      1  0.4921160000000  0.4577680000000  0.5574490000000 1.0
C      1  0.5106640000000  0.4772570000000  0.4387240000000 1.0
C      1  0.5005520000000  0.6229110000000  0.5519930000000 1.0
C      1  0.5292040000000  0.5650800000000  0.4740710000000 1.0
C      1  0.4644770000000  0.4641830000000  0.5553050000000 1.0
C      1  0.4155130000000  0.5004280000000  0.3945830000000 1.0
C      1  0.4971590000000  0.4734670000000  0.4136470000000 1.0
C      1  0.5565670000000  0.4848120000000  0.4694960000000 1.0
C      1  0.4875210000000  0.4610070000000  0.4743060000000 1.0
C      1  0.5777440000000  0.4275860000000  0.5537190000000 1.0
C      1  0.4750260000000  0.5657940000000  0.4749620000000 1.0
C      1  0.4469350000000  0.3898460000000  0.4724590000000 1.0
C      1  0.5117240000000  0.6130640000000  0.5745660000000 1.0
C      1  0.5937320000000  0.4362570000000  0.4810610000000 1.0
C      1  0.5115320000000  0.5033950000000  0.4534230000000 1.0
C      1  0.5216650000000  0.3892550000000  0.4989110000000 1.0
C      1  0.4058880000000  0.5271750000000  0.5170580000000 1.0
C      1  0.4738010000000  0.4472310000000  0.4569960000000 1.0
C      1  0.4327470000000  0.5197800000000  0.3850770000000 1.0
C      1  0.4709880000000  0.4447840000000  0.5131870000000 1.0
C      1  0.4637080000000  0.4196270000000  0.5043220000000 1.0
C      1  0.4440080000000  0.5220310000000  0.4644360000000 1.0
C      1  0.4630420000000  0.5802640000000  0.5962170000000 1.0
C      1  0.4307570000000  0.5967850000000  0.5138690000000 1.0
C      1  0.5473570000000  0.3891060000000  0.4865900000000 1.0
C      1  0.5592140000000  0.5706040000000  0.5109440000000 1.0
C      1  0.5249220000000  0.5218240000000  0.6333690000000 1.0
C      1  0.5015600000000  0.5424690000000  0.4088310000000 1.0
C      1  0.5842950000000  0.5697050000000  0.4158990000000 1.0
C      1  0.6088800000000  0.5729370000000  0.4262710000000 1.0
C      1  0.6199710000000  0.5554650000000  0.4455590000000 1.0
C      1  0.4305580000000  0.5833840000000  0.4671250000000 1.0
C      1  0.5588170000000  0.4013670000000  0.4635870000000 1.0
C      1  0.4161070000000  0.5183060000000  0.5425850000000 1.0
C      1  0.6009320000000  0.4915990000000  0.5482980000000 1.0
C      1  0.4000630000000  0.5162310000000  0.4693450000000 1.0
C      1  0.5664070000000  0.4810240000000  0.5106360000000 1.0
C      1  0.5123570000000  0.6026360000000  0.4462490000000 1.0
END
