TITL C-627111-6168-1392 11.4628842623012 125000 -199.739228484495 0 0 35 (C1) n - 1
REM
REM in /home/nfs/bkarasulu/CARBON/AIRSS/Generating-Clusters/LCBOP/Only-C1/SD-CG/FIRE-CG
REM
REM
REM
REM
REM
REM ./C.cell (11c1c37f851c82e70ff6c80c92926a4b)
REM AIRSS Version 0.9.1 bugfix July 2018 build 013d7b7c2542+ Fri, 06 Jul 2018 19:26:36 +0100
REM compiler GCC version 9.2.1 20190827 (Red Hat 9.2.1-1)
REM options -cpp -mtune=generic -march=x86-64 -g -O0 -fpre-include=/usr/include/finclude/math-vector-fortran.h
REM seed 235201604 -670424878 1561285201 -1661110716 240414924 -1744915706 -2086863831 -1047337307 -1432276423 955455378 -409571352 -1954499738 1453065256 -930853085 -483528008 -1672811955 1816032985 2068563399 -107691461 1367093464 -738371371 244717936 -2025533616 -1014800159 -1184490374 1568988424 1308222321 -1032940491 33245506 -43454466 1105273506 -180010731 -14710567
REM
CELL 1.54180   50.00000   50.00000   50.00000   90.00000   90.00000   90.00000
LATT -1
SFAC C  
C      1  0.5071670000000  0.6082000000000  0.4324120000000 1.0
C      1  0.4907110000000  0.6228350000000  0.4176810000000 1.0
C      1  0.4812880000000  0.5071490000000  0.4727870000000 1.0
C      1  0.5247920000000  0.4933860000000  0.4566660000000 1.0
C      1  0.5131440000000  0.5403990000000  0.4572690000000 1.0
C      1  0.5476190000000  0.6042590000000  0.4586520000000 1.0
C      1  0.5362070000000  0.3895960000000  0.5218520000000 1.0
C      1  0.5724750000000  0.4754790000000  0.5582290000000 1.0
C      1  0.4920960000000  0.4733470000000  0.5096080000000 1.0
C      1  0.4413820000000  0.4656280000000  0.6114710000000 1.0
C      1  0.4295990000000  0.4673010000000  0.5102180000000 1.0
C      1  0.4742870000000  0.4874640000000  0.4936100000000 1.0
C      1  0.5063980000000  0.5137490000000  0.4621230000000 1.0
C      1  0.4449930000000  0.4854020000000  0.4953470000000 1.0
C      1  0.4518770000000  0.4654760000000  0.5862660000000 1.0
C      1  0.5021050000000  0.4611710000000  0.5684510000000 1.0
C      1  0.4745210000000  0.6372330000000  0.4031840000000 1.0
C      1  0.5209510000000  0.4631050000000  0.5479400000000 1.0
C      1  0.5374540000000  0.4501330000000  0.4802820000000 1.0
C      1  0.4793490000000  0.4623520000000  0.5819660000000 1.0
C      1  0.5130820000000  0.4586710000000  0.5209930000000 1.0
C      1  0.5402280000000  0.3655110000000  0.5309820000000 1.0
C      1  0.5474340000000  0.4697860000000  0.5537960000000 1.0
C      1  0.4349870000000  0.5049890000000  0.4766110000000 1.0
C      1  0.5321170000000  0.4141390000000  0.5127540000000 1.0
C      1  0.4558730000000  0.5174850000000  0.4635830000000 1.0
C      1  0.5361610000000  0.4701670000000  0.4628220000000 1.0
C      1  0.5187890000000  0.5658650000000  0.4527340000000 1.0
C      1  0.4155070000000  0.4475340000000  0.4975840000000 1.0
C      1  0.5245250000000  0.5927740000000  0.4479330000000 1.0
C      1  0.4289130000000  0.4694050000000  0.5380880000000 1.0
C      1  0.5695090000000  0.6151810000000  0.4688250000000 1.0
C      1  0.4355880000000  0.4684380000000  0.5637070000000 1.0
C      1  0.5910450000000  0.6259320000000  0.4788390000000 1.0
C      1  0.5278270000000  0.4404590000000  0.5047340000000 1.0
END
