TITL C-627108-131-29 -6.39761970363674e-07 125000 -627.784422955923 0 0 103 (C1) n - 1
REM
REM in /home/nfs/bkarasulu/CARBON/AIRSS/Generating-Clusters/LCBOP/Only-C1/SD-CG/FIRE-CG
REM
REM
REM
REM
REM
REM ./C.cell (11c1c37f851c82e70ff6c80c92926a4b)
REM AIRSS Version 0.9.1 bugfix July 2018 build 013d7b7c2542+ Fri, 06 Jul 2018 19:26:36 +0100
REM compiler GCC version 9.2.1 20190827 (Red Hat 9.2.1-1)
REM options -cpp -mtune=generic -march=x86-64 -g -O0 -fpre-include=/usr/include/finclude/math-vector-fortran.h
REM seed -1301703163 1568343334 257473098 1417410231 -148671630 2110746099 1446912264 927198267 -1068882442 -700645705 857766361 2008847703 845423928 -1047518608 1202003223 1275215230 -1991024649 -406822621 -1234372297 -107904167 991773915 1171927442 -1555821370 1359726237 1175930821 1661195125 -62920695 -1573614065 540420777 1209493566 512217682 1817821335 98341593
REM
CELL 1.54180   50.00000   50.00000   50.00000   90.00000   90.00000   90.00000
LATT -1
SFAC C  
C      1  0.4851720000000  0.5918990000000  0.4116920000000 1.0
C      1  0.4667240000000  0.4849770000000  0.4220790000000 1.0
C      1  0.4815830000000  0.4327520000000  0.4730930000000 1.0
C      1  0.5850760000000  0.4794030000000  0.5102280000000 1.0
C      1  0.5908680000000  0.5298890000000  0.5123040000000 1.0
C      1  0.5589780000000  0.4670620000000  0.5149050000000 1.0
C      1  0.5619630000000  0.5862870000000  0.4720530000000 1.0
C      1  0.5495900000000  0.3753690000000  0.4557790000000 1.0
C      1  0.4830930000000  0.5851320000000  0.5496270000000 1.0
C      1  0.5286600000000  0.4157060000000  0.4268260000000 1.0
C      1  0.4954090000000  0.5298700000000  0.5754570000000 1.0
C      1  0.5652680000000  0.5339210000000  0.5599460000000 1.0
C      1  0.4392360000000  0.5088440000000  0.4549330000000 1.0
C      1  0.5835560000000  0.5759840000000  0.4852160000000 1.0
C      1  0.5393380000000  0.3950230000000  0.4420760000000 1.0
C      1  0.5618220000000  0.5267410000000  0.4508610000000 1.0
C      1  0.4695550000000  0.4693060000000  0.4008090000000 1.0
C      1  0.5029950000000  0.5297040000000  0.4986710000000 1.0
C      1  0.5107300000000  0.5771450000000  0.4632530000000 1.0
C      1  0.4686240000000  0.5233680000000  0.6332200000000 1.0
C      1  0.4556350000000  0.4218350000000  0.5631230000000 1.0
C      1  0.4413030000000  0.4315690000000  0.5405220000000 1.0
C      1  0.5141510000000  0.5498980000000  0.4059110000000 1.0
C      1  0.4774690000000  0.6125240000000  0.4274750000000 1.0
C      1  0.5308230000000  0.5842900000000  0.5441300000000 1.0
C      1  0.4984750000000  0.5007770000000  0.5811960000000 1.0
C      1  0.4914940000000  0.5612170000000  0.4462680000000 1.0
C      1  0.4739840000000  0.4825950000000  0.4716710000000 1.0
C      1  0.4858080000000  0.6012960000000  0.4991140000000 1.0
C      1  0.6081120000000  0.4667200000000  0.5180950000000 1.0
C      1  0.4459300000000  0.5348460000000  0.4658550000000 1.0
C      1  0.4625700000000  0.4933210000000  0.4482150000000 1.0
C      1  0.5321070000000  0.5306460000000  0.4898970000000 1.0
C      1  0.5383180000000  0.4678090000000  0.4171530000000 1.0
C      1  0.4726040000000  0.5464280000000  0.4636190000000 1.0
C      1  0.5151750000000  0.5499460000000  0.5731040000000 1.0
C      1  0.4967050000000  0.5774820000000  0.4888760000000 1.0
C      1  0.4320470000000  0.4367150000000  0.4700480000000 1.0
C      1  0.5275520000000  0.4137300000000  0.5584880000000 1.0
C      1  0.4823320000000  0.5060530000000  0.5379630000000 1.0
C      1  0.4580200000000  0.4317510000000  0.4602820000000 1.0
C      1  0.5059170000000  0.4119260000000  0.4106500000000 1.0
C      1  0.5373540000000  0.4828090000000  0.5057870000000 1.0
C      1  0.4507630000000  0.4285310000000  0.5895120000000 1.0
C      1  0.4722770000000  0.3993220000000  0.5246860000000 1.0
C      1  0.5866530000000  0.5055700000000  0.4968300000000 1.0
C      1  0.4927350000000  0.4600640000000  0.5458570000000 1.0
C      1  0.5384080000000  0.4174270000000  0.5323660000000 1.0
C      1  0.5100370000000  0.4642830000000  0.3759440000000 1.0
C      1  0.4262640000000  0.4239980000000  0.4954740000000 1.0
C      1  0.5016050000000  0.4801010000000  0.4753930000000 1.0
C      1  0.4910580000000  0.4855890000000  0.5571730000000 1.0
C      1  0.5387640000000  0.5723030000000  0.4633580000000 1.0
C      1  0.4915290000000  0.4313270000000  0.4991950000000 1.0
C      1  0.5025850000000  0.4051830000000  0.5648620000000 1.0
C      1  0.5480980000000  0.5154180000000  0.4280810000000 1.0
C      1  0.4310400000000  0.5454370000000  0.4876330000000 1.0
C      1  0.4488760000000  0.5734260000000  0.5828530000000 1.0
C      1  0.5399700000000  0.4414910000000  0.4269310000000 1.0
C      1  0.5362590000000  0.4899150000000  0.4344670000000 1.0
C      1  0.5343520000000  0.5325230000000  0.4100690000000 1.0
C      1  0.4269710000000  0.4545490000000  0.5297290000000 1.0
C      1  0.5425530000000  0.5414170000000  0.5724230000000 1.0
C      1  0.4837640000000  0.6026540000000  0.5270740000000 1.0
C      1  0.4743970000000  0.6219400000000  0.4525080000000 1.0
C      1  0.4768010000000  0.6192870000000  0.4792250000000 1.0
C      1  0.5441610000000  0.5708380000000  0.5252250000000 1.0
C      1  0.4479170000000  0.4369380000000  0.6140140000000 1.0
C      1  0.4961790000000  0.5068300000000  0.5139330000000 1.0
C      1  0.4948150000000  0.5661510000000  0.4185640000000 1.0
C      1  0.4185560000000  0.4887110000000  0.4589560000000 1.0
C      1  0.5321500000000  0.4709940000000  0.3897780000000 1.0
C      1  0.4859930000000  0.5503720000000  0.4899930000000 1.0
C      1  0.4769940000000  0.5292110000000  0.5531680000000 1.0
C      1  0.5428730000000  0.5015890000000  0.4832290000000 1.0
C      1  0.5176880000000  0.4702210000000  0.6135850000000 1.0
C      1  0.4853580000000  0.5035800000000  0.6271170000000 1.0
C      1  0.5238610000000  0.4008660000000  0.5137240000000 1.0
C      1  0.5085630000000  0.5746910000000  0.5589570000000 1.0
C      1  0.5534320000000  0.4405950000000  0.5246480000000 1.0
C      1  0.4867560000000  0.4523290000000  0.3866890000000 1.0
C      1  0.5705610000000  0.5085410000000  0.4727790000000 1.0
C      1  0.4917470000000  0.4491630000000  0.5211480000000 1.0
C      1  0.5827320000000  0.5302130000000  0.5397220000000 1.0
C      1  0.4961260000000  0.4045400000000  0.5086270000000 1.0
C      1  0.5437900000000  0.5477770000000  0.5117830000000 1.0
C      1  0.4765690000000  0.4042070000000  0.5537720000000 1.0
C      1  0.5435130000000  0.5445910000000  0.4649470000000 1.0
C      1  0.4462580000000  0.4130380000000  0.5162600000000 1.0
C      1  0.4481690000000  0.5628700000000  0.6072290000000 1.0
C      1  0.4891990000000  0.4253950000000  0.3945920000000 1.0
C      1  0.4083070000000  0.4410730000000  0.5116730000000 1.0
C      1  0.5009680000000  0.4909090000000  0.6075120000000 1.0
C      1  0.4550940000000  0.5450040000000  0.6256730000000 1.0
C      1  0.5252580000000  0.4886620000000  0.4606920000000 1.0
C      1  0.5088690000000  0.4831920000000  0.5038100000000 1.0
C      1  0.5940060000000  0.5548680000000  0.4986000000000 1.0
C      1  0.4187840000000  0.4613800000000  0.4623210000000 1.0
C      1  0.4310810000000  0.5564790000000  0.5120820000000 1.0
C      1  0.4569330000000  0.4806670000000  0.4950410000000 1.0
C      1  0.4569740000000  0.5754260000000  0.5561770000000 1.0
C      1  0.4417980000000  0.4750360000000  0.5167550000000 1.0
C      1  0.4400870000000  0.5667370000000  0.5351140000000 1.0
END
