TITL C-627109-622-1930 -3.03587189472371e-07 125000 -31.185642863127 0 0 6 (D(inf)h) n - 1
REM
REM in /home/nfs/bkarasulu/CARBON/AIRSS/Generating-Clusters/LCBOP/Only-C1/SD-CG/FIRE-CG
REM
REM
REM
REM
REM
REM ./C.cell (11c1c37f851c82e70ff6c80c92926a4b)
REM AIRSS Version 0.9.1 bugfix July 2018 build 013d7b7c2542+ Fri, 06 Jul 2018 19:26:36 +0100
REM compiler GCC version 9.2.1 20190827 (Red Hat 9.2.1-1)
REM options -cpp -mtune=generic -march=x86-64 -g -O0 -fpre-include=/usr/include/finclude/math-vector-fortran.h
REM seed 105322375 -1771146310 548579314 -1633051702 2094442418 1062449646 904732838 1940604097 1155608513 -1618618872 430800594 869689007 1263715700 741324053 -1392195914 -240207010 -1523543755 1913003135 -95211638 1262978952 27260908 -1010757837 770239221 -1178745970 -1569769690 1146670208 -1185027431 253531247 273359674 131483449 1449802631 -300505740 1480180836
REM
CELL 1.54180   50.00000   50.00000   50.00000   90.00000   90.00000   90.00000
LATT -1
SFAC C  
C      1  0.5206850000000  0.4712230000000  0.4445280000000 1.0
C      1  0.4793150000000  0.5287770000000  0.5554720000000 1.0
C      1  0.5041630000000  0.4942080000000  0.4888340000000 1.0
C      1  0.4875070000000  0.5173800000000  0.5335030000000 1.0
C      1  0.5124930000000  0.4826200000000  0.4664970000000 1.0
C      1  0.4958360000000  0.5057920000000  0.5111660000000 1.0
END
