TITL C-627107-135-515 -3.72907281026466e-07 125000 -663.471363926595 0 0 108 (C1) n - 1
REM
REM in /home/nfs/bkarasulu/CARBON/AIRSS/Generating-Clusters/LCBOP/Only-C1/SD-CG/FIRE-CG
REM
REM
REM
REM
REM
REM ./C.cell (11c1c37f851c82e70ff6c80c92926a4b)
REM AIRSS Version 0.9.1 bugfix July 2018 build 013d7b7c2542+ Fri, 06 Jul 2018 19:26:36 +0100
REM compiler GCC version 9.2.1 20190827 (Red Hat 9.2.1-1)
REM options -cpp -mtune=generic -march=x86-64 -g -O0 -fpre-include=/usr/include/finclude/math-vector-fortran.h
REM seed 890771143 -1490534437 -322778416 -1896058026 -819878076 1958998940 425373818 -693666073 2031099643 1648381083 -1155920221 -552303900 259355985 -1077814253 1987604592 2045017730 379872608 1614721631 -121524944 605008895 -1360230668 1293316499 282897009 818234031 -624326568 1401366801 704335699 609605892 469075268 -2114854082 -1682465011 -194379835 -132660812
REM
CELL 1.54180   50.00000   50.00000   50.00000   90.00000   90.00000   90.00000
LATT -1
SFAC C  
C      1  0.5841790000000  0.4842610000000  0.4452590000000 1.0
C      1  0.5419090000000  0.5635010000000  0.5661310000000 1.0
C      1  0.4486070000000  0.5592440000000  0.4250490000000 1.0
C      1  0.5465350000000  0.5488420000000  0.5902910000000 1.0
C      1  0.4533420000000  0.4317770000000  0.5214830000000 1.0
C      1  0.5124700000000  0.4146000000000  0.4911990000000 1.0
C      1  0.4728620000000  0.4076660000000  0.4645740000000 1.0
C      1  0.4854240000000  0.3972130000000  0.5312070000000 1.0
C      1  0.5240590000000  0.4026830000000  0.4500270000000 1.0
C      1  0.4590950000000  0.3980370000000  0.4876200000000 1.0
C      1  0.5452310000000  0.4613630000000  0.4248380000000 1.0
C      1  0.4654320000000  0.4725060000000  0.5744940000000 1.0
C      1  0.4284700000000  0.4952440000000  0.5443710000000 1.0
C      1  0.4264700000000  0.4820810000000  0.4380160000000 1.0
C      1  0.5862570000000  0.4972240000000  0.4703560000000 1.0
C      1  0.5629350000000  0.5437470000000  0.4874730000000 1.0
C      1  0.5894550000000  0.4826750000000  0.4942650000000 1.0
C      1  0.4650850000000  0.5739210000000  0.4707280000000 1.0
C      1  0.5095540000000  0.4905610000000  0.5757300000000 1.0
C      1  0.5569550000000  0.4942570000000  0.5956520000000 1.0
C      1  0.5272100000000  0.5436740000000  0.4510140000000 1.0
C      1  0.5709210000000  0.5762070000000  0.5239860000000 1.0
C      1  0.5444580000000  0.5563970000000  0.4297520000000 1.0
C      1  0.5320950000000  0.5130800000000  0.4476500000000 1.0
C      1  0.5062120000000  0.4099750000000  0.5475740000000 1.0
C      1  0.4871680000000  0.5155390000000  0.4564620000000 1.0
C      1  0.5711960000000  0.5976980000000  0.5058050000000 1.0
C      1  0.5549440000000  0.5817730000000  0.4353200000000 1.0
C      1  0.5667830000000  0.4528430000000  0.5249280000000 1.0
C      1  0.5116060000000  0.4998440000000  0.4656280000000 1.0
C      1  0.4579030000000  0.4708120000000  0.4943050000000 1.0
C      1  0.3561970000000  0.5040410000000  0.4496690000000 1.0
C      1  0.4739180000000  0.4450280000000  0.5356680000000 1.0
C      1  0.5065570000000  0.4687170000000  0.4683300000000 1.0
C      1  0.5491990000000  0.4309390000000  0.5174160000000 1.0
C      1  0.5496910000000  0.5089690000000  0.4254120000000 1.0
C      1  0.4601840000000  0.5364180000000  0.5349020000000 1.0
C      1  0.5187450000000  0.5546520000000  0.5519080000000 1.0
C      1  0.5700840000000  0.5048170000000  0.5323790000000 1.0
C      1  0.5050360000000  0.4869020000000  0.5475800000000 1.0
C      1  0.5550350000000  0.5346450000000  0.4139570000000 1.0
C      1  0.5724130000000  0.5391750000000  0.5973320000000 1.0
C      1  0.4733860000000  0.5411520000000  0.5605730000000 1.0
C      1  0.4019350000000  0.4903130000000  0.4441950000000 1.0
C      1  0.5770800000000  0.5123390000000  0.5992280000000 1.0
C      1  0.5322060000000  0.4165530000000  0.5364580000000 1.0
C      1  0.4170780000000  0.5168240000000  0.5298370000000 1.0
C      1  0.4589380000000  0.4993540000000  0.4910210000000 1.0
C      1  0.4980900000000  0.4602830000000  0.4411580000000 1.0
C      1  0.4756060000000  0.5171230000000  0.5171210000000 1.0
C      1  0.4852920000000  0.4611310000000  0.4910980000000 1.0
C      1  0.5009330000000  0.4040590000000  0.4667160000000 1.0
C      1  0.4780350000000  0.5242220000000  0.5848010000000 1.0
C      1  0.5066970000000  0.4820780000000  0.3994480000000 1.0
C      1  0.5609560000000  0.5772180000000  0.5504360000000 1.0
C      1  0.5381900000000  0.4313040000000  0.4879780000000 1.0
C      1  0.4696370000000  0.4560440000000  0.4410870000000 1.0
C      1  0.5542020000000  0.4382450000000  0.4382530000000 1.0
C      1  0.5773480000000  0.5240670000000  0.4728350000000 1.0
C      1  0.5319380000000  0.4608230000000  0.4838490000000 1.0
C      1  0.4581250000000  0.5417960000000  0.4071250000000 1.0
C      1  0.4946290000000  0.4537320000000  0.5178610000000 1.0
C      1  0.5768570000000  0.4793710000000  0.5196340000000 1.0
C      1  0.5097920000000  0.5528860000000  0.4943300000000 1.0
C      1  0.4906030000000  0.5025020000000  0.3930310000000 1.0
C      1  0.4733870000000  0.5226860000000  0.3963230000000 1.0
C      1  0.5360260000000  0.5511720000000  0.4800030000000 1.0
C      1  0.4630680000000  0.5025840000000  0.4625790000000 1.0
C      1  0.5858260000000  0.5280910000000  0.5267380000000 1.0
C      1  0.5192320000000  0.5051290000000  0.4947240000000 1.0
C      1  0.5631610000000  0.5985470000000  0.4545070000000 1.0
C      1  0.5452370000000  0.4211820000000  0.4585040000000 1.0
C      1  0.4127090000000  0.4467840000000  0.4973340000000 1.0
C      1  0.4348120000000  0.5910370000000  0.5376250000000 1.0
C      1  0.3974420000000  0.5131750000000  0.5103640000000 1.0
C      1  0.5156570000000  0.4703330000000  0.5276180000000 1.0
C      1  0.4977670000000  0.5364250000000  0.6022960000000 1.0
C      1  0.4236580000000  0.5674480000000  0.5312180000000 1.0
C      1  0.4540160000000  0.4863160000000  0.5513420000000 1.0
C      1  0.5751450000000  0.5504430000000  0.5125810000000 1.0
C      1  0.5302250000000  0.4805850000000  0.5055580000000 1.0
C      1  0.4535010000000  0.4804050000000  0.4454500000000 1.0
C      1  0.4963980000000  0.5428770000000  0.4532270000000 1.0
C      1  0.5440590000000  0.5131030000000  0.5399620000000 1.0
C      1  0.4627650000000  0.4291470000000  0.4484260000000 1.0
C      1  0.5167060000000  0.4653940000000  0.4199430000000 1.0
C      1  0.3813370000000  0.5009650000000  0.4599820000000 1.0
C      1  0.4057450000000  0.4361170000000  0.4730960000000 1.0
C      1  0.4816560000000  0.5887830000000  0.5551190000000 1.0
C      1  0.4784460000000  0.4950920000000  0.5376300000000 1.0
C      1  0.4399100000000  0.4503740000000  0.5038930000000 1.0
C      1  0.4818620000000  0.4941870000000  0.5858400000000 1.0
C      1  0.3934230000000  0.4522240000000  0.5160150000000 1.0
C      1  0.5252450000000  0.5305790000000  0.5982070000000 1.0
C      1  0.4888140000000  0.5600460000000  0.4755550000000 1.0
C      1  0.4765830000000  0.4469900000000  0.5646970000000 1.0
C      1  0.5625640000000  0.4841490000000  0.4268090000000 1.0
C      1  0.3867930000000  0.5083830000000  0.4864950000000 1.0
C      1  0.5685150000000  0.6045020000000  0.4800330000000 1.0
C      1  0.4323740000000  0.5408290000000  0.5309510000000 1.0
C      1  0.5050840000000  0.5272080000000  0.5107670000000 1.0
C      1  0.4625020000000  0.4052370000000  0.5148730000000 1.0
C      1  0.5225100000000  0.5313820000000  0.5355900000000 1.0
C      1  0.4956740000000  0.4259000000000  0.5698890000000 1.0
C      1  0.4923810000000  0.5630180000000  0.5578560000000 1.0
C      1  0.5302740000000  0.5025450000000  0.5908590000000 1.0
C      1  0.4496430000000  0.5720600000000  0.4486210000000 1.0
C      1  0.4584360000000  0.5995990000000  0.5470810000000 1.0
END
