TITL C-627107-135-1189 -13.5165224227861 125000 -1017.10633307179 0 0 166 (C1) n - 1
REM
REM in /home/nfs/bkarasulu/CARBON/AIRSS/Generating-Clusters/LCBOP/Only-C1/SD-CG/FIRE-CG
REM
REM
REM
REM
REM
REM ./C.cell (11c1c37f851c82e70ff6c80c92926a4b)
REM AIRSS Version 0.9.1 bugfix July 2018 build 013d7b7c2542+ Fri, 06 Jul 2018 19:26:36 +0100
REM compiler GCC version 9.2.1 20190827 (Red Hat 9.2.1-1)
REM options -cpp -mtune=generic -march=x86-64 -g -O0 -fpre-include=/usr/include/finclude/math-vector-fortran.h
REM seed 1251127446 -372351608 1803288183 -1282913498 -671772312 -142810590 -109358958 163270347 -1927304186 -1314289723 1358420783 -1246628510 -1877764855 1736988835 269573264 175701396 1149991922 472562505 -1697179808 -1858881930 726692031 63416889 8153925 254120245 -331784599 -322384319 1792563795 -944699220 1981505543 -79918529 -1487610402 -849339127 -1738955244
REM
CELL 1.54180   50.00000   50.00000   50.00000   90.00000   90.00000   90.00000
LATT -1
SFAC C  
C      1  0.5794770000000  0.5132680000000  0.3904120000000 1.0
C      1  0.4502230000000  0.5050030000000  0.4096510000000 1.0
C      1  0.5213060000000  0.4921890000000  0.5090830000000 1.0
C      1  0.5158400000000  0.5013900000000  0.6099020000000 1.0
C      1  0.4980630000000  0.6010820000000  0.5298740000000 1.0
C      1  0.5222030000000  0.6021310000000  0.5457670000000 1.0
C      1  0.5582490000000  0.5952600000000  0.4572100000000 1.0
C      1  0.5168640000000  0.4535450000000  0.3914410000000 1.0
C      1  0.4815500000000  0.3855400000000  0.4986170000000 1.0
C      1  0.5479390000000  0.5668230000000  0.5777600000000 1.0
C      1  0.4457320000000  0.5946380000000  0.5408590000000 1.0
C      1  0.5048280000000  0.5478660000000  0.6111340000000 1.0
C      1  0.4229460000000  0.4345220000000  0.4975780000000 1.0
C      1  0.4989000000000  0.4563760000000  0.5606180000000 1.0
C      1  0.5051840000000  0.4930180000000  0.4182760000000 1.0
C      1  0.5480040000000  0.4995860000000  0.4451540000000 1.0
C      1  0.4265680000000  0.5871830000000  0.4613590000000 1.0
C      1  0.5718500000000  0.5297380000000  0.5472500000000 1.0
C      1  0.5078060000000  0.5549040000000  0.4683050000000 1.0
C      1  0.5684320000000  0.5886150000000  0.5364900000000 1.0
C      1  0.4657570000000  0.4298270000000  0.4729480000000 1.0
C      1  0.4027110000000  0.4900710000000  0.5331120000000 1.0
C      1  0.5918570000000  0.5042610000000  0.4141650000000 1.0
C      1  0.4454020000000  0.5268860000000  0.5845790000000 1.0
C      1  0.4607880000000  0.4428150000000  0.5875860000000 1.0
C      1  0.5264340000000  0.5857830000000  0.5698390000000 1.0
C      1  0.5153550000000  0.4465770000000  0.4789100000000 1.0
C      1  0.4515560000000  0.4824580000000  0.5189430000000 1.0
C      1  0.4573670000000  0.5340260000000  0.4918960000000 1.0
C      1  0.3972980000000  0.4968600000000  0.5053310000000 1.0
C      1  0.4958050000000  0.5474220000000  0.5658460000000 1.0
C      1  0.5175900000000  0.4121100000000  0.5170510000000 1.0
C      1  0.5684390000000  0.5204840000000  0.5742480000000 1.0
C      1  0.5825220000000  0.4213600000000  0.5042580000000 1.0
C      1  0.4961400000000  0.5549540000000  0.5185220000000 1.0
C      1  0.4639750000000  0.6093890000000  0.4986510000000 1.0
C      1  0.6270430000000  0.5166900000000  0.5181740000000 1.0
C      1  0.4636050000000  0.6183820000000  0.4712800000000 1.0
C      1  0.5706540000000  0.4874440000000  0.4869360000000 1.0
C      1  0.4022950000000  0.5173310000000  0.4362120000000 1.0
C      1  0.4940310000000  0.4896900000000  0.5123710000000 1.0
C      1  0.4278960000000  0.4412370000000  0.5437920000000 1.0
C      1  0.4473430000000  0.5775410000000  0.5669560000000 1.0
C      1  0.5704820000000  0.5768210000000  0.5622910000000 1.0
C      1  0.4430190000000  0.4440860000000  0.4797600000000 1.0
C      1  0.5435630000000  0.6108300000000  0.4764060000000 1.0
C      1  0.4383820000000  0.5253120000000  0.5551760000000 1.0
C      1  0.4950970000000  0.4842350000000  0.5573700000000 1.0
C      1  0.4611230000000  0.5311630000000  0.4201620000000 1.0
C      1  0.5416520000000  0.5356320000000  0.5083160000000 1.0
C      1  0.5319740000000  0.4416340000000  0.4103960000000 1.0
C      1  0.5489500000000  0.5380360000000  0.5890680000000 1.0
C      1  0.5958100000000  0.4564050000000  0.5387270000000 1.0
C      1  0.4236090000000  0.5619400000000  0.4454040000000 1.0
C      1  0.4834900000000  0.4448370000000  0.5169120000000 1.0
C      1  0.5217760000000  0.5431580000000  0.5290130000000 1.0
C      1  0.4582520000000  0.5814570000000  0.4951300000000 1.0
C      1  0.4677730000000  0.5787830000000  0.4347250000000 1.0
C      1  0.6039550000000  0.4359030000000  0.5555170000000 1.0
C      1  0.4479930000000  0.5557440000000  0.4308530000000 1.0
C      1  0.4951250000000  0.3922580000000  0.4729260000000 1.0
C      1  0.5411560000000  0.3907140000000  0.5699510000000 1.0
C      1  0.6024790000000  0.5815100000000  0.5027620000000 1.0
C      1  0.4946190000000  0.4840470000000  0.6106690000000 1.0
C      1  0.5885600000000  0.4483430000000  0.5114780000000 1.0
C      1  0.5168270000000  0.4600800000000  0.4537180000000 1.0
C      1  0.5300450000000  0.5256040000000  0.3886130000000 1.0
C      1  0.5486410000000  0.3925790000000  0.4757340000000 1.0
C      1  0.4814920000000  0.5131490000000  0.5217970000000 1.0
C      1  0.4115750000000  0.4905880000000  0.4379980000000 1.0
C      1  0.5163330000000  0.5307010000000  0.5548690000000 1.0
C      1  0.4738600000000  0.4157880000000  0.5878210000000 1.0
C      1  0.4256430000000  0.4291930000000  0.4355930000000 1.0
C      1  0.5842710000000  0.5360710000000  0.4556140000000 1.0
C      1  0.4274030000000  0.4067430000000  0.4520130000000 1.0
C      1  0.4294590000000  0.4215800000000  0.5220180000000 1.0
C      1  0.4821070000000  0.4129070000000  0.4573330000000 1.0
C      1  0.5161180000000  0.6054320000000  0.4713100000000 1.0
C      1  0.4014270000000  0.4522540000000  0.5048290000000 1.0
C      1  0.4596590000000  0.4850980000000  0.5467510000000 1.0
C      1  0.5229080000000  0.3873920000000  0.4699350000000 1.0
C      1  0.4535390000000  0.5988840000000  0.4520530000000 1.0
C      1  0.5385140000000  0.4547530000000  0.4344980000000 1.0
C      1  0.5399890000000  0.5248060000000  0.4349110000000 1.0
C      1  0.4696600000000  0.6093070000000  0.5279740000000 1.0
C      1  0.5000640000000  0.4830340000000  0.4453390000000 1.0
C      1  0.4198110000000  0.5942600000000  0.5212340000000 1.0
C      1  0.4842690000000  0.4993290000000  0.4625670000000 1.0
C      1  0.4819160000000  0.4856020000000  0.3765430000000 1.0
C      1  0.4679310000000  0.3946170000000  0.5655920000000 1.0
C      1  0.4749670000000  0.4696310000000  0.5080040000000 1.0
C      1  0.4595570000000  0.4989080000000  0.3833200000000 1.0
C      1  0.5009040000000  0.5811890000000  0.5085910000000 1.0
C      1  0.4941300000000  0.5682440000000  0.4258340000000 1.0
C      1  0.5845410000000  0.4781940000000  0.4241180000000 1.0
C      1  0.4436000000000  0.5079200000000  0.4937510000000 1.0
C      1  0.6032590000000  0.4590120000000  0.4659050000000 1.0
C      1  0.5484580000000  0.6177360000000  0.5036830000000 1.0
C      1  0.6200010000000  0.5299110000000  0.4954140000000 1.0
C      1  0.5381100000000  0.4953600000000  0.5326450000000 1.0
C      1  0.4419070000000  0.4841040000000  0.5680210000000 1.0
C      1  0.4935480000000  0.3867400000000  0.5522900000000 1.0
C      1  0.6026060000000  0.4629700000000  0.4393540000000 1.0
C      1  0.5468990000000  0.6069740000000  0.5303470000000 1.0
C      1  0.3954840000000  0.4742470000000  0.4872980000000 1.0
C      1  0.4142750000000  0.5116620000000  0.5477840000000 1.0
C      1  0.3957970000000  0.5943900000000  0.5346360000000 1.0
C      1  0.5780400000000  0.5753820000000  0.5131740000000 1.0
C      1  0.5285700000000  0.5139030000000  0.4886290000000 1.0
C      1  0.5032890000000  0.4160830000000  0.5874080000000 1.0
C      1  0.5425870000000  0.4138050000000  0.5295030000000 1.0
C      1  0.5589310000000  0.5584960000000  0.5007270000000 1.0
C      1  0.5555780000000  0.5213040000000  0.3811010000000 1.0
C      1  0.5877400000000  0.4653450000000  0.4885930000000 1.0
C      1  0.4342690000000  0.4820810000000  0.4213210000000 1.0
C      1  0.5433480000000  0.4377400000000  0.5706800000000 1.0
C      1  0.6180300000000  0.5001260000000  0.5374770000000 1.0
C      1  0.5506790000000  0.4139560000000  0.5564570000000 1.0
C      1  0.4504370000000  0.4970700000000  0.5924140000000 1.0
C      1  0.4571080000000  0.4926820000000  0.4704670000000 1.0
C      1  0.5132350000000  0.3916350000000  0.5736540000000 1.0
C      1  0.5694390000000  0.4040310000000  0.4883180000000 1.0
C      1  0.4170700000000  0.5937280000000  0.4897720000000 1.0
C      1  0.5604280000000  0.5164900000000  0.5238660000000 1.0
C      1  0.4400700000000  0.3957260000000  0.5231240000000 1.0
C      1  0.4072680000000  0.4609130000000  0.5337940000000 1.0
C      1  0.5481150000000  0.4978970000000  0.4726770000000 1.0
C      1  0.4816550000000  0.4208630000000  0.4300390000000 1.0
C      1  0.4849790000000  0.5332360000000  0.5004990000000 1.0
C      1  0.4978350000000  0.3913270000000  0.5232110000000 1.0
C      1  0.5939700000000  0.5288430000000  0.4833540000000 1.0
C      1  0.4684360000000  0.4750590000000  0.6026310000000 1.0
C      1  0.5830510000000  0.4948360000000  0.5726510000000 1.0
C      1  0.4785160000000  0.5519590000000  0.5434050000000 1.0
C      1  0.4145650000000  0.5161710000000  0.4948830000000 1.0
C      1  0.5258570000000  0.5283700000000  0.6059890000000 1.0
C      1  0.5028310000000  0.5264040000000  0.4778810000000 1.0
C      1  0.5157220000000  0.4405580000000  0.5772600000000 1.0
C      1  0.4370450000000  0.3912390000000  0.4730160000000 1.0
C      1  0.4564830000000  0.5549640000000  0.5871330000000 1.0
C      1  0.5791990000000  0.5103990000000  0.5011190000000 1.0
C      1  0.4393830000000  0.4696300000000  0.4683690000000 1.0
C      1  0.4623760000000  0.5282430000000  0.5394190000000 1.0
C      1  0.5990510000000  0.5233210000000  0.4341790000000 1.0
C      1  0.4029700000000  0.5363510000000  0.4794360000000 1.0
C      1  0.4061160000000  0.5407090000000  0.4518810000000 1.0
C      1  0.4406940000000  0.4517090000000  0.4223930000000 1.0
C      1  0.4668900000000  0.4401960000000  0.4174670000000 1.0
C      1  0.4458600000000  0.3872740000000  0.5495580000000 1.0
C      1  0.5066390000000  0.4346170000000  0.5035350000000 1.0
C      1  0.5215870000000  0.5767400000000  0.4286650000000 1.0
C      1  0.4521800000000  0.3868550000000  0.4982630000000 1.0
C      1  0.4113550000000  0.4766770000000  0.4631670000000 1.0
C      1  0.5477560000000  0.5733610000000  0.4415800000000 1.0
C      1  0.5576480000000  0.5463420000000  0.4448050000000 1.0
C      1  0.5021760000000  0.4773690000000  0.3940850000000 1.0
C      1  0.4786740000000  0.4423470000000  0.5448230000000 1.0
C      1  0.5571930000000  0.4762980000000  0.4320910000000 1.0
C      1  0.5155790000000  0.5220540000000  0.4150180000000 1.0
C      1  0.4460030000000  0.5585270000000  0.4924690000000 1.0
C      1  0.4522270000000  0.4431120000000  0.5588580000000 1.0
C      1  0.5062390000000  0.5810290000000  0.4808310000000 1.0
C      1  0.5985350000000  0.4832550000000  0.5500790000000 1.0
C      1  0.4906110000000  0.5396240000000  0.4184630000000 1.0
C      1  0.4855340000000  0.5536160000000  0.5913610000000 1.0
C      1  0.5181860000000  0.5020560000000  0.5539700000000 1.0
END
