TITL C-627111-6168-1091 1.19372696121736e-06 125000 -1211.85923669193 0 0 197 (C1) n - 1
REM
REM in /home/nfs/bkarasulu/CARBON/AIRSS/Generating-Clusters/LCBOP/Only-C1/SD-CG/FIRE-CG
REM
REM
REM
REM
REM
REM ./C.cell (11c1c37f851c82e70ff6c80c92926a4b)
REM AIRSS Version 0.9.1 bugfix July 2018 build 013d7b7c2542+ Fri, 06 Jul 2018 19:26:36 +0100
REM compiler GCC version 9.2.1 20190827 (Red Hat 9.2.1-1)
REM options -cpp -mtune=generic -march=x86-64 -g -O0 -fpre-include=/usr/include/finclude/math-vector-fortran.h
REM seed 1165970864 -650414110 -2119402394 967666090 -510439878 657848572 -1673389653 -700842523 -459544861 -1190126613 1016547840 277196488 388979349 626439604 -2051196406 -138031835 -210950026 -932173168 524098573 1097196992 -414115901 -391399026 652047362 761134664 1481449439 2100395473 -1472390776 -486430917 2064189750 2033136373 -356030594 -1803642735 494944731
REM
CELL 1.54180   50.00000   50.00000   50.00000   90.00000   90.00000   90.00000
LATT -1
SFAC C  
C      1  0.3535100000000  0.4748250000000  0.3917490000000 1.0
C      1  0.4637030000000  0.5382190000000  0.6259610000000 1.0
C      1  0.4391090000000  0.5244750000000  0.5446700000000 1.0
C      1  0.4997450000000  0.4756170000000  0.4765340000000 1.0
C      1  0.6109120000000  0.4585400000000  0.5494520000000 1.0
C      1  0.4880720000000  0.5844320000000  0.6102840000000 1.0
C      1  0.4101150000000  0.5290770000000  0.4424530000000 1.0
C      1  0.4660070000000  0.4876280000000  0.3885760000000 1.0
C      1  0.5050810000000  0.4330900000000  0.5981250000000 1.0
C      1  0.6719700000000  0.5546650000000  0.4798400000000 1.0
C      1  0.5781450000000  0.4314990000000  0.4857240000000 1.0
C      1  0.5248230000000  0.5233020000000  0.3475070000000 1.0
C      1  0.4933460000000  0.4273850000000  0.4659690000000 1.0
C      1  0.5418790000000  0.4846040000000  0.6133320000000 1.0
C      1  0.5659200000000  0.4713610000000  0.4271820000000 1.0
C      1  0.5468840000000  0.6252800000000  0.4984380000000 1.0
C      1  0.3999980000000  0.4241050000000  0.5458100000000 1.0
C      1  0.4488900000000  0.4646370000000  0.4809330000000 1.0
C      1  0.4722850000000  0.5607540000000  0.6107630000000 1.0
C      1  0.3870520000000  0.5633620000000  0.4688030000000 1.0
C      1  0.6268180000000  0.5627140000000  0.5081910000000 1.0
C      1  0.5164860000000  0.4090730000000  0.5375940000000 1.0
C      1  0.5645200000000  0.4992470000000  0.4205650000000 1.0
C      1  0.5211930000000  0.4392330000000  0.4202670000000 1.0
C      1  0.5557160000000  0.5410110000000  0.4736600000000 1.0
C      1  0.4989980000000  0.4729050000000  0.5066460000000 1.0
C      1  0.5149660000000  0.5793600000000  0.6165250000000 1.0
C      1  0.5228270000000  0.5649910000000  0.5580210000000 1.0
C      1  0.6027200000000  0.4694350000000  0.5747560000000 1.0
C      1  0.5085400000000  0.4515320000000  0.4644780000000 1.0
C      1  0.5790990000000  0.5151250000000  0.6127760000000 1.0
C      1  0.5577830000000  0.3862480000000  0.5100110000000 1.0
C      1  0.5502890000000  0.4929430000000  0.5038320000000 1.0
C      1  0.5217260000000  0.5199390000000  0.4088630000000 1.0
C      1  0.5285760000000  0.4759610000000  0.5122980000000 1.0
C      1  0.5267090000000  0.5477840000000  0.3583570000000 1.0
C      1  0.5591080000000  0.6020950000000  0.5395690000000 1.0
C      1  0.6031940000000  0.5085420000000  0.6034080000000 1.0
C      1  0.5959920000000  0.4798410000000  0.4814960000000 1.0
C      1  0.5262200000000  0.3866220000000  0.4174950000000 1.0
C      1  0.5806730000000  0.4604380000000  0.5914820000000 1.0
C      1  0.5366600000000  0.4519850000000  0.4601550000000 1.0
C      1  0.5372760000000  0.5588630000000  0.4327250000000 1.0
C      1  0.5131070000000  0.3820990000000  0.4907700000000 1.0
C      1  0.5051170000000  0.5240550000000  0.4816940000000 1.0
C      1  0.4720810000000  0.5034580000000  0.5737310000000 1.0
C      1  0.4668570000000  0.6008260000000  0.5190540000000 1.0
C      1  0.3905120000000  0.4898950000000  0.5078500000000 1.0
C      1  0.5447170000000  0.5053920000000  0.4020620000000 1.0
C      1  0.4450090000000  0.4119690000000  0.5942250000000 1.0
C      1  0.4483430000000  0.5172810000000  0.6124320000000 1.0
C      1  0.4775030000000  0.4006290000000  0.5596780000000 1.0
C      1  0.5624510000000  0.6071340000000  0.5116140000000 1.0
C      1  0.4758380000000  0.4732660000000  0.6109090000000 1.0
C      1  0.4643480000000  0.3892740000000  0.4500140000000 1.0
C      1  0.5365420000000  0.4355950000000  0.5969460000000 1.0
C      1  0.5268920000000  0.5591560000000  0.3827730000000 1.0
C      1  0.5900710000000  0.4593420000000  0.4374240000000 1.0
C      1  0.5104520000000  0.6201610000000  0.4224000000000 1.0
C      1  0.4394700000000  0.5038840000000  0.5063610000000 1.0
C      1  0.5591020000000  0.5163800000000  0.5433200000000 1.0
C      1  0.6504720000000  0.5594060000000  0.4937860000000 1.0
C      1  0.4206220000000  0.4328720000000  0.4438260000000 1.0
C      1  0.6138960000000  0.4952150000000  0.5811780000000 1.0
C      1  0.4485700000000  0.4847980000000  0.4628280000000 1.0
C      1  0.6283010000000  0.5094470000000  0.5616860000000 1.0
C      1  0.5511190000000  0.5493240000000  0.6713320000000 1.0
C      1  0.5841680000000  0.5942450000000  0.4991020000000 1.0
C      1  0.5416830000000  0.5533150000000  0.6473700000000 1.0
C      1  0.4000910000000  0.5679450000000  0.3673290000000 1.0
C      1  0.5409300000000  0.3885350000000  0.4855000000000 1.0
C      1  0.4795900000000  0.5835810000000  0.4172660000000 1.0
C      1  0.4335780000000  0.5501310000000  0.4789920000000 1.0
C      1  0.4301610000000  0.3894390000000  0.4880390000000 1.0
C      1  0.4620300000000  0.5095600000000  0.3719310000000 1.0
C      1  0.5202550000000  0.4975690000000  0.3534890000000 1.0
C      1  0.3310370000000  0.4792010000000  0.3772460000000 1.0
C      1  0.4348360000000  0.5611410000000  0.5064550000000 1.0
C      1  0.4910060000000  0.3954580000000  0.5039190000000 1.0
C      1  0.4642360000000  0.5250190000000  0.5574530000000 1.0
C      1  0.3705860000000  0.5310810000000  0.3626670000000 1.0
C      1  0.3951970000000  0.4447480000000  0.4468900000000 1.0
C      1  0.3788700000000  0.4888040000000  0.3898050000000 1.0
C      1  0.5372350000000  0.4484580000000  0.5087570000000 1.0
C      1  0.5549380000000  0.4507890000000  0.4840120000000 1.0
C      1  0.5684010000000  0.3971480000000  0.5349770000000 1.0
C      1  0.4623230000000  0.4517240000000  0.4183830000000 1.0
C      1  0.5495170000000  0.4024140000000  0.4592160000000 1.0
C      1  0.4594720000000  0.5092470000000  0.4522170000000 1.0
C      1  0.4600780000000  0.5738070000000  0.4018950000000 1.0
C      1  0.4602570000000  0.6066480000000  0.5688400000000 1.0
C      1  0.4977960000000  0.4115860000000  0.5787730000000 1.0
C      1  0.5117120000000  0.4808480000000  0.3727010000000 1.0
C      1  0.5321560000000  0.4076260000000  0.4335700000000 1.0
C      1  0.3803110000000  0.4681450000000  0.4930110000000 1.0
C      1  0.3991700000000  0.5530310000000  0.5391360000000 1.0
C      1  0.4256300000000  0.5282270000000  0.5961600000000 1.0
C      1  0.4531050000000  0.5343360000000  0.4648270000000 1.0
C      1  0.5873730000000  0.5482280000000  0.5652870000000 1.0
C      1  0.4868260000000  0.4213310000000  0.4927510000000 1.0
C      1  0.6065260000000  0.5797250000000  0.4986080000000 1.0
C      1  0.3845140000000  0.5153060000000  0.3816060000000 1.0
C      1  0.5828070000000  0.6048930000000  0.5547980000000 1.0
C      1  0.4761440000000  0.6043190000000  0.5928940000000 1.0
C      1  0.4328380000000  0.4715580000000  0.5422570000000 1.0
C      1  0.6055430000000  0.5904610000000  0.5567270000000 1.0
C      1  0.4322500000000  0.5553120000000  0.5868820000000 1.0
C      1  0.3838320000000  0.4551220000000  0.4233170000000 1.0
C      1  0.4052210000000  0.5131830000000  0.5824650000000 1.0
C      1  0.3910580000000  0.5033290000000  0.5612410000000 1.0
C      1  0.5221220000000  0.4071040000000  0.5645510000000 1.0
C      1  0.5759120000000  0.5230010000000  0.4330310000000 1.0
C      1  0.4742170000000  0.6102630000000  0.5437630000000 1.0
C      1  0.5386600000000  0.5466330000000  0.5739680000000 1.0
C      1  0.3572030000000  0.4549060000000  0.4124200000000 1.0
C      1  0.4855740000000  0.4451510000000  0.5093970000000 1.0
C      1  0.5925100000000  0.4341340000000  0.5105450000000 1.0
C      1  0.5152560000000  0.5818050000000  0.4736100000000 1.0
C      1  0.4815290000000  0.4457040000000  0.6093020000000 1.0
C      1  0.5287770000000  0.5374580000000  0.4794280000000 1.0
C      1  0.5531820000000  0.4599270000000  0.6014820000000 1.0
C      1  0.5421450000000  0.4563030000000  0.4323500000000 1.0
C      1  0.6082710000000  0.5625970000000  0.5535130000000 1.0
C      1  0.5460550000000  0.4121420000000  0.5793570000000 1.0
C      1  0.3844910000000  0.4520100000000  0.4719630000000 1.0
C      1  0.6274310000000  0.5207810000000  0.5358150000000 1.0
C      1  0.5621590000000  0.5379430000000  0.5604820000000 1.0
C      1  0.5610890000000  0.5163060000000  0.5154320000000 1.0
C      1  0.4233760000000  0.4048910000000  0.5086230000000 1.0
C      1  0.4457810000000  0.5565080000000  0.3850770000000 1.0
C      1  0.4449170000000  0.4347740000000  0.4325660000000 1.0
C      1  0.5772370000000  0.4240360000000  0.5319330000000 1.0
C      1  0.4248840000000  0.6003700000000  0.5355730000000 1.0
C      1  0.4584700000000  0.4288210000000  0.6104200000000 1.0
C      1  0.5371100000000  0.5370760000000  0.6012990000000 1.0
C      1  0.6052830000000  0.4768830000000  0.4546260000000 1.0
C      1  0.4226130000000  0.4878100000000  0.4132570000000 1.0
C      1  0.3849330000000  0.4960230000000  0.5355710000000 1.0
C      1  0.5511840000000  0.5119740000000  0.6086610000000 1.0
C      1  0.4756270000000  0.5503370000000  0.5621640000000 1.0
C      1  0.4065520000000  0.5290420000000  0.3948220000000 1.0
C      1  0.4605850000000  0.5593580000000  0.5848530000000 1.0
C      1  0.6228470000000  0.5490290000000  0.5329310000000 1.0
C      1  0.5212660000000  0.4306770000000  0.5214980000000 1.0
C      1  0.5893450000000  0.4307350000000  0.4402460000000 1.0
C      1  0.5241990000000  0.4813970000000  0.6343380000000 1.0
C      1  0.4863790000000  0.5328050000000  0.5015420000000 1.0
C      1  0.4561280000000  0.4519870000000  0.5057410000000 1.0
C      1  0.5011040000000  0.5013790000000  0.4654530000000 1.0
C      1  0.3945180000000  0.5680410000000  0.5612850000000 1.0
C      1  0.4091020000000  0.5481740000000  0.4636640000000 1.0
C      1  0.4646820000000  0.4966840000000  0.6002090000000 1.0
C      1  0.4321680000000  0.5981770000000  0.5637590000000 1.0
C      1  0.5680640000000  0.4782290000000  0.4867370000000 1.0
C      1  0.3779240000000  0.5565210000000  0.3564510000000 1.0
C      1  0.4674370000000  0.5122420000000  0.5077690000000 1.0
C      1  0.4997600000000  0.5038510000000  0.4166000000000 1.0
C      1  0.5757020000000  0.4166720000000  0.4611050000000 1.0
C      1  0.3981100000000  0.4746860000000  0.4072800000000 1.0
C      1  0.4904420000000  0.3963180000000  0.5328700000000 1.0
C      1  0.4413630000000  0.5883380000000  0.5146460000000 1.0
C      1  0.5263960000000  0.5478600000000  0.4085840000000 1.0
C      1  0.5523190000000  0.4660060000000  0.5538630000000 1.0
C      1  0.6093410000000  0.4558390000000  0.5206900000000 1.0
C      1  0.6128400000000  0.4791020000000  0.5043820000000 1.0
C      1  0.5594030000000  0.5435940000000  0.4454490000000 1.0
C      1  0.4594960000000  0.5360720000000  0.3714730000000 1.0
C      1  0.4976280000000  0.5580070000000  0.5455370000000 1.0
C      1  0.6039700000000  0.5219540000000  0.4362250000000 1.0
C      1  0.4945320000000  0.4806970000000  0.3970350000000 1.0
C      1  0.4832530000000  0.4924650000000  0.5207390000000 1.0
C      1  0.5062970000000  0.5761080000000  0.4984840000000 1.0
C      1  0.4517820000000  0.3998020000000  0.5709960000000 1.0
C      1  0.5365470000000  0.5885260000000  0.5497280000000 1.0
C      1  0.4170790000000  0.5767130000000  0.5763070000000 1.0
C      1  0.6176320000000  0.4997850000000  0.4435560000000 1.0
C      1  0.4953050000000  0.5562970000000  0.5161880000000 1.0
C      1  0.5650590000000  0.3953870000000  0.5644290000000 1.0
C      1  0.5644330000000  0.4433710000000  0.5475790000000 1.0
C      1  0.4479010000000  0.4752020000000  0.4067620000000 1.0
C      1  0.5711600000000  0.5349300000000  0.4964690000000 1.0
C      1  0.4168280000000  0.5161150000000  0.4181620000000 1.0
C      1  0.4831750000000  0.4083880000000  0.4479410000000 1.0
C      1  0.4933190000000  0.4527200000000  0.4125700000000 1.0
C      1  0.5512040000000  0.4923290000000  0.5550170000000 1.0
C      1  0.4175270000000  0.5535970000000  0.3844830000000 1.0
C      1  0.4342590000000  0.4984430000000  0.5347480000000 1.0
C      1  0.4862360000000  0.5060750000000  0.4415060000000 1.0
C      1  0.4442700000000  0.3826150000000  0.4664360000000 1.0
C      1  0.6249530000000  0.5023980000000  0.5145110000000 1.0
C      1  0.5031910000000  0.5943910000000  0.4282970000000 1.0
C      1  0.5200330000000  0.5787170000000  0.4456740000000 1.0
C      1  0.5312640000000  0.5566780000000  0.6216230000000 1.0
C      1  0.4248870000000  0.5452500000000  0.5293660000000 1.0
C      1  0.4133270000000  0.5022850000000  0.4954340000000 1.0
C      1  0.4201880000000  0.4256170000000  0.5273490000000 1.0
C      1  0.4370760000000  0.4484770000000  0.5265090000000 1.0
END
