TITL C-627111-6168-271 0.168741804077202 125000 -204.783134554973 0 0 35 (C1) n - 1
REM
REM in /home/nfs/bkarasulu/CARBON/AIRSS/Generating-Clusters/LCBOP/Only-C1/SD-CG/FIRE-CG
REM
REM
REM
REM
REM
REM ./C.cell (11c1c37f851c82e70ff6c80c92926a4b)
REM AIRSS Version 0.9.1 bugfix July 2018 build 013d7b7c2542+ Fri, 06 Jul 2018 19:26:36 +0100
REM compiler GCC version 9.2.1 20190827 (Red Hat 9.2.1-1)
REM options -cpp -mtune=generic -march=x86-64 -g -O0 -fpre-include=/usr/include/finclude/math-vector-fortran.h
REM seed 186165874 -218028207 -671230748 -1390834980 -1916524820 -758400806 -604934502 -983450285 1521304238 -875001173 1557451874 -1405158157 -2010390825 -1256221093 -138750657 -1179646677 -1614608104 651698978 957348044 1026706122 -535697662 -359873082 -633499333 208841694 -2000981909 -2102123138 206571349 -1113947974 -704443761 2132703192 -1221566007 -1641423686 -28267900
REM
CELL 1.54180   50.00000   50.00000   50.00000   90.00000   90.00000   90.00000
LATT -1
SFAC C  
C      1  0.3975770000000  0.5188690000000  0.5665870000000 1.0
C      1  0.5933640000000  0.4833160000000  0.5063630000000 1.0
C      1  0.5876260000000  0.4690440000000  0.4822750000000 1.0
C      1  0.4979990000000  0.4737120000000  0.5059280000000 1.0
C      1  0.5469340000000  0.4836570000000  0.5026940000000 1.0
C      1  0.5161510000000  0.5112650000000  0.5299580000000 1.0
C      1  0.5076550000000  0.4379780000000  0.4430910000000 1.0
C      1  0.4854670000000  0.5493040000000  0.5253080000000 1.0
C      1  0.5209640000000  0.4890680000000  0.5117850000000 1.0
C      1  0.3690110000000  0.5154620000000  0.6048450000000 1.0
C      1  0.5374990000000  0.5205060000000  0.5465040000000 1.0
C      1  0.5630480000000  0.5105440000000  0.5396480000000 1.0
C      1  0.4916690000000  0.4170120000000  0.4456880000000 1.0
C      1  0.5573290000000  0.4701740000000  0.4797350000000 1.0
C      1  0.5744830000000  0.4509240000000  0.4416560000000 1.0
C      1  0.4839700000000  0.5692300000000  0.5077740000000 1.0
C      1  0.3733460000000  0.5245720000000  0.5793900000000 1.0
C      1  0.4677090000000  0.5036360000000  0.5296300000000 1.0
C      1  0.4759170000000  0.3964250000000  0.4484620000000 1.0
C      1  0.5157150000000  0.4837100000000  0.4292930000000 1.0
C      1  0.3542420000000  0.5392000000000  0.5663200000000 1.0
C      1  0.4956560000000  0.5573060000000  0.4365230000000 1.0
C      1  0.5022880000000  0.5342420000000  0.4251600000000 1.0
C      1  0.5089330000000  0.5086210000000  0.4232410000000 1.0
C      1  0.4854680000000  0.5779460000000  0.4826980000000 1.0
C      1  0.4896870000000  0.5733260000000  0.4568610000000 1.0
C      1  0.4434570000000  0.5082040000000  0.5423480000000 1.0
C      1  0.5961270000000  0.4564750000000  0.4579960000000 1.0
C      1  0.5337160000000  0.5373640000000  0.5675990000000 1.0
C      1  0.5496650000000  0.4596070000000  0.4538810000000 1.0
C      1  0.4732530000000  0.4801270000000  0.5148420000000 1.0
C      1  0.4205060000000  0.5134750000000  0.5544710000000 1.0
C      1  0.5243450000000  0.4603300000000  0.4419920000000 1.0
C      1  0.4896250000000  0.5221870000000  0.5305760000000 1.0
C      1  0.5695980000000  0.4931820000000  0.5188770000000 1.0
END
