TITL C-627106-156-593 0.133863348032938 125000 -263.1336152966 0 0 45 (C1) n - 1
REM
REM in /home/nfs/bkarasulu/CARBON/AIRSS/Generating-Clusters/LCBOP/Only-C1/SD-CG/FIRE-CG
REM
REM
REM
REM
REM
REM ./C.cell (11c1c37f851c82e70ff6c80c92926a4b)
REM AIRSS Version 0.9.1 bugfix July 2018 build 013d7b7c2542+ Fri, 06 Jul 2018 19:26:36 +0100
REM compiler GCC version 9.2.1 20190827 (Red Hat 9.2.1-1)
REM options -cpp -mtune=generic -march=x86-64 -g -O0 -fpre-include=/usr/include/finclude/math-vector-fortran.h
REM seed 1852677167 260457878 2024031955 -992110983 1835977368 -1610780733 1633138150 1049884143 1005910986 -404418525 -1788105023 -37288883 -351786587 -1697049139 -572732918 -406865598 -1976888930 -50002241 370590347 1980540881 -1915330107 -717550999 267671435 619512159 189965998 2062878097 -1094011599 -1015499130 677249934 231492146 1963985356 -210231705 -1902574902
REM
CELL 1.54180   50.00000   50.00000   50.00000   90.00000   90.00000   90.00000
LATT -1
SFAC C  
C      1  0.4649490000000  0.4743860000000  0.5166110000000 1.0
C      1  0.6216990000000  0.4461780000000  0.5051110000000 1.0
C      1  0.4886670000000  0.5020890000000  0.4842410000000 1.0
C      1  0.5405450000000  0.4734160000000  0.4513550000000 1.0
C      1  0.3968540000000  0.5533500000000  0.4692950000000 1.0
C      1  0.4630680000000  0.5387950000000  0.5062330000000 1.0
C      1  0.4438720000000  0.5061270000000  0.5504210000000 1.0
C      1  0.4225030000000  0.5516620000000  0.5913350000000 1.0
C      1  0.3775020000000  0.5569240000000  0.5319680000000 1.0
C      1  0.5106410000000  0.5322140000000  0.5156920000000 1.0
C      1  0.4226310000000  0.5476690000000  0.4721160000000 1.0
C      1  0.3501940000000  0.5638960000000  0.4626500000000 1.0
C      1  0.4754270000000  0.4776120000000  0.4908230000000 1.0
C      1  0.4713530000000  0.4568520000000  0.4717750000000 1.0
C      1  0.4660530000000  0.5736470000000  0.5398440000000 1.0
C      1  0.5420250000000  0.4459760000000  0.4568940000000 1.0
C      1  0.5826120000000  0.5138270000000  0.5092900000000 1.0
C      1  0.4399470000000  0.5338120000000  0.5494120000000 1.0
C      1  0.4565010000000  0.5492050000000  0.5320190000000 1.0
C      1  0.5667010000000  0.4338530000000  0.4613610000000 1.0
C      1  0.4476950000000  0.4550660000000  0.4581600000000 1.0
C      1  0.5917010000000  0.4308560000000  0.4696850000000 1.0
C      1  0.6149610000000  0.4728720000000  0.5099820000000 1.0
C      1  0.5498510000000  0.5147900000000  0.4737720000000 1.0
C      1  0.4872540000000  0.5244000000000  0.5022840000000 1.0
C      1  0.4190320000000  0.5460260000000  0.5642220000000 1.0
C      1  0.6605360000000  0.4220190000000  0.4491540000000 1.0
C      1  0.5175230000000  0.4332720000000  0.4615980000000 1.0
C      1  0.3684390000000  0.5593490000000  0.5071370000000 1.0
C      1  0.4531510000000  0.4844200000000  0.5381990000000 1.0
C      1  0.5316760000000  0.4983950000000  0.4602090000000 1.0
C      1  0.5038670000000  0.5047280000000  0.4601590000000 1.0
C      1  0.6176410000000  0.4349410000000  0.4792880000000 1.0
C      1  0.5578220000000  0.5221330000000  0.4996880000000 1.0
C      1  0.3950610000000  0.5523820000000  0.5513200000000 1.0
C      1  0.4263320000000  0.5569000000000  0.6165750000000 1.0
C      1  0.3712780000000  0.5589930000000  0.4792600000000 1.0
C      1  0.4452580000000  0.5427960000000  0.4850620000000 1.0
C      1  0.4917820000000  0.5135030000000  0.4372030000000 1.0
C      1  0.6396770000000  0.4282430000000  0.4634830000000 1.0
C      1  0.6321990000000  0.4303730000000  0.5256080000000 1.0
C      1  0.6020210000000  0.4959300000000  0.5121430000000 1.0
C      1  0.4920080000000  0.4385250000000  0.4670830000000 1.0
C      1  0.6421550000000  0.4152830000000  0.5443790000000 1.0
C      1  0.5373360000000  0.5323160000000  0.5159010000000 1.0
END
