TITL C-627113-6568-67 -2.92154651307474e-08 125000 -179.427758860014 0 0 31 (C1) n - 1
REM
REM in /home/nfs/bkarasulu/CARBON/AIRSS/Generating-Clusters/LCBOP/Only-C1/SD-CG/FIRE-CG
REM
REM
REM
REM
REM
REM ./C.cell (11c1c37f851c82e70ff6c80c92926a4b)
REM AIRSS Version 0.9.1 bugfix July 2018 build 013d7b7c2542+ Fri, 06 Jul 2018 19:26:36 +0100
REM compiler GCC version 9.2.1 20190827 (Red Hat 9.2.1-1)
REM options -cpp -mtune=generic -march=x86-64 -g -O0 -fpre-include=/usr/include/finclude/math-vector-fortran.h
REM seed -1336981932 -1490188934 -1901409726 -291969782 -537160547 840197106 -1906655676 -917925380 431826512 632972316 -1979492034 -2114705967 -284161999 -1941510053 -871224410 1787846991 382368266 1158458977 -9114391 266926275 378205505 900294935 -472460475 -1719765747 1755223544 -1690500018 -154891575 179826799 1637357717 390015428 -2071012170 -1733106860 -1450066093
REM
CELL 1.54180   50.00000   50.00000   50.00000   90.00000   90.00000   90.00000
LATT -1
SFAC C  
C      1  0.5943430000000  0.5280920000000  0.4619220000000 1.0
C      1  0.5409640000000  0.5269020000000  0.5555580000000 1.0
C      1  0.4406390000000  0.4810260000000  0.4340560000000 1.0
C      1  0.5331690000000  0.5751140000000  0.4843050000000 1.0
C      1  0.4834050000000  0.4842690000000  0.5732670000000 1.0
C      1  0.5432200000000  0.4840850000000  0.4901820000000 1.0
C      1  0.4829800000000  0.5151180000000  0.4834150000000 1.0
C      1  0.5366110000000  0.5313570000000  0.5062430000000 1.0
C      1  0.5530320000000  0.4577480000000  0.4977730000000 1.0
C      1  0.5143450000000  0.4792860000000  0.4904230000000 1.0
C      1  0.4719110000000  0.5359940000000  0.5002700000000 1.0
C      1  0.4539550000000  0.4667140000000  0.5097060000000 1.0
C      1  0.5061130000000  0.4528120000000  0.4998220000000 1.0
C      1  0.5528420000000  0.5317850000000  0.5782330000000 1.0
C      1  0.4251620000000  0.4631190000000  0.4464830000000 1.0
C      1  0.5047570000000  0.5054370000000  0.5287140000000 1.0
C      1  0.4927930000000  0.5552040000000  0.5036290000000 1.0
C      1  0.5319830000000  0.4400710000000  0.5032170000000 1.0
C      1  0.5280230000000  0.5214600000000  0.5316750000000 1.0
C      1  0.4792200000000  0.4527740000000  0.5089490000000 1.0
C      1  0.4495230000000  0.4940000000000  0.5181100000000 1.0
C      1  0.4756400000000  0.5101740000000  0.4571750000000 1.0
C      1  0.4220350000000  0.4529450000000  0.4710120000000 1.0
C      1  0.4526630000000  0.5212580000000  0.5160250000000 1.0
C      1  0.5738150000000  0.5198870000000  0.4757210000000 1.0
C      1  0.4328690000000  0.4546280000000  0.4953710000000 1.0
C      1  0.4989210000000  0.4996620000000  0.5008710000000 1.0
C      1  0.4601710000000  0.4985450000000  0.4389010000000 1.0
C      1  0.5515350000000  0.5117740000000  0.4904400000000 1.0
C      1  0.5212030000000  0.5544230000000  0.4976610000000 1.0
C      1  0.4921560000000  0.4943370000000  0.5508730000000 1.0
END
