TITL C-627113-6568-2057 54169.8656794504 125000 -1196.01623506444 0 0 197 (C1) n - 1
REM
REM in /home/nfs/bkarasulu/CARBON/AIRSS/Generating-Clusters/LCBOP/Only-C1/SD-CG/FIRE-CG
REM
REM
REM
REM
REM
REM ./C.cell (11c1c37f851c82e70ff6c80c92926a4b)
REM AIRSS Version 0.9.1 bugfix July 2018 build 013d7b7c2542+ Fri, 06 Jul 2018 19:26:36 +0100
REM compiler GCC version 9.2.1 20190827 (Red Hat 9.2.1-1)
REM options -cpp -mtune=generic -march=x86-64 -g -O0 -fpre-include=/usr/include/finclude/math-vector-fortran.h
REM seed -497451435 1492041101 1336141774 1436455689 -647644866 -1115023356 1496063027 -654724648 -365607150 -1854141250 -1426547908 1125519146 -1434915568 -746623073 -1782151287 326405986 929471211 1820458156 -392568158 1014080332 2113833264 -672253798 -1939701078 -552086521 344651573 -1000075381 -684319963 -1765077063 -313607667 1197355473 -1935113026 -1357092934 108675038
REM
CELL 1.54180   50.00000   50.00000   50.00000   90.00000   90.00000   90.00000
LATT -1
SFAC C  
C      1  0.4597370000000  0.5649780000000  0.4581060000000 1.0
C      1  0.5297850000000  0.4381720000000  0.4435960000000 1.0
C      1  0.4603000000000  0.4730830000000  0.3906390000000 1.0
C      1  0.3861210000000  0.5547260000000  0.4987200000000 1.0
C      1  0.5494580000000  0.3997120000000  0.5575840000000 1.0
C      1  0.5701150000000  0.4781200000000  0.4072410000000 1.0
C      1  0.4671830000000  0.3854050000000  0.4971980000000 1.0
C      1  0.5495180000000  0.5661880000000  0.5930070000000 1.0
C      1  0.5324540000000  0.5913940000000  0.4634640000000 1.0
C      1  0.3912250000000  0.5097350000000  0.5224720000000 1.0
C      1  0.4811180000000  0.5245020000000  0.4316670000000 1.0
C      1  0.3999490000000  0.4443990000000  0.5391160000000 1.0
C      1  0.5224980000000  0.5337270000000  0.3807910000000 1.0
C      1  0.6193480000000  0.4349210000000  0.4956860000000 1.0
C      1  0.4743050000000  0.4124590000000  0.6377340000000 1.0
C      1  0.5991290000000  0.4728790000000  0.5554920000000 1.0
C      1  0.3958380000000  0.5776740000000  0.5157280000000 1.0
C      1  0.4829790000000  0.4521090000000  0.6101510000000 1.0
C      1  0.5978580000000  0.5931700000000  0.4768720000000 1.0
C      1  0.3805120000000  0.5949110000000  0.4766330000000 1.0
C      1  0.5372520000000  0.3853580000000  0.4260010000000 1.0
C      1  0.6277130000000  0.4485020000000  0.4726100000000 1.0
C      1  0.4592310000000  0.3993670000000  0.6544820000000 1.0
C      1  0.3887090000000  0.6513230000000  0.5258790000000 1.0
C      1  0.6112890000000  0.5247200000000  0.5557460000000 1.0
C      1  0.5636330000000  0.5723560000000  0.5698270000000 1.0
C      1  0.5368280000000  0.5764280000000  0.3973140000000 1.0
C      1  0.4232500000000  0.4559330000000  0.4188880000000 1.0
C      1  0.5371510000000  0.5198510000000  0.4011300000000 1.0
C      1  0.3874010000000  0.4915410000000  0.4768840000000 1.0
C      1  0.4019450000000  0.5389300000000  0.5577900000000 1.0
C      1  0.4831630000000  0.4703630000000  0.5244350000000 1.0
C      1  0.4494650000000  0.4031370000000  0.5378420000000 1.0
C      1  0.4987170000000  0.6202270000000  0.4909880000000 1.0
C      1  0.4897980000000  0.4258070000000  0.6188020000000 1.0
C      1  0.5253490000000  0.6096200000000  0.4855570000000 1.0
C      1  0.4799120000000  0.5850770000000  0.5918630000000 1.0
C      1  0.5008240000000  0.4519030000000  0.5665220000000 1.0
C      1  0.4083410000000  0.4521370000000  0.4445210000000 1.0
C      1  0.5444100000000  0.5093580000000  0.5423280000000 1.0
C      1  0.5512820000000  0.4806620000000  0.4614890000000 1.0
C      1  0.4110220000000  0.5601960000000  0.4595210000000 1.0
C      1  0.4377090000000  0.5649710000000  0.5758960000000 1.0
C      1  0.4511990000000  0.5435580000000  0.3675710000000 1.0
C      1  0.5067470000000  0.4936940000000  0.4728080000000 1.0
C      1  0.4805840000000  0.4935590000000  0.5778100000000 1.0
C      1  0.5889480000000  0.3854680000000  0.5821410000000 1.0
C      1  0.4585570000000  0.5846690000000  0.5736680000000 1.0
C      1  0.4212030000000  0.5695130000000  0.5270240000000 1.0
C      1  0.5311340000000  0.4934710000000  0.5659520000000 1.0
C      1  0.5793180000000  0.5806050000000  0.4285400000000 1.0
C      1  0.5556790000000  0.4545030000000  0.4484070000000 1.0
C      1  0.5874940000000  0.3828860000000  0.5337030000000 1.0
C      1  0.6045330000000  0.5138880000000  0.4994000000000 1.0
C      1  0.4048710000000  0.5008440000000  0.5950000000000 1.0
C      1  0.4355510000000  0.5563540000000  0.4731740000000 1.0
C      1  0.6117220000000  0.4980390000000  0.5544300000000 1.0
C      1  0.5878310000000  0.4655760000000  0.5802150000000 1.0
C      1  0.5754980000000  0.4573440000000  0.4268450000000 1.0
C      1  0.6198800000000  0.4403190000000  0.4470580000000 1.0
C      1  0.4845880000000  0.4508470000000  0.4589840000000 1.0
C      1  0.4404070000000  0.4352190000000  0.4070000000000 1.0
C      1  0.5603180000000  0.6054490000000  0.5251570000000 1.0
C      1  0.4994790000000  0.4283820000000  0.5244940000000 1.0
C      1  0.4569200000000  0.5279800000000  0.4144120000000 1.0
C      1  0.5911920000000  0.5550760000000  0.4249260000000 1.0
C      1  0.5528290000000  0.5869170000000  0.4187710000000 1.0
C      1  0.4084970000000  0.4292020000000  0.5163800000000 1.0
C      1  0.4879390000000  0.4479680000000  0.5087130000000 1.0
C      1  0.4825310000000  0.5490890000000  0.5359130000000 1.0
C      1  0.4032840000000  0.5303130000000  0.5026240000000 1.0
C      1  0.5258910000000  0.3844060000000  0.5644370000000 1.0
C      1  0.4767440000000  0.5867580000000  0.4142700000000 1.0
C      1  0.4200710000000  0.5606800000000  0.5539450000000 1.0
C      1  0.5254880000000  0.4643110000000  0.5589590000000 1.0
C      1  0.5656110000000  0.5029930000000  0.4735660000000 1.0
C      1  0.4610380000000  0.6034240000000  0.5523150000000 1.0
C      1  0.5898330000000  0.5942930000000  0.4512660000000 1.0
C      1  0.4763420000000  0.5150870000000  0.5070960000000 1.0
C      1  0.4732370000000  0.4480230000000  0.4850090000000 1.0
C      1  0.4751880000000  0.6223140000000  0.4469280000000 1.0
C      1  0.4665230000000  0.3979950000000  0.4289090000000 1.0
C      1  0.4048580000000  0.5101470000000  0.5488970000000 1.0
C      1  0.4659520000000  0.4451440000000  0.3959780000000 1.0
C      1  0.5757300000000  0.3890830000000  0.5585600000000 1.0
C      1  0.5608620000000  0.4663660000000  0.5240400000000 1.0
C      1  0.5208950000000  0.4481780000000  0.4141550000000 1.0
C      1  0.3869410000000  0.6276860000000  0.5150460000000 1.0
C      1  0.5248340000000  0.4137680000000  0.5175350000000 1.0
C      1  0.6001390000000  0.4444860000000  0.4295860000000 1.0
C      1  0.5448140000000  0.5417330000000  0.4510600000000 1.0
C      1  0.4641300000000  0.5453840000000  0.3922390000000 1.0
C      1  0.3968490000000  0.4893810000000  0.5695630000000 1.0
C      1  0.4317020000000  0.4123940000000  0.5165570000000 1.0
C      1  0.4705610000000  0.6263910000000  0.5385500000000 1.0
C      1  0.4832410000000  0.4963170000000  0.5259230000000 1.0
C      1  0.4626260000000  0.3805430000000  0.5257650000000 1.0
C      1  0.4521880000000  0.4893940000000  0.4459290000000 1.0
C      1  0.5039760000000  0.5534320000000  0.4724320000000 1.0
C      1  0.4350290000000  0.4807590000000  0.4051370000000 1.0
C      1  0.4890780000000  0.4300840000000  0.5515760000000 1.0
C      1  0.5496290000000  0.4935370000000  0.5899720000000 1.0
C      1  0.5242550000000  0.3819270000000  0.4495210000000 1.0
C      1  0.5022320000000  0.5333010000000  0.5506770000000 1.0
C      1  0.5677710000000  0.4009200000000  0.4914240000000 1.0
C      1  0.6117330000000  0.5399450000000  0.5028810000000 1.0
C      1  0.3770770000000  0.4909010000000  0.5044860000000 1.0
C      1  0.5449740000000  0.4500890000000  0.5441730000000 1.0
C      1  0.5563140000000  0.5172930000000  0.6029580000000 1.0
C      1  0.4876830000000  0.4161270000000  0.4270550000000 1.0
C      1  0.4337700000000  0.5474860000000  0.5061650000000 1.0
C      1  0.4770730000000  0.4754400000000  0.4409410000000 1.0
C      1  0.5354790000000  0.5778840000000  0.6368300000000 1.0
C      1  0.4629880000000  0.4187480000000  0.5572680000000 1.0
C      1  0.5140860000000  0.5603090000000  0.3893820000000 1.0
C      1  0.3874150000000  0.6025690000000  0.5037200000000 1.0
C      1  0.5896630000000  0.4592620000000  0.5318570000000 1.0
C      1  0.4885430000000  0.4966660000000  0.4230320000000 1.0
C      1  0.5133910000000  0.4135320000000  0.6078820000000 1.0
C      1  0.4826010000000  0.4903390000000  0.3953670000000 1.0
C      1  0.5137850000000  0.3922770000000  0.5888980000000 1.0
C      1  0.5770890000000  0.5055940000000  0.5000860000000 1.0
C      1  0.5425530000000  0.4024820000000  0.4057690000000 1.0
C      1  0.5051370000000  0.5889490000000  0.5992070000000 1.0
C      1  0.4919610000000  0.5701670000000  0.4925750000000 1.0
C      1  0.4429690000000  0.4017350000000  0.4905650000000 1.0
C      1  0.4194820000000  0.5226970000000  0.6029560000000 1.0
C      1  0.5423690000000  0.4643750000000  0.4997830000000 1.0
C      1  0.5305180000000  0.5822340000000  0.6083490000000 1.0
C      1  0.5680730000000  0.5269630000000  0.4581030000000 1.0
C      1  0.5444990000000  0.4140530000000  0.4947630000000 1.0
C      1  0.5289490000000  0.5331440000000  0.5386220000000 1.0
C      1  0.5137810000000  0.3727800000000  0.5408450000000 1.0
C      1  0.5127010000000  0.3855070000000  0.5148920000000 1.0
C      1  0.4464070000000  0.4530050000000  0.4898240000000 1.0
C      1  0.5363570000000  0.6018240000000  0.4369070000000 1.0
C      1  0.6241940000000  0.4965830000000  0.4894600000000 1.0
C      1  0.4862300000000  0.4665620000000  0.5862460000000 1.0
C      1  0.5843790000000  0.3872400000000  0.5074550000000 1.0
C      1  0.5975730000000  0.5877590000000  0.5032060000000 1.0
C      1  0.5834110000000  0.5703950000000  0.5496490000000 1.0
C      1  0.4394010000000  0.5402800000000  0.3445700000000 1.0
C      1  0.5428980000000  0.4218150000000  0.5409150000000 1.0
C      1  0.4608350000000  0.6508730000000  0.5463960000000 1.0
C      1  0.4116670000000  0.4297270000000  0.4639450000000 1.0
C      1  0.4495020000000  0.4235440000000  0.5806170000000 1.0
C      1  0.5643500000000  0.4694270000000  0.5951890000000 1.0
C      1  0.5025550000000  0.4252340000000  0.4525070000000 1.0
C      1  0.5178150000000  0.5239340000000  0.3557990000000 1.0
C      1  0.5453670000000  0.4926120000000  0.4040520000000 1.0
C      1  0.5157680000000  0.6161560000000  0.4241240000000 1.0
C      1  0.4548210000000  0.5024750000000  0.4698900000000 1.0
C      1  0.4330830000000  0.5457030000000  0.5970040000000 1.0
C      1  0.5901560000000  0.5337690000000  0.4416990000000 1.0
C      1  0.5377000000000  0.4281280000000  0.3979030000000 1.0
C      1  0.4554750000000  0.5778330000000  0.4314570000000 1.0
C      1  0.4834360000000  0.5442930000000  0.4529840000000 1.0
C      1  0.4325280000000  0.4738730000000  0.4988250000000 1.0
C      1  0.5277620000000  0.5932540000000  0.6577320000000 1.0
C      1  0.4329770000000  0.4985360000000  0.4859060000000 1.0
C      1  0.4087040000000  0.5111990000000  0.4803450000000 1.0
C      1  0.4618090000000  0.5372600000000  0.5177760000000 1.0
C      1  0.6050940000000  0.4411480000000  0.5173610000000 1.0
C      1  0.4937720000000  0.5701700000000  0.5203250000000 1.0
C      1  0.5298220000000  0.5619250000000  0.4644750000000 1.0
C      1  0.4893470000000  0.6258960000000  0.5172540000000 1.0
C      1  0.3982340000000  0.4326350000000  0.4896920000000 1.0
C      1  0.5821410000000  0.5877970000000  0.5269370000000 1.0
C      1  0.6342950000000  0.4754410000000  0.4769120000000 1.0
C      1  0.5265150000000  0.4776810000000  0.4199420000000 1.0
C      1  0.4407840000000  0.5033810000000  0.4221930000000 1.0
C      1  0.4810920000000  0.5063070000000  0.4805730000000 1.0
C      1  0.3955060000000  0.4629540000000  0.5585080000000 1.0
C      1  0.4553780000000  0.4998790000000  0.5668770000000 1.0
C      1  0.4353420000000  0.5054050000000  0.5498610000000 1.0
C      1  0.4951940000000  0.3868450000000  0.4907880000000 1.0
C      1  0.5205980000000  0.4789980000000  0.4935380000000 1.0
C      1  0.4909700000000  0.4371950000000  0.4074630000000 1.0
C      1  0.6021460000000  0.5496180000000  0.5526470000000 1.0
C      1  0.4317170000000  0.4087200000000  0.4649450000000 1.0
C      1  0.4857990000000  0.5655510000000  0.3964670000000 1.0
C      1  0.4783890000000  0.6118800000000  0.4728530000000 1.0
C      1  0.5363120000000  0.5341320000000  0.4255020000000 1.0
C      1  0.3914310000000  0.4731190000000  0.4555280000000 1.0
C      1  0.5627740000000  0.4971500000000  0.5240910000000 1.0
C      1  0.4721880000000  0.5848080000000  0.4775450000000 1.0
C      1  0.4434980000000  0.3969020000000  0.4424890000000 1.0
C      1  0.5534550000000  0.4483020000000  0.6098880000000 1.0
C      1  0.5067670000000  0.3977260000000  0.4663130000000 1.0
C      1  0.5562450000000  0.5437790000000  0.6107170000000 1.0
C      1  0.5244410000000  0.4880200000000  0.4492070000000 1.0
C      1  0.5374530000000  0.4272810000000  0.6130430000000 1.0
C      1  0.5438570000000  0.6139490000000  0.5061290000000 1.0
C      1  0.5508280000000  0.5534900000000  0.6372960000000 1.0
C      1  0.5032500000000  0.5093510000000  0.5689190000000 1.0
C      1  0.3865530000000  0.5670220000000  0.4718220000000 1.0
C      1  0.4881770000000  0.6113110000000  0.4239560000000 1.0
END
