TITL C-627107-135-192 -7.21952772917492e-07 125000 -565.616289154976 0 0 92 (C1) n - 1
REM
REM in /home/nfs/bkarasulu/CARBON/AIRSS/Generating-Clusters/LCBOP/Only-C1/SD-CG/FIRE-CG
REM
REM
REM
REM
REM
REM ./C.cell (11c1c37f851c82e70ff6c80c92926a4b)
REM AIRSS Version 0.9.1 bugfix July 2018 build 013d7b7c2542+ Fri, 06 Jul 2018 19:26:36 +0100
REM compiler GCC version 9.2.1 20190827 (Red Hat 9.2.1-1)
REM options -cpp -mtune=generic -march=x86-64 -g -O0 -fpre-include=/usr/include/finclude/math-vector-fortran.h
REM seed -1862633617 2118852013 -406567543 2086894533 1211611067 -135096057 338028162 -1608319794 -787463957 -1541383093 -266173685 -574485630 -44801204 -974060468 2009994412 421054580 -1512852372 501298416 -2078593848 -2011037675 -1016805314 -47449045 747379334 -1495327780 -2115576594 1299594695 286396254 647876682 546756401 -1865972220 -94608653 1977156791 1450123557
REM
CELL 1.54180   50.00000   50.00000   50.00000   90.00000   90.00000   90.00000
LATT -1
SFAC C  
C      1  0.4558950000000  0.5800220000000  0.4696900000000 1.0
C      1  0.4027340000000  0.5073190000000  0.4985390000000 1.0
C      1  0.5539830000000  0.5315000000000  0.4977010000000 1.0
C      1  0.5167160000000  0.4367000000000  0.5218420000000 1.0
C      1  0.5280390000000  0.4974630000000  0.4202780000000 1.0
C      1  0.4637820000000  0.4330090000000  0.5313780000000 1.0
C      1  0.4317140000000  0.5365860000000  0.4687760000000 1.0
C      1  0.5748870000000  0.5379370000000  0.4771780000000 1.0
C      1  0.4597910000000  0.5541220000000  0.4305480000000 1.0
C      1  0.4320640000000  0.4362690000000  0.4914950000000 1.0
C      1  0.5454900000000  0.5048260000000  0.4419370000000 1.0
C      1  0.4625750000000  0.5696590000000  0.5279460000000 1.0
C      1  0.5637000000000  0.5056990000000  0.5678390000000 1.0
C      1  0.4994560000000  0.4909280000000  0.4808940000000 1.0
C      1  0.4158320000000  0.4570230000000  0.4778790000000 1.0
C      1  0.5469640000000  0.5153030000000  0.5886520000000 1.0
C      1  0.4062720000000  0.5324270000000  0.4829270000000 1.0
C      1  0.5510430000000  0.4496520000000  0.4568230000000 1.0
C      1  0.5587430000000  0.5505110000000  0.4555100000000 1.0
C      1  0.5692880000000  0.4934820000000  0.4563150000000 1.0
C      1  0.5634410000000  0.4765200000000  0.5644710000000 1.0
C      1  0.4776710000000  0.5933440000000  0.4781100000000 1.0
C      1  0.5736380000000  0.4605230000000  0.4960670000000 1.0
C      1  0.5283690000000  0.5841040000000  0.4333670000000 1.0
C      1  0.5139280000000  0.4838450000000  0.5349510000000 1.0
C      1  0.5093750000000  0.5674940000000  0.5393130000000 1.0
C      1  0.5376020000000  0.5299440000000  0.4540460000000 1.0
C      1  0.5788870000000  0.4632960000000  0.5441460000000 1.0
C      1  0.5024270000000  0.5979770000000  0.4873860000000 1.0
C      1  0.3981740000000  0.5560750000000  0.4967410000000 1.0
C      1  0.5451880000000  0.4186670000000  0.5539840000000 1.0
C      1  0.4811500000000  0.4955180000000  0.6021910000000 1.0
C      1  0.4365460000000  0.5749720000000  0.5248850000000 1.0
C      1  0.5298290000000  0.5057990000000  0.5292670000000 1.0
C      1  0.4874320000000  0.5328050000000  0.5085290000000 1.0
C      1  0.4453700000000  0.5580890000000  0.4547590000000 1.0
C      1  0.5010330000000  0.4083970000000  0.4106990000000 1.0
C      1  0.4500170000000  0.5208570000000  0.4830900000000 1.0
C      1  0.4878140000000  0.5567570000000  0.5244420000000 1.0
C      1  0.5315730000000  0.5796600000000  0.5261050000000 1.0
C      1  0.5047490000000  0.5183330000000  0.4898760000000 1.0
C      1  0.4999630000000  0.5050310000000  0.5823530000000 1.0
C      1  0.4969740000000  0.4064300000000  0.4703550000000 1.0
C      1  0.5713770000000  0.5537280000000  0.5489010000000 1.0
C      1  0.5513740000000  0.5748350000000  0.4439070000000 1.0
C      1  0.5010560000000  0.4843690000000  0.5607480000000 1.0
C      1  0.4374530000000  0.4427320000000  0.5199820000000 1.0
C      1  0.5303970000000  0.4349970000000  0.5723120000000 1.0
C      1  0.4894130000000  0.4604820000000  0.5741110000000 1.0
C      1  0.5157840000000  0.4637210000000  0.5140770000000 1.0
C      1  0.4673660000000  0.4779480000000  0.5125830000000 1.0
C      1  0.4709200000000  0.4067010000000  0.4773450000000 1.0
C      1  0.5292890000000  0.5286840000000  0.4817170000000 1.0
C      1  0.4397210000000  0.4636170000000  0.4307850000000 1.0
C      1  0.4552110000000  0.4996870000000  0.5259260000000 1.0
C      1  0.5240540000000  0.5938410000000  0.5028940000000 1.0
C      1  0.5137660000000  0.5507400000000  0.5875280000000 1.0
C      1  0.5247230000000  0.4479620000000  0.4666250000000 1.0
C      1  0.4854590000000  0.5572350000000  0.4189290000000 1.0
C      1  0.4293490000000  0.4934380000000  0.5356800000000 1.0
C      1  0.5130830000000  0.4739550000000  0.4181800000000 1.0
C      1  0.4930030000000  0.4296110000000  0.5384290000000 1.0
C      1  0.4213090000000  0.4619090000000  0.4504560000000 1.0
C      1  0.5092780000000  0.4268330000000  0.4553640000000 1.0
C      1  0.4645420000000  0.4618840000000  0.4204080000000 1.0
C      1  0.4079280000000  0.4774230000000  0.4969720000000 1.0
C      1  0.4087550000000  0.5117280000000  0.5271980000000 1.0
C      1  0.5868850000000  0.5137330000000  0.4672470000000 1.0
C      1  0.5570900000000  0.5737430000000  0.5371320000000 1.0
C      1  0.6062490000000  0.4626510000000  0.5463200000000 1.0
C      1  0.4688830000000  0.4542820000000  0.4708860000000 1.0
C      1  0.4124380000000  0.5714720000000  0.5137180000000 1.0
C      1  0.5687740000000  0.4676670000000  0.4688970000000 1.0
C      1  0.5448540000000  0.4298910000000  0.5276480000000 1.0
C      1  0.5173470000000  0.5186100000000  0.4048070000000 1.0
C      1  0.5087190000000  0.5671990000000  0.5672290000000 1.0
C      1  0.5200960000000  0.5235860000000  0.5887730000000 1.0
C      1  0.4747570000000  0.4773810000000  0.4853830000000 1.0
C      1  0.4556170000000  0.4300730000000  0.4773850000000 1.0
C      1  0.5032390000000  0.5781490000000  0.4259670000000 1.0
C      1  0.5531400000000  0.5195470000000  0.5231010000000 1.0
C      1  0.4753530000000  0.4689930000000  0.5974150000000 1.0
C      1  0.4615350000000  0.5213240000000  0.5085360000000 1.0
C      1  0.5016190000000  0.4366010000000  0.5658560000000 1.0
C      1  0.5006370000000  0.4293490000000  0.4281870000000 1.0
C      1  0.5452280000000  0.4590670000000  0.5788050000000 1.0
C      1  0.5661150000000  0.4500040000000  0.5216400000000 1.0
C      1  0.5681340000000  0.5254950000000  0.5465130000000 1.0
C      1  0.4974690000000  0.5364330000000  0.4043580000000 1.0
C      1  0.4921500000000  0.4554100000000  0.4204050000000 1.0
C      1  0.4212220000000  0.4675690000000  0.5236460000000 1.0
C      1  0.5177260000000  0.4688400000000  0.4858100000000 1.0
END
