TITL C-627113-6568-1607 0.649966250589357 125000 -212.990883030486 0 0 37 (C1) n - 1
REM
REM in /home/nfs/bkarasulu/CARBON/AIRSS/Generating-Clusters/LCBOP/Only-C1/SD-CG/FIRE-CG
REM
REM
REM
REM
REM
REM ./C.cell (11c1c37f851c82e70ff6c80c92926a4b)
REM AIRSS Version 0.9.1 bugfix July 2018 build 013d7b7c2542+ Fri, 06 Jul 2018 19:26:36 +0100
REM compiler GCC version 9.2.1 20190827 (Red Hat 9.2.1-1)
REM options -cpp -mtune=generic -march=x86-64 -g -O0 -fpre-include=/usr/include/finclude/math-vector-fortran.h
REM seed -862040481 837116133 1084963760 790593496 960865178 2095977510 609451383 1046580371 -294629132 1555122531 1004043136 747565574 100701080 1869124197 -982773456 -1913139162 -789961558 -443389600 739507662 -456583670 203853815 -472227451 -2027170842 234097334 -1748555455 260204448 -1293664091 1311787371 923179681 -1721232187 1162316066 490997373 -1124003382
REM
CELL 1.54180   50.00000   50.00000   50.00000   90.00000   90.00000   90.00000
LATT -1
SFAC C  
C      1  0.5090150000000  0.4872970000000  0.5078030000000 1.0
C      1  0.5092130000000  0.5002280000000  0.3369980000000 1.0
C      1  0.3990180000000  0.5517290000000  0.5779140000000 1.0
C      1  0.5296790000000  0.5030140000000  0.5199120000000 1.0
C      1  0.3903960000000  0.5247380000000  0.5784570000000 1.0
C      1  0.5142430000000  0.4678780000000  0.4852830000000 1.0
C      1  0.4110650000000  0.5053200000000  0.5750750000000 1.0
C      1  0.5614110000000  0.5075900000000  0.3866390000000 1.0
C      1  0.5838820000000  0.5123210000000  0.3999560000000 1.0
C      1  0.5142630000000  0.4822160000000  0.4591410000000 1.0
C      1  0.5642320000000  0.4427660000000  0.4905330000000 1.0
C      1  0.5893730000000  0.4344210000000  0.4914160000000 1.0
C      1  0.5767770000000  0.5103460000000  0.4942490000000 1.0
C      1  0.4920380000000  0.4468140000000  0.4847860000000 1.0
C      1  0.4642420000000  0.4983470000000  0.5371850000000 1.0
C      1  0.4229280000000  0.5641850000000  0.5770020000000 1.0
C      1  0.3388980000000  0.5106690000000  0.5855130000000 1.0
C      1  0.5549740000000  0.5062990000000  0.5087590000000 1.0
C      1  0.5213280000000  0.5006240000000  0.3600700000000 1.0
C      1  0.5148500000000  0.4895390000000  0.4336790000000 1.0
C      1  0.5227690000000  0.5163180000000  0.5437340000000 1.0
C      1  0.4481830000000  0.5544860000000  0.5766700000000 1.0
C      1  0.4736320000000  0.5158640000000  0.5582500000000 1.0
C      1  0.4147660000000  0.4909480000000  0.5510610000000 1.0
C      1  0.5342760000000  0.5010410000000  0.3847610000000 1.0
C      1  0.5011500000000  0.5213940000000  0.5586140000000 1.0
C      1  0.5933680000000  0.5133750000000  0.4737820000000 1.0
C      1  0.4556630000000  0.5271660000000  0.5770260000000 1.0
C      1  0.6013390000000  0.5151200000000  0.4485320000000 1.0
C      1  0.5401790000000  0.4537660000000  0.4893050000000 1.0
C      1  0.4357600000000  0.5102760000000  0.5885040000000 1.0
C      1  0.5981940000000  0.5149000000000  0.4221720000000 1.0
C      1  0.6143540000000  0.4270040000000  0.4921480000000 1.0
C      1  0.4374910000000  0.4895910000000  0.5366570000000 1.0
C      1  0.4827990000000  0.4898640000000  0.5179140000000 1.0
C      1  0.3637890000000  0.5176320000000  0.5821780000000 1.0
C      1  0.5204620000000  0.4949170000000  0.4083230000000 1.0
END
