TITL C-627109-622-1014 0.241963982545976 125000 -561.735769688625 0 0 94 (C1) n - 1
REM
REM in /home/nfs/bkarasulu/CARBON/AIRSS/Generating-Clusters/LCBOP/Only-C1/SD-CG/FIRE-CG
REM
REM
REM
REM
REM
REM ./C.cell (11c1c37f851c82e70ff6c80c92926a4b)
REM AIRSS Version 0.9.1 bugfix July 2018 build 013d7b7c2542+ Fri, 06 Jul 2018 19:26:36 +0100
REM compiler GCC version 9.2.1 20190827 (Red Hat 9.2.1-1)
REM options -cpp -mtune=generic -march=x86-64 -g -O0 -fpre-include=/usr/include/finclude/math-vector-fortran.h
REM seed -322104783 -1892920409 -1073016843 -1575156455 -1433871345 -1659998995 912224289 908135719 288298553 -514404832 -2027548836 1856840793 1706920886 -1537024170 805532815 270499807 445016361 1642273927 747492962 -1533517643 1141668876 -1096206043 890247468 -1498989767 -324746230 -785421591 -1661644485 1384791306 644627406 178983621 -1096414275 -985192868 -1343340162
REM
CELL 1.54180   50.00000   50.00000   50.00000   90.00000   90.00000   90.00000
LATT -1
SFAC C  
C      1  0.5420160000000  0.4720700000000  0.3948080000000 1.0
C      1  0.5333990000000  0.5751240000000  0.4443030000000 1.0
C      1  0.4436550000000  0.3907840000000  0.4766950000000 1.0
C      1  0.5315240000000  0.5682290000000  0.4704840000000 1.0
C      1  0.3453870000000  0.5399190000000  0.5714320000000 1.0
C      1  0.4680060000000  0.4014630000000  0.4775780000000 1.0
C      1  0.4618070000000  0.5483010000000  0.5645490000000 1.0
C      1  0.5439880000000  0.4562430000000  0.3725030000000 1.0
C      1  0.5823450000000  0.4554650000000  0.5323930000000 1.0
C      1  0.5184380000000  0.4305530000000  0.5508420000000 1.0
C      1  0.4346210000000  0.4503660000000  0.4485480000000 1.0
C      1  0.5274220000000  0.4625050000000  0.4170500000000 1.0
C      1  0.5628430000000  0.5220830000000  0.4010420000000 1.0
C      1  0.4566370000000  0.4473800000000  0.4340720000000 1.0
C      1  0.4107400000000  0.5215810000000  0.4381440000000 1.0
C      1  0.4875780000000  0.4950970000000  0.5128240000000 1.0
C      1  0.4612520000000  0.4936210000000  0.5037570000000 1.0
C      1  0.6059210000000  0.5128030000000  0.4873340000000 1.0
C      1  0.5361970000000  0.5431300000000  0.4826310000000 1.0
C      1  0.3540400000000  0.5250370000000  0.5493900000000 1.0
C      1  0.4579790000000  0.4863550000000  0.5920680000000 1.0
C      1  0.5236500000000  0.5392220000000  0.5936910000000 1.0
C      1  0.5546330000000  0.4973560000000  0.3947470000000 1.0
C      1  0.5814690000000  0.4761530000000  0.4690250000000 1.0
C      1  0.5573160000000  0.5258980000000  0.4690170000000 1.0
C      1  0.5591020000000  0.6163020000000  0.5534810000000 1.0
C      1  0.5822060000000  0.5510270000000  0.5344020000000 1.0
C      1  0.5613760000000  0.5427970000000  0.4203330000000 1.0
C      1  0.3766720000000  0.4552230000000  0.4916580000000 1.0
C      1  0.4872470000000  0.4197800000000  0.4778880000000 1.0
C      1  0.3898080000000  0.5026030000000  0.5163760000000 1.0
C      1  0.5054270000000  0.5286540000000  0.5761090000000 1.0
C      1  0.4618410000000  0.5079680000000  0.4402250000000 1.0
C      1  0.3645570000000  0.5506190000000  0.5887710000000 1.0
C      1  0.6055700000000  0.5773480000000  0.4758660000000 1.0
C      1  0.5161830000000  0.5374780000000  0.4209860000000 1.0
C      1  0.5639370000000  0.5007320000000  0.5416350000000 1.0
C      1  0.4943190000000  0.4934720000000  0.5406300000000 1.0
C      1  0.5931250000000  0.5833740000000  0.4988810000000 1.0
C      1  0.5821480000000  0.5772760000000  0.5240970000000 1.0
C      1  0.6068180000000  0.4923230000000  0.4647920000000 1.0
C      1  0.4087240000000  0.5650430000000  0.6141340000000 1.0
C      1  0.5766420000000  0.5144200000000  0.4909540000000 1.0
C      1  0.5087410000000  0.4563010000000  0.4372460000000 1.0
C      1  0.5606720000000  0.4809510000000  0.4494450000000 1.0
C      1  0.4674690000000  0.4689220000000  0.5739820000000 1.0
C      1  0.5203710000000  0.4863360000000  0.4752520000000 1.0
C      1  0.5331720000000  0.4210470000000  0.5289160000000 1.0
C      1  0.4423360000000  0.5488000000000  0.5464170000000 1.0
C      1  0.3187260000000  0.5439320000000  0.5759450000000 1.0
C      1  0.5741750000000  0.5381440000000  0.4451790000000 1.0
C      1  0.4882420000000  0.5053830000000  0.4404660000000 1.0
C      1  0.5793950000000  0.4291730000000  0.5354400000000 1.0
C      1  0.5766540000000  0.5259250000000  0.5416830000000 1.0
C      1  0.5087500000000  0.5028960000000  0.4953540000000 1.0
C      1  0.4313580000000  0.5711990000000  0.6255120000000 1.0
C      1  0.3940420000000  0.4382890000000  0.4759680000000 1.0
C      1  0.6156590000000  0.5532470000000  0.4656310000000 1.0
C      1  0.4639820000000  0.5122050000000  0.5961090000000 1.0
C      1  0.3852370000000  0.5263650000000  0.4406590000000 1.0
C      1  0.6123760000000  0.5095620000000  0.4421000000000 1.0
C      1  0.5150430000000  0.5143260000000  0.5514080000000 1.0
C      1  0.5400510000000  0.4971120000000  0.5567650000000 1.0
C      1  0.4167770000000  0.5133460000000  0.5166530000000 1.0
C      1  0.4827820000000  0.4487080000000  0.4296120000000 1.0
C      1  0.5589980000000  0.4100200000000  0.5333840000000 1.0
C      1  0.4774260000000  0.5315210000000  0.5806020000000 1.0
C      1  0.5365900000000  0.5566080000000  0.4230820000000 1.0
C      1  0.4172170000000  0.4550400000000  0.4695530000000 1.0
C      1  0.3859210000000  0.5585370000000  0.6022900000000 1.0
C      1  0.4167660000000  0.4776480000000  0.4869240000000 1.0
C      1  0.4258330000000  0.5357870000000  0.5301690000000 1.0
C      1  0.5349620000000  0.4722630000000  0.5695830000000 1.0
C      1  0.3969680000000  0.4106510000000  0.4749410000000 1.0
C      1  0.5260040000000  0.4298510000000  0.5033430000000 1.0
C      1  0.3893870000000  0.4797910000000  0.4991960000000 1.0
C      1  0.5206100000000  0.5286620000000  0.5016210000000 1.0
C      1  0.5383960000000  0.5021650000000  0.4554530000000 1.0
C      1  0.5203680000000  0.5340330000000  0.5293060000000 1.0
C      1  0.6232900000000  0.5347230000000  0.4860900000000 1.0
C      1  0.4365040000000  0.5153560000000  0.4378010000000 1.0
C      1  0.4338100000000  0.4960430000000  0.5006420000000 1.0
C      1  0.3686880000000  0.5126310000000  0.5311420000000 1.0
C      1  0.4896710000000  0.4701740000000  0.5569650000000 1.0
C      1  0.6026980000000  0.5369700000000  0.4451860000000 1.0
C      1  0.5720620000000  0.4797840000000  0.5233930000000 1.0
C      1  0.5146980000000  0.5141840000000  0.4367240000000 1.0
C      1  0.5718220000000  0.4858790000000  0.4958240000000 1.0
C      1  0.5133580000000  0.4553790000000  0.5624730000000 1.0
C      1  0.5132980000000  0.4598400000000  0.4657550000000 1.0
C      1  0.5705890000000  0.5977520000000  0.5392290000000 1.0
C      1  0.5634240000000  0.3832240000000  0.5354300000000 1.0
C      1  0.5089540000000  0.4370530000000  0.4824540000000 1.0
C      1  0.4171170000000  0.3930840000000  0.4755580000000 1.0
END
