TITL C-627108-131-516 0.00156640077957298 125000 -329.461794406522 0 0 55 (C1) n - 1
REM
REM in /home/nfs/bkarasulu/CARBON/AIRSS/Generating-Clusters/LCBOP/Only-C1/SD-CG/FIRE-CG
REM
REM
REM
REM
REM
REM ./C.cell (11c1c37f851c82e70ff6c80c92926a4b)
REM AIRSS Version 0.9.1 bugfix July 2018 build 013d7b7c2542+ Fri, 06 Jul 2018 19:26:36 +0100
REM compiler GCC version 9.2.1 20190827 (Red Hat 9.2.1-1)
REM options -cpp -mtune=generic -march=x86-64 -g -O0 -fpre-include=/usr/include/finclude/math-vector-fortran.h
REM seed 1945527833 -1415453347 -1472778593 -332306031 1787815953 997093001 -602121622 353785821 -1650314689 1239966495 532806900 447921143 -1492860145 -2055976408 -1135497650 -1739595908 1010239743 -389553383 1902629231 1775556968 -75005786 -1451766869 1031903139 -967866092 690699818 -1809650708 -519537358 -1509307226 -1929133796 -199710413 1482165608 1195915096 -448330181
REM
CELL 1.54180   50.00000   50.00000   50.00000   90.00000   90.00000   90.00000
LATT -1
SFAC C  
C      1  0.4803590000000  0.4964540000000  0.4812140000000 1.0
C      1  0.5108840000000  0.4251980000000  0.4958320000000 1.0
C      1  0.5707500000000  0.5191670000000  0.5454680000000 1.0
C      1  0.5139780000000  0.5142390000000  0.5185570000000 1.0
C      1  0.4627570000000  0.5175530000000  0.4756060000000 1.0
C      1  0.5471080000000  0.4791690000000  0.5682000000000 1.0
C      1  0.4298990000000  0.5083690000000  0.5115490000000 1.0
C      1  0.4719210000000  0.5253770000000  0.4291030000000 1.0
C      1  0.5106370000000  0.5391930000000  0.5054400000000 1.0
C      1  0.4744770000000  0.5348860000000  0.4556970000000 1.0
C      1  0.5583740000000  0.6006410000000  0.5599490000000 1.0
C      1  0.4877070000000  0.4733080000000  0.5751090000000 1.0
C      1  0.5294410000000  0.4652190000000  0.5510180000000 1.0
C      1  0.4199060000000  0.4610380000000  0.5160000000000 1.0
C      1  0.5069030000000  0.4671000000000  0.3981560000000 1.0
C      1  0.5627780000000  0.5006070000000  0.5631440000000 1.0
C      1  0.5473830000000  0.4732190000000  0.4654750000000 1.0
C      1  0.4923300000000  0.4672550000000  0.4445910000000 1.0
C      1  0.4282750000000  0.4861090000000  0.5290450000000 1.0
C      1  0.5260640000000  0.4908940000000  0.5067970000000 1.0
C      1  0.4550810000000  0.4440810000000  0.4691160000000 1.0
C      1  0.5493310000000  0.4452190000000  0.4678720000000 1.0
C      1  0.5612250000000  0.4935190000000  0.4517960000000 1.0
C      1  0.4805970000000  0.5038880000000  0.4156460000000 1.0
C      1  0.4998540000000  0.4821690000000  0.4676060000000 1.0
C      1  0.4980730000000  0.5510320000000  0.4605940000000 1.0
C      1  0.4477920000000  0.4765460000000  0.5488900000000 1.0
C      1  0.5572560000000  0.5202000000000  0.4543810000000 1.0
C      1  0.5182610000000  0.5780090000000  0.5338590000000 1.0
C      1  0.4362750000000  0.5097710000000  0.4836030000000 1.0
C      1  0.5330310000000  0.4280200000000  0.4809120000000 1.0
C      1  0.5249390000000  0.4834310000000  0.4795870000000 1.0
C      1  0.4635260000000  0.4851880000000  0.5705500000000 1.0
C      1  0.5189190000000  0.5425190000000  0.4784070000000 1.0
C      1  0.4757770000000  0.4450650000000  0.4499650000000 1.0
C      1  0.4935440000000  0.4790550000000  0.4187280000000 1.0
C      1  0.4856090000000  0.4444980000000  0.5363140000000 1.0
C      1  0.4607460000000  0.4354450000000  0.4957670000000 1.0
C      1  0.5790790000000  0.6103420000000  0.5724710000000 1.0
C      1  0.5710900000000  0.5326520000000  0.5223150000000 1.0
C      1  0.5376130000000  0.5903060000000  0.5471170000000 1.0
C      1  0.5005830000000  0.5617590000000  0.5195890000000 1.0
C      1  0.4732880000000  0.5676050000000  0.5191580000000 1.0
C      1  0.5024610000000  0.4575440000000  0.5561210000000 1.0
C      1  0.4335110000000  0.4621770000000  0.4645010000000 1.0
C      1  0.4481450000000  0.5743210000000  0.5177980000000 1.0
C      1  0.5470810000000  0.5372250000000  0.4745660000000 1.0
C      1  0.5635390000000  0.5401900000000  0.4977100000000 1.0
C      1  0.4411540000000  0.4417420000000  0.5160400000000 1.0
C      1  0.5349210000000  0.4706580000000  0.5240500000000 1.0
C      1  0.4874280000000  0.4336460000000  0.5087550000000 1.0
C      1  0.4260230000000  0.4879090000000  0.4681510000000 1.0
C      1  0.5002670000000  0.5754470000000  0.4482170000000 1.0
C      1  0.5049350000000  0.5134830000000  0.5444790000000 1.0
C      1  0.4571100000000  0.4503440000000  0.5394170000000 1.0
END
