TITL C-627110-360-2067 0.00140005304779451 125000 -1207.72418103903 0 0 198 (C1) n - 1
REM
REM in /home/nfs/bkarasulu/CARBON/AIRSS/Generating-Clusters/LCBOP/Only-C1/SD-CG/FIRE-CG
REM
REM
REM
REM
REM
REM ./C.cell (11c1c37f851c82e70ff6c80c92926a4b)
REM AIRSS Version 0.9.1 bugfix July 2018 build 013d7b7c2542+ Fri, 06 Jul 2018 19:26:36 +0100
REM compiler GCC version 9.2.1 20190827 (Red Hat 9.2.1-1)
REM options -cpp -mtune=generic -march=x86-64 -g -O0 -fpre-include=/usr/include/finclude/math-vector-fortran.h
REM seed -2102664912 -1365979294 -742004066 2145158051 -1784749183 1877460908 -1152358108 1000721089 1583500544 521649988 -973536027 1330742175 1324770742 369383220 1499027158 1512099243 -909592932 -2077464139 -1614001844 1543111505 -325202649 1208114005 -1700503520 748652512 -1518661235 -626766270 1765213346 1895977273 1221940289 549131609 557342271 1678723937 1029095469
REM
CELL 1.54180   50.00000   50.00000   50.00000   90.00000   90.00000   90.00000
LATT -1
SFAC C  
C      1  0.4587990000000  0.4339450000000  0.3821030000000 1.0
C      1  0.5293180000000  0.4857290000000  0.5876610000000 1.0
C      1  0.3952080000000  0.5095400000000  0.5327040000000 1.0
C      1  0.4523420000000  0.5549400000000  0.4716070000000 1.0
C      1  0.5964410000000  0.4710890000000  0.4409480000000 1.0
C      1  0.4787530000000  0.4415100000000  0.5083410000000 1.0
C      1  0.4464980000000  0.5166010000000  0.6129150000000 1.0
C      1  0.5344170000000  0.4382760000000  0.5024790000000 1.0
C      1  0.5853230000000  0.4231880000000  0.5357000000000 1.0
C      1  0.5304430000000  0.5251530000000  0.4409400000000 1.0
C      1  0.4746030000000  0.4105430000000  0.5555310000000 1.0
C      1  0.4744100000000  0.4946320000000  0.4757960000000 1.0
C      1  0.4698760000000  0.4781710000000  0.5575370000000 1.0
C      1  0.4097640000000  0.5550120000000  0.5855890000000 1.0
C      1  0.4247110000000  0.4793030000000  0.4134320000000 1.0
C      1  0.5866890000000  0.5454140000000  0.5017050000000 1.0
C      1  0.5169700000000  0.5139500000000  0.4876280000000 1.0
C      1  0.5818940000000  0.4843050000000  0.5319500000000 1.0
C      1  0.5274410000000  0.5912300000000  0.4200270000000 1.0
C      1  0.5702100000000  0.4635700000000  0.5185220000000 1.0
C      1  0.4015630000000  0.4957340000000  0.4122890000000 1.0
C      1  0.6128300000000  0.5071790000000  0.5601250000000 1.0
C      1  0.5494530000000  0.5718960000000  0.4190820000000 1.0
C      1  0.5763640000000  0.4159110000000  0.4681920000000 1.0
C      1  0.6046540000000  0.5338660000000  0.5553580000000 1.0
C      1  0.4877840000000  0.5268520000000  0.5817140000000 1.0
C      1  0.5401560000000  0.5277360000000  0.4954150000000 1.0
C      1  0.4695500000000  0.5573020000000  0.4961010000000 1.0
C      1  0.5731040000000  0.5797130000000  0.5326700000000 1.0
C      1  0.5691950000000  0.5200700000000  0.4961980000000 1.0
C      1  0.5069580000000  0.3664920000000  0.4975190000000 1.0
C      1  0.4501030000000  0.5963240000000  0.4124920000000 1.0
C      1  0.4480190000000  0.4463480000000  0.5793860000000 1.0
C      1  0.6029150000000  0.5414440000000  0.5281070000000 1.0
C      1  0.4259630000000  0.4461140000000  0.4571280000000 1.0
C      1  0.3893830000000  0.5189430000000  0.4187450000000 1.0
C      1  0.4546880000000  0.4829250000000  0.3589940000000 1.0
C      1  0.6018020000000  0.6172500000000  0.5055710000000 1.0
C      1  0.4948360000000  0.4751430000000  0.6222770000000 1.0
C      1  0.5844670000000  0.4367100000000  0.5636260000000 1.0
C      1  0.4331770000000  0.5794430000000  0.4290540000000 1.0
C      1  0.4033240000000  0.4599910000000  0.5888690000000 1.0
C      1  0.5380070000000  0.4261600000000  0.5277100000000 1.0
C      1  0.6253760000000  0.5315470000000  0.4771390000000 1.0
C      1  0.4631000000000  0.4333120000000  0.4845160000000 1.0
C      1  0.5096730000000  0.5871260000000  0.4791840000000 1.0
C      1  0.4349060000000  0.3732660000000  0.5197200000000 1.0
C      1  0.4194610000000  0.5136710000000  0.5141020000000 1.0
C      1  0.3998990000000  0.5409990000000  0.4332470000000 1.0
C      1  0.5606570000000  0.4906730000000  0.4166380000000 1.0
C      1  0.4679480000000  0.3978060000000  0.4136700000000 1.0
C      1  0.4999680000000  0.5879930000000  0.4099380000000 1.0
C      1  0.4801830000000  0.3675550000000  0.4877580000000 1.0
C      1  0.6035760000000  0.5778990000000  0.4680570000000 1.0
C      1  0.4922140000000  0.5496600000000  0.4438790000000 1.0
C      1  0.4855750000000  0.6328720000000  0.4922410000000 1.0
C      1  0.5010190000000  0.5448540000000  0.3750800000000 1.0
C      1  0.5796580000000  0.5301210000000  0.4344570000000 1.0
C      1  0.4777290000000  0.3728770000000  0.4599320000000 1.0
C      1  0.4998700000000  0.4499690000000  0.4569050000000 1.0
C      1  0.4312160000000  0.4651460000000  0.5958020000000 1.0
C      1  0.5418910000000  0.4300240000000  0.4354790000000 1.0
C      1  0.5676390000000  0.5566620000000  0.5897700000000 1.0
C      1  0.5952780000000  0.4344990000000  0.4817320000000 1.0
C      1  0.4648890000000  0.4177330000000  0.5296640000000 1.0
C      1  0.4365660000000  0.4606320000000  0.5297650000000 1.0
C      1  0.4034970000000  0.4476830000000  0.4996340000000 1.0
C      1  0.5289480000000  0.5291510000000  0.5533960000000 1.0
C      1  0.4848850000000  0.4502610000000  0.6202560000000 1.0
C      1  0.4484850000000  0.5797900000000  0.5742420000000 1.0
C      1  0.5027810000000  0.4880350000000  0.4219570000000 1.0
C      1  0.3984420000000  0.4113410000000  0.5312970000000 1.0
C      1  0.5729030000000  0.5583750000000  0.4302230000000 1.0
C      1  0.4476230000000  0.5781580000000  0.4549270000000 1.0
C      1  0.4490580000000  0.4603210000000  0.5540220000000 1.0
C      1  0.4901770000000  0.4300170000000  0.6009660000000 1.0
C      1  0.5432220000000  0.4990540000000  0.3964940000000 1.0
C      1  0.4501440000000  0.4907620000000  0.4223150000000 1.0
C      1  0.5052130000000  0.5586960000000  0.6237120000000 1.0
C      1  0.5181660000000  0.5546630000000  0.5448890000000 1.0
C      1  0.5311700000000  0.4208740000000  0.4801670000000 1.0
C      1  0.5383630000000  0.5567630000000  0.4997240000000 1.0
C      1  0.5381770000000  0.5955260000000  0.5668010000000 1.0
C      1  0.5908900000000  0.5481580000000  0.5755160000000 1.0
C      1  0.5097910000000  0.4929630000000  0.6070180000000 1.0
C      1  0.4400840000000  0.5267470000000  0.4605810000000 1.0
C      1  0.4395090000000  0.4052970000000  0.4153730000000 1.0
C      1  0.5494010000000  0.4795810000000  0.4781210000000 1.0
C      1  0.4238000000000  0.3923210000000  0.4346000000000 1.0
C      1  0.4785500000000  0.3831490000000  0.4351200000000 1.0
C      1  0.5052810000000  0.5199630000000  0.6023230000000 1.0
C      1  0.5267970000000  0.3750810000000  0.5159590000000 1.0
C      1  0.5235980000000  0.4338210000000  0.5491530000000 1.0
C      1  0.4751750000000  0.4532800000000  0.4424750000000 1.0
C      1  0.4870140000000  0.5146180000000  0.5328230000000 1.0
C      1  0.4949620000000  0.3904860000000  0.5552350000000 1.0
C      1  0.5998680000000  0.4296530000000  0.5106960000000 1.0
C      1  0.5734800000000  0.4785920000000  0.5941520000000 1.0
C      1  0.4674640000000  0.6009160000000  0.4552440000000 1.0
C      1  0.5651380000000  0.5653420000000  0.5097990000000 1.0
C      1  0.5384260000000  0.6182130000000  0.5479190000000 1.0
C      1  0.5330050000000  0.5050760000000  0.5658150000000 1.0
C      1  0.4234550000000  0.4073520000000  0.4826090000000 1.0
C      1  0.5156020000000  0.3791350000000  0.5420600000000 1.0
C      1  0.5466760000000  0.5226970000000  0.3809660000000 1.0
C      1  0.5542690000000  0.4021640000000  0.4827430000000 1.0
C      1  0.5508260000000  0.4606300000000  0.4988030000000 1.0
C      1  0.5145210000000  0.5621540000000  0.5177410000000 1.0
C      1  0.4100120000000  0.5335630000000  0.4590960000000 1.0
C      1  0.4615190000000  0.5094010000000  0.3590280000000 1.0
C      1  0.4216910000000  0.4522380000000  0.4068640000000 1.0
C      1  0.4201900000000  0.5565290000000  0.4191640000000 1.0
C      1  0.4102340000000  0.4326250000000  0.4769710000000 1.0
C      1  0.6052540000000  0.6027550000000  0.4815440000000 1.0
C      1  0.5781790000000  0.6313760000000  0.5131860000000 1.0
C      1  0.4368490000000  0.5610750000000  0.5921710000000 1.0
C      1  0.5533950000000  0.5350720000000  0.6043990000000 1.0
C      1  0.4827890000000  0.5474180000000  0.4189740000000 1.0
C      1  0.4995820000000  0.6349520000000  0.5151550000000 1.0
C      1  0.4476330000000  0.4127900000000  0.4973480000000 1.0
C      1  0.4571340000000  0.3660710000000  0.5053160000000 1.0
C      1  0.4661270000000  0.6160060000000  0.4803030000000 1.0
C      1  0.4883460000000  0.5168150000000  0.4879340000000 1.0
C      1  0.4722010000000  0.5297930000000  0.5100810000000 1.0
C      1  0.4774590000000  0.5566940000000  0.6222130000000 1.0
C      1  0.4297890000000  0.5065670000000  0.5696260000000 1.0
C      1  0.5441040000000  0.4369600000000  0.5948660000000 1.0
C      1  0.5184260000000  0.4247560000000  0.5988430000000 1.0
C      1  0.5289510000000  0.6109760000000  0.4405970000000 1.0
C      1  0.4528350000000  0.5453610000000  0.6111730000000 1.0
C      1  0.3903960000000  0.4380630000000  0.5237260000000 1.0
C      1  0.5903460000000  0.4649840000000  0.5735170000000 1.0
C      1  0.5784200000000  0.4983650000000  0.4405090000000 1.0
C      1  0.4146850000000  0.3893770000000  0.5289840000000 1.0
C      1  0.6133710000000  0.6051560000000  0.5286630000000 1.0
C      1  0.4475870000000  0.5181350000000  0.4304500000000 1.0
C      1  0.4542240000000  0.4443120000000  0.4593060000000 1.0
C      1  0.4270090000000  0.4929860000000  0.4955720000000 1.0
C      1  0.3919850000000  0.5495010000000  0.5660750000000 1.0
C      1  0.5992460000000  0.4833340000000  0.5538860000000 1.0
C      1  0.3849520000000  0.5353830000000  0.5440060000000 1.0
C      1  0.4467790000000  0.6078320000000  0.4998870000000 1.0
C      1  0.4355390000000  0.4292160000000  0.3996340000000 1.0
C      1  0.5475360000000  0.4655110000000  0.5951870000000 1.0
C      1  0.4976940000000  0.4724360000000  0.4774960000000 1.0
C      1  0.5126240000000  0.4546450000000  0.5600880000000 1.0
C      1  0.4864890000000  0.5202360000000  0.3677650000000 1.0
C      1  0.5278300000000  0.5653710000000  0.4725370000000 1.0
C      1  0.5660850000000  0.4238170000000  0.5822330000000 1.0
C      1  0.4209250000000  0.3891590000000  0.4612130000000 1.0
C      1  0.4423600000000  0.5273140000000  0.5246280000000 1.0
C      1  0.4755080000000  0.4769650000000  0.4259600000000 1.0
C      1  0.3939220000000  0.4705070000000  0.5642580000000 1.0
C      1  0.4588200000000  0.4570860000000  0.3659380000000 1.0
C      1  0.5191950000000  0.4991900000000  0.4429520000000 1.0
C      1  0.5675980000000  0.4225190000000  0.4414910000000 1.0
C      1  0.5189170000000  0.5479650000000  0.4521650000000 1.0
C      1  0.4932990000000  0.5740020000000  0.5006400000000 1.0
C      1  0.3811430000000  0.4607220000000  0.5396990000000 1.0
C      1  0.4477620000000  0.5923890000000  0.5505760000000 1.0
C      1  0.5241340000000  0.5394520000000  0.6123210000000 1.0
C      1  0.4936350000000  0.4651890000000  0.5065780000000 1.0
C      1  0.5962930000000  0.5895610000000  0.5428390000000 1.0
C      1  0.5524450000000  0.3884210000000  0.5087280000000 1.0
C      1  0.4750260000000  0.5225830000000  0.5577600000000 1.0
C      1  0.5171920000000  0.5767940000000  0.5622310000000 1.0
C      1  0.4391220000000  0.5367690000000  0.4105300000000 1.0
C      1  0.5576270000000  0.5831620000000  0.5840800000000 1.0
C      1  0.4231340000000  0.4672320000000  0.5061790000000 1.0
C      1  0.4373840000000  0.4952460000000  0.5955410000000 1.0
C      1  0.5138160000000  0.6270770000000  0.5364960000000 1.0
C      1  0.4765720000000  0.6009080000000  0.4251790000000 1.0
C      1  0.5294220000000  0.5416620000000  0.3719850000000 1.0
C      1  0.5608570000000  0.6289760000000  0.5339600000000 1.0
C      1  0.5606280000000  0.4085150000000  0.5289710000000 1.0
C      1  0.4060600000000  0.4964220000000  0.5584880000000 1.0
C      1  0.6231770000000  0.5050370000000  0.4824870000000 1.0
C      1  0.3760400000000  0.4865220000000  0.5247310000000 1.0
C      1  0.4960000000000  0.4882240000000  0.5239030000000 1.0
C      1  0.6071220000000  0.5528430000000  0.4813510000000 1.0
C      1  0.4930540000000  0.5620530000000  0.3969000000000 1.0
C      1  0.6019190000000  0.4603670000000  0.4681810000000 1.0
C      1  0.4430920000000  0.6005260000000  0.5254880000000 1.0
C      1  0.4779920000000  0.4142210000000  0.3917790000000 1.0
C      1  0.6021690000000  0.4861150000000  0.4824490000000 1.0
C      1  0.5161120000000  0.4895980000000  0.3967670000000 1.0
C      1  0.4468110000000  0.5227970000000  0.5534240000000 1.0
C      1  0.4693180000000  0.4259650000000  0.5805670000000 1.0
C      1  0.5017670000000  0.4967240000000  0.3741660000000 1.0
C      1  0.4943190000000  0.4725390000000  0.5650320000000 1.0
C      1  0.5175430000000  0.6102110000000  0.4651550000000 1.0
C      1  0.5739350000000  0.4988680000000  0.4739820000000 1.0
C      1  0.4462230000000  0.5007220000000  0.4756360000000 1.0
C      1  0.5224120000000  0.4892190000000  0.4708390000000 1.0
C      1  0.5687890000000  0.5077660000000  0.6031860000000 1.0
C      1  0.5912700000000  0.5759550000000  0.4428880000000 1.0
C      1  0.5217690000000  0.4319870000000  0.4556220000000 1.0
C      1  0.5713400000000  0.5081020000000  0.5234290000000 1.0
END
