TITL C-627106-156-1834 -212.513386432405 125000 -95.4695368751581 0 0 18 (C1) n - 1
REM
REM in /home/nfs/bkarasulu/CARBON/AIRSS/Generating-Clusters/LCBOP/Only-C1/SD-CG/FIRE-CG
REM
REM
REM
REM
REM
REM ./C.cell (11c1c37f851c82e70ff6c80c92926a4b)
REM AIRSS Version 0.9.1 bugfix July 2018 build 013d7b7c2542+ Fri, 06 Jul 2018 19:26:36 +0100
REM compiler GCC version 9.2.1 20190827 (Red Hat 9.2.1-1)
REM options -cpp -mtune=generic -march=x86-64 -g -O0 -fpre-include=/usr/include/finclude/math-vector-fortran.h
REM seed -1766352399 1564870622 -303979793 1982127582 -229246569 770320823 -1077587284 -2000431445 1371203831 1233349325 -2092935051 665551726 132818726 -1737231694 1748898796 -1053155997 187464816 633395319 -1834945962 1044269628 -1411710002 1436224852 -1228977104 935020724 -502937673 1294710164 1970973727 -1567746047 1306705322 633408711 192778847 942136752 391914597
REM
CELL 1.54180   50.00000   50.00000   50.00000   90.00000   90.00000   90.00000
LATT -1
SFAC C  
C      1  0.4981560000000  0.4964180000000  0.4453430000000 1.0
C      1  0.4948750000000  0.4908670000000  0.4725090000000 1.0
C      1  0.4903310000000  0.5151920000000  0.6060910000000 1.0
C      1  0.4558110000000  0.5134270000000  0.5050380000000 1.0
C      1  0.4624720000000  0.5148910000000  0.5321250000000 1.0
C      1  0.5802830000000  0.4948700000000  0.4707490000000 1.0
C      1  0.5021830000000  0.5014710000000  0.4200960000000 1.0
C      1  0.5352180000000  0.4847990000000  0.4995440000000 1.0
C      1  0.5093900000000  0.4463980000000  0.4851390000000 1.0
C      1  0.4739160000000  0.5023980000000  0.4868780000000 1.0
C      1  0.6012610000000  0.4997640000000  0.4560660000000 1.0
C      1  0.4806650000000  0.5152920000000  0.5818800000000 1.0
C      1  0.4710270000000  0.5153140000000  0.5571890000000 1.0
C      1  0.5130930000000  0.4735060000000  0.4857130000000 1.0
C      1  0.4311160000000  0.5229720000000  0.4961450000000 1.0
C      1  0.5332940000000  0.4906090000000  0.5262100000000 1.0
C      1  0.5588210000000  0.4899250000000  0.4854740000000 1.0
C      1  0.4080870000000  0.5318870000000  0.4878130000000 1.0
END
