TITL C-627113-6568-104 -371.340837316333 125000 -109.519253623087 0 0 20 (C1) n - 1
REM
REM in /home/nfs/bkarasulu/CARBON/AIRSS/Generating-Clusters/LCBOP/Only-C1/SD-CG/FIRE-CG
REM
REM
REM
REM
REM
REM ./C.cell (11c1c37f851c82e70ff6c80c92926a4b)
REM AIRSS Version 0.9.1 bugfix July 2018 build 013d7b7c2542+ Fri, 06 Jul 2018 19:26:36 +0100
REM compiler GCC version 9.2.1 20190827 (Red Hat 9.2.1-1)
REM options -cpp -mtune=generic -march=x86-64 -g -O0 -fpre-include=/usr/include/finclude/math-vector-fortran.h
REM seed -1655278651 -623166764 -1890261626 2037682394 1852207611 -1503585248 -1045013031 -1357503710 1306645393 -1270736962 62582568 338125575 -462262043 771324983 -230834313 1591054761 1997897965 1433470533 -1237443262 -735149697 -62741040 -877336102 1766958466 10578849 -1184536850 -1404184366 -1783223688 2138506495 -849798041 -1357246841 -364278719 -101333606 -1964295884
REM
CELL 1.54180   50.00000   50.00000   50.00000   90.00000   90.00000   90.00000
LATT -1
SFAC C  
C      1  0.5258610000000  0.4712450000000  0.5078950000000 1.0
C      1  0.5592880000000  0.4355210000000  0.5723510000000 1.0
C      1  0.4750890000000  0.5337270000000  0.5158890000000 1.0
C      1  0.4418360000000  0.5747520000000  0.5203800000000 1.0
C      1  0.5355730000000  0.4549090000000  0.4554710000000 1.0
C      1  0.4584520000000  0.5542310000000  0.5181280000000 1.0
C      1  0.5317390000000  0.4620200000000  0.4822150000000 1.0
C      1  0.5483540000000  0.4472420000000  0.5512410000000 1.0
C      1  0.5257140000000  0.4721190000000  0.4350900000000 1.0
C      1  0.5418730000000  0.4913980000000  0.4243270000000 1.0
C      1  0.4252240000000  0.5952730000000  0.5226500000000 1.0
C      1  0.3922820000000  0.6359960000000  0.5272130000000 1.0
C      1  0.4745950000000  0.4659810000000  0.4187580000000 1.0
C      1  0.4993340000000  0.4690880000000  0.4263410000000 1.0
C      1  0.5485480000000  0.4317410000000  0.4488900000000 1.0
C      1  0.5374130000000  0.4589470000000  0.5301480000000 1.0
C      1  0.5700440000000  0.4239760000000  0.5931040000000 1.0
C      1  0.5084120000000  0.4927870000000  0.5113010000000 1.0
C      1  0.4917520000000  0.5132430000000  0.5136650000000 1.0
C      1  0.4086160000000  0.6158040000000  0.5249430000000 1.0
END
