TITL C-627110-360-2105 0.00693328340532215 125000 -742.098172037797 0 0 122 (C1) n - 1
REM
REM in /home/nfs/bkarasulu/CARBON/AIRSS/Generating-Clusters/LCBOP/Only-C1/SD-CG/FIRE-CG
REM
REM
REM
REM
REM
REM ./C.cell (11c1c37f851c82e70ff6c80c92926a4b)
REM AIRSS Version 0.9.1 bugfix July 2018 build 013d7b7c2542+ Fri, 06 Jul 2018 19:26:36 +0100
REM compiler GCC version 9.2.1 20190827 (Red Hat 9.2.1-1)
REM options -cpp -mtune=generic -march=x86-64 -g -O0 -fpre-include=/usr/include/finclude/math-vector-fortran.h
REM seed -2040768964 -1822719898 -1710638917 1393710751 -681812814 1765043554 1718195069 314501809 323562620 -896030847 1050807660 -1508043826 605258145 1227682330 248644930 -795515801 1236637090 2115200890 -611648513 -174282415 2021686068 -638879837 -1582748294 -986070847 -459816840 1225748079 -1123775105 -2147453563 -1631337310 -217696706 -1347930029 1666059266 2136975489
REM
CELL 1.54180   50.00000   50.00000   50.00000   90.00000   90.00000   90.00000
LATT -1
SFAC C  
C      1  0.3987340000000  0.4967730000000  0.5381690000000 1.0
C      1  0.4893300000000  0.4007310000000  0.4387560000000 1.0
C      1  0.5572780000000  0.4564260000000  0.5562890000000 1.0
C      1  0.5443820000000  0.5569010000000  0.5574150000000 1.0
C      1  0.4688040000000  0.5995900000000  0.4830800000000 1.0
C      1  0.4838250000000  0.5759550000000  0.4156690000000 1.0
C      1  0.4314990000000  0.5634370000000  0.4947550000000 1.0
C      1  0.5146830000000  0.5731610000000  0.5900080000000 1.0
C      1  0.4728390000000  0.5589760000000  0.3976460000000 1.0
C      1  0.5258990000000  0.5107410000000  0.4238830000000 1.0
C      1  0.4390630000000  0.5044290000000  0.4894990000000 1.0
C      1  0.4620760000000  0.5328740000000  0.3940670000000 1.0
C      1  0.5196120000000  0.5233700000000  0.5798860000000 1.0
C      1  0.5177050000000  0.4191360000000  0.5131560000000 1.0
C      1  0.4309100000000  0.5610850000000  0.5228860000000 1.0
C      1  0.4100100000000  0.5470420000000  0.5355000000000 1.0
C      1  0.5497710000000  0.5594140000000  0.4313650000000 1.0
C      1  0.4220070000000  0.4783210000000  0.6451600000000 1.0
C      1  0.5827550000000  0.4855230000000  0.5289310000000 1.0
C      1  0.5856260000000  0.5883520000000  0.4411840000000 1.0
C      1  0.5127160000000  0.4642580000000  0.6327870000000 1.0
C      1  0.4739650000000  0.5465420000000  0.5473420000000 1.0
C      1  0.5594890000000  0.4318320000000  0.4874610000000 1.0
C      1  0.5663680000000  0.5367180000000  0.4249970000000 1.0
C      1  0.4674980000000  0.4960600000000  0.4233130000000 1.0
C      1  0.5906410000000  0.5627300000000  0.5372130000000 1.0
C      1  0.5077510000000  0.4615190000000  0.4986060000000 1.0
C      1  0.5362490000000  0.4142450000000  0.4912800000000 1.0
C      1  0.5938480000000  0.5440060000000  0.4241540000000 1.0
C      1  0.4018560000000  0.5064280000000  0.4326730000000 1.0
C      1  0.5601190000000  0.5688130000000  0.5010060000000 1.0
C      1  0.4633120000000  0.4683510000000  0.4307860000000 1.0
C      1  0.4490120000000  0.4011270000000  0.4854910000000 1.0
C      1  0.4716190000000  0.4274420000000  0.5730480000000 1.0
C      1  0.5199520000000  0.5964380000000  0.5041650000000 1.0
C      1  0.4512530000000  0.4949190000000  0.4661030000000 1.0
C      1  0.5060930000000  0.3927540000000  0.4578570000000 1.0
C      1  0.5087860000000  0.6102000000000  0.5263100000000 1.0
C      1  0.5147890000000  0.5050390000000  0.4493850000000 1.0
C      1  0.4713500000000  0.4446570000000  0.4187500000000 1.0
C      1  0.4564360000000  0.4524900000000  0.5338200000000 1.0
C      1  0.4821770000000  0.5006180000000  0.5161020000000 1.0
C      1  0.5190630000000  0.5057340000000  0.6012500000000 1.0
C      1  0.4792670000000  0.5111120000000  0.4023510000000 1.0
C      1  0.4387690000000  0.4476180000000  0.4737360000000 1.0
C      1  0.4005270000000  0.4602930000000  0.5045670000000 1.0
C      1  0.5674530000000  0.4867860000000  0.4337730000000 1.0
C      1  0.5849440000000  0.5667550000000  0.5111570000000 1.0
C      1  0.4230750000000  0.5483330000000  0.4504700000000 1.0
C      1  0.4514970000000  0.4673050000000  0.4575640000000 1.0
C      1  0.6023380000000  0.5687630000000  0.4320270000000 1.0
C      1  0.5536490000000  0.3939930000000  0.4514210000000 1.0
C      1  0.5019140000000  0.5430270000000  0.5403750000000 1.0
C      1  0.4578890000000  0.5132500000000  0.4450340000000 1.0
C      1  0.5304190000000  0.4488020000000  0.5518520000000 1.0
C      1  0.4527280000000  0.4284460000000  0.4898510000000 1.0
C      1  0.5070640000000  0.5229010000000  0.4702120000000 1.0
C      1  0.5747130000000  0.4972480000000  0.5045950000000 1.0
C      1  0.4627050000000  0.5259000000000  0.5640420000000 1.0
C      1  0.4533730000000  0.4961590000000  0.5131250000000 1.0
C      1  0.4651470000000  0.5621780000000  0.4574140000000 1.0
C      1  0.4565380000000  0.4157560000000  0.6533190000000 1.0
C      1  0.4435720000000  0.3757320000000  0.4833260000000 1.0
C      1  0.5343160000000  0.5728390000000  0.5116870000000 1.0
C      1  0.5904640000000  0.4122390000000  0.4240190000000 1.0
C      1  0.5173110000000  0.6016070000000  0.4757870000000 1.0
C      1  0.5295400000000  0.5505540000000  0.5812160000000 1.0
C      1  0.5396730000000  0.5996420000000  0.4585700000000 1.0
C      1  0.4835370000000  0.5799230000000  0.4435250000000 1.0
C      1  0.4554620000000  0.5641790000000  0.5362570000000 1.0
C      1  0.4685960000000  0.4373360000000  0.5120540000000 1.0
C      1  0.5112560000000  0.4697010000000  0.5478520000000 1.0
C      1  0.5684550000000  0.4382400000000  0.4603750000000 1.0
C      1  0.5547000000000  0.5108110000000  0.4245100000000 1.0
C      1  0.5000670000000  0.4944980000000  0.5392960000000 1.0
C      1  0.5160680000000  0.4856570000000  0.6182810000000 1.0
C      1  0.5721890000000  0.5592170000000  0.5564540000000 1.0
C      1  0.4919850000000  0.3856200000000  0.5974860000000 1.0
C      1  0.5812200000000  0.4961840000000  0.5557400000000 1.0
C      1  0.5741330000000  0.4574840000000  0.5319970000000 1.0
C      1  0.4117340000000  0.4513010000000  0.4817060000000 1.0
C      1  0.4139140000000  0.5154630000000  0.4100880000000 1.0
C      1  0.4117280000000  0.4751420000000  0.5258340000000 1.0
C      1  0.5075490000000  0.5124530000000  0.4025690000000 1.0
C      1  0.4912900000000  0.5994960000000  0.4644800000000 1.0
C      1  0.5264180000000  0.4231190000000  0.5399220000000 1.0
C      1  0.4576020000000  0.5008080000000  0.5722110000000 1.0
C      1  0.5313930000000  0.3969050000000  0.4689240000000 1.0
C      1  0.5926490000000  0.5120450000000  0.4893650000000 1.0
C      1  0.4505810000000  0.5407330000000  0.4460730000000 1.0
C      1  0.5665620000000  0.4790360000000  0.5718530000000 1.0
C      1  0.4380730000000  0.4613370000000  0.6309640000000 1.0
C      1  0.5274690000000  0.4750310000000  0.4849150000000 1.0
C      1  0.5707880000000  0.4638460000000  0.4478780000000 1.0
C      1  0.4403860000000  0.4747920000000  0.5265490000000 1.0
C      1  0.5716010000000  0.4146300000000  0.4442250000000 1.0
C      1  0.5063030000000  0.5950880000000  0.5764000000000 1.0
C      1  0.4454430000000  0.4675000000000  0.6047270000000 1.0
C      1  0.3998940000000  0.5052200000000  0.4598860000000 1.0
C      1  0.6082120000000  0.4107150000000  0.4049960000000 1.0
C      1  0.5046260000000  0.6081900000000  0.5529010000000 1.0
C      1  0.4340060000000  0.5268470000000  0.3957690000000 1.0
C      1  0.5260280000000  0.5580540000000  0.5345830000000 1.0
C      1  0.4813690000000  0.4061170000000  0.5853730000000 1.0
C      1  0.5164700000000  0.5483300000000  0.4695630000000 1.0
C      1  0.6389130000000  0.5292080000000  0.4716240000000 1.0
C      1  0.3988930000000  0.5233720000000  0.5410870000000 1.0
C      1  0.4473400000000  0.4376330000000  0.6425480000000 1.0
C      1  0.5734470000000  0.4402100000000  0.5102440000000 1.0
C      1  0.4942740000000  0.5136930000000  0.4937100000000 1.0
C      1  0.4159750000000  0.5460100000000  0.4783760000000 1.0
C      1  0.4139370000000  0.5173800000000  0.4823330000000 1.0
C      1  0.4790480000000  0.4195260000000  0.4229860000000 1.0
C      1  0.5574390000000  0.5843700000000  0.4431430000000 1.0
C      1  0.4551880000000  0.4733960000000  0.5790920000000 1.0
C      1  0.5492280000000  0.4894650000000  0.4953410000000 1.0
C      1  0.4966070000000  0.4375190000000  0.5071700000000 1.0
C      1  0.4536220000000  0.5753870000000  0.4813730000000 1.0
C      1  0.5205660000000  0.4793100000000  0.4582970000000 1.0
C      1  0.6151020000000  0.5214810000000  0.4789090000000 1.0
C      1  0.4615950000000  0.4509960000000  0.5618550000000 1.0
C      1  0.5090320000000  0.5176050000000  0.5536420000000 1.0
END
