TITL C-627107-135-979 0.00564806057916876 125000 -789.801493423485 0 0 128 (C1) n - 1
REM
REM in /home/nfs/bkarasulu/CARBON/AIRSS/Generating-Clusters/LCBOP/Only-C1/SD-CG/FIRE-CG
REM
REM
REM
REM
REM
REM ./C.cell (11c1c37f851c82e70ff6c80c92926a4b)
REM AIRSS Version 0.9.1 bugfix July 2018 build 013d7b7c2542+ Fri, 06 Jul 2018 19:26:36 +0100
REM compiler GCC version 9.2.1 20190827 (Red Hat 9.2.1-1)
REM options -cpp -mtune=generic -march=x86-64 -g -O0 -fpre-include=/usr/include/finclude/math-vector-fortran.h
REM seed -1416633361 -1897002731 2122747392 2036023314 409105964 -1698861536 -1884287367 -694546317 1418739753 1342117313 253847573 1971135955 -285496200 -1665421490 1533105424 1360430514 -2128118849 -360325472 -343614327 -121563785 1207530210 -1578027632 448164272 -2026215592 -640198905 1626165902 -411721283 -1114980890 1271761977 -474647228 -1418417965 190983103 924721408
REM
CELL 1.54180   50.00000   50.00000   50.00000   90.00000   90.00000   90.00000
LATT -1
SFAC C  
C      1  0.5988120000000  0.3479890000000  0.5220870000000 1.0
C      1  0.5491540000000  0.4734450000000  0.5430390000000 1.0
C      1  0.5114420000000  0.4328750000000  0.4365420000000 1.0
C      1  0.4691400000000  0.4197070000000  0.4879450000000 1.0
C      1  0.5320470000000  0.4500060000000  0.4335080000000 1.0
C      1  0.4883830000000  0.5546740000000  0.3862140000000 1.0
C      1  0.4920530000000  0.4344810000000  0.5319070000000 1.0
C      1  0.4814360000000  0.4650780000000  0.5696230000000 1.0
C      1  0.4838230000000  0.4264850000000  0.4361950000000 1.0
C      1  0.4427940000000  0.5536330000000  0.5749950000000 1.0
C      1  0.5165170000000  0.5726740000000  0.5470720000000 1.0
C      1  0.5498350000000  0.4393320000000  0.5072340000000 1.0
C      1  0.4426380000000  0.4269660000000  0.4980530000000 1.0
C      1  0.4973680000000  0.4626520000000  0.5437010000000 1.0
C      1  0.4051050000000  0.5006660000000  0.5498780000000 1.0
C      1  0.4179190000000  0.4246490000000  0.4318940000000 1.0
C      1  0.6234580000000  0.4873990000000  0.5144380000000 1.0
C      1  0.5279760000000  0.5445910000000  0.5860690000000 1.0
C      1  0.4498480000000  0.4721130000000  0.5071410000000 1.0
C      1  0.5251030000000  0.5666450000000  0.4994550000000 1.0
C      1  0.4098110000000  0.5873770000000  0.5661350000000 1.0
C      1  0.5672090000000  0.5373890000000  0.4429950000000 1.0
C      1  0.5989540000000  0.4250240000000  0.5392420000000 1.0
C      1  0.5171730000000  0.5295310000000  0.6051030000000 1.0
C      1  0.3980630000000  0.4413950000000  0.4418890000000 1.0
C      1  0.5360840000000  0.5290840000000  0.5408610000000 1.0
C      1  0.3962450000000  0.4885120000000  0.5026520000000 1.0
C      1  0.4521650000000  0.4923970000000  0.5255040000000 1.0
C      1  0.4597340000000  0.5466310000000  0.5035030000000 1.0
C      1  0.6101420000000  0.5483620000000  0.5328640000000 1.0
C      1  0.4197420000000  0.4929490000000  0.4611150000000 1.0
C      1  0.4553640000000  0.5964190000000  0.5529780000000 1.0
C      1  0.4572680000000  0.6074210000000  0.4988980000000 1.0
C      1  0.6258460000000  0.5653960000000  0.4885350000000 1.0
C      1  0.5008390000000  0.5103040000000  0.6132970000000 1.0
C      1  0.5213790000000  0.4916980000000  0.4006390000000 1.0
C      1  0.4404750000000  0.4471390000000  0.5169690000000 1.0
C      1  0.4533460000000  0.6062730000000  0.5266410000000 1.0
C      1  0.4090590000000  0.5145180000000  0.4458440000000 1.0
C      1  0.4476700000000  0.4806900000000  0.4102640000000 1.0
C      1  0.6226540000000  0.4999650000000  0.5403810000000 1.0
C      1  0.4666140000000  0.4181660000000  0.4579020000000 1.0
C      1  0.4223630000000  0.4586610000000  0.5637590000000 1.0
C      1  0.4306040000000  0.5827310000000  0.4637220000000 1.0
C      1  0.5823700000000  0.5197770000000  0.4606770000000 1.0
C      1  0.5828420000000  0.5419650000000  0.5340500000000 1.0
C      1  0.4033040000000  0.4485980000000  0.4698260000000 1.0
C      1  0.6100000000000  0.4877830000000  0.5626130000000 1.0
C      1  0.4812900000000  0.4904100000000  0.6113930000000 1.0
C      1  0.4359150000000  0.5790710000000  0.5647190000000 1.0
C      1  0.5089550000000  0.3978040000000  0.5046170000000 1.0
C      1  0.5116780000000  0.4586630000000  0.4801600000000 1.0
C      1  0.5627520000000  0.5226620000000  0.5340470000000 1.0
C      1  0.4694990000000  0.5260710000000  0.4866840000000 1.0
C      1  0.5286490000000  0.3801660000000  0.5063560000000 1.0
C      1  0.5625870000000  0.4129980000000  0.5689860000000 1.0
C      1  0.4667770000000  0.5090540000000  0.5396100000000 1.0
C      1  0.4847700000000  0.5065090000000  0.4291980000000 1.0
C      1  0.4025740000000  0.5079980000000  0.5226420000000 1.0
C      1  0.4966250000000  0.5229640000000  0.4499160000000 1.0
C      1  0.4080140000000  0.5097960000000  0.4180010000000 1.0
C      1  0.5565860000000  0.5588830000000  0.4593960000000 1.0
C      1  0.6083590000000  0.5208710000000  0.4718120000000 1.0
C      1  0.5248400000000  0.5430910000000  0.4180360000000 1.0
C      1  0.5147070000000  0.5111540000000  0.5276640000000 1.0
C      1  0.4885270000000  0.5251330000000  0.5344650000000 1.0
C      1  0.4445330000000  0.4995590000000  0.5801720000000 1.0
C      1  0.4692210000000  0.4852510000000  0.5859440000000 1.0
C      1  0.5511260000000  0.3667220000000  0.5103930000000 1.0
C      1  0.4134650000000  0.5331010000000  0.5152010000000 1.0
C      1  0.5050680000000  0.5931110000000  0.5622850000000 1.0
C      1  0.5724570000000  0.4276080000000  0.5481710000000 1.0
C      1  0.5292130000000  0.5500950000000  0.5587620000000 1.0
C      1  0.5749640000000  0.3565680000000  0.5159820000000 1.0
C      1  0.5424700000000  0.5514110000000  0.4830560000000 1.0
C      1  0.4607890000000  0.4754310000000  0.4809230000000 1.0
C      1  0.4723780000000  0.5715570000000  0.3997200000000 1.0
C      1  0.6175330000000  0.5014390000000  0.4904960000000 1.0
C      1  0.4822210000000  0.6039440000000  0.4859980000000 1.0
C      1  0.4736060000000  0.4761100000000  0.6334160000000 1.0
C      1  0.5615700000000  0.5054900000000  0.4747740000000 1.0
C      1  0.4039460000000  0.4761050000000  0.4782110000000 1.0
C      1  0.5415990000000  0.5223760000000  0.4866360000000 1.0
C      1  0.4690280000000  0.5767770000000  0.4271170000000 1.0
C      1  0.5481140000000  0.5257550000000  0.4240430000000 1.0
C      1  0.4312280000000  0.5494000000000  0.5003760000000 1.0
C      1  0.6182150000000  0.4366440000000  0.5249540000000 1.0
C      1  0.4609330000000  0.4916290000000  0.4333830000000 1.0
C      1  0.4443520000000  0.5825580000000  0.4391660000000 1.0
C      1  0.4567430000000  0.4555350000000  0.4019880000000 1.0
C      1  0.5061290000000  0.5356330000000  0.3963980000000 1.0
C      1  0.5189870000000  0.4814330000000  0.5381400000000 1.0
C      1  0.4214760000000  0.5581470000000  0.4745450000000 1.0
C      1  0.4438750000000  0.5278950000000  0.5822750000000 1.0
C      1  0.4289570000000  0.4441690000000  0.5422120000000 1.0
C      1  0.5560160000000  0.4808240000000  0.4629540000000 1.0
C      1  0.4081220000000  0.5396920000000  0.4580130000000 1.0
C      1  0.5060790000000  0.5674450000000  0.5206980000000 1.0
C      1  0.4825920000000  0.4202080000000  0.5557460000000 1.0
C      1  0.4941670000000  0.5904310000000  0.4660500000000 1.0
C      1  0.4797980000000  0.6010420000000  0.5660760000000 1.0
C      1  0.4905160000000  0.4188840000000  0.5072930000000 1.0
C      1  0.4703890000000  0.4350770000000  0.4126340000000 1.0
C      1  0.6199700000000  0.5673490000000  0.5146870000000 1.0
C      1  0.4766660000000  0.4372080000000  0.5765200000000 1.0
C      1  0.4240780000000  0.4941900000000  0.4028230000000 1.0
C      1  0.4475890000000  0.4871340000000  0.4586240000000 1.0
C      1  0.5069870000000  0.5483760000000  0.4406540000000 1.0
C      1  0.4826030000000  0.5505170000000  0.5215000000000 1.0
C      1  0.4350850000000  0.6038490000000  0.4817800000000 1.0
C      1  0.6221290000000  0.5454790000000  0.4709100000000 1.0
C      1  0.5460010000000  0.4744960000000  0.4375220000000 1.0
C      1  0.4238560000000  0.4284470000000  0.4769350000000 1.0
C      1  0.5873200000000  0.4814120000000  0.5755970000000 1.0
C      1  0.4987100000000  0.5084440000000  0.4034260000000 1.0
C      1  0.4944760000000  0.5180250000000  0.4776080000000 1.0
C      1  0.5562190000000  0.4458150000000  0.5335100000000 1.0
C      1  0.6271560000000  0.5277400000000  0.5417650000000 1.0
C      1  0.4220710000000  0.4865470000000  0.5677380000000 1.0
C      1  0.5654620000000  0.4949770000000  0.5284240000000 1.0
C      1  0.5610320000000  0.4764450000000  0.5709080000000 1.0
C      1  0.5328270000000  0.4449400000000  0.4879320000000 1.0
C      1  0.6266740000000  0.4595230000000  0.5142230000000 1.0
C      1  0.4918100000000  0.5724290000000  0.4444560000000 1.0
C      1  0.5429160000000  0.4964920000000  0.4190670000000 1.0
C      1  0.4375540000000  0.4183930000000  0.4520890000000 1.0
C      1  0.5163700000000  0.5132310000000  0.4962720000000 1.0
C      1  0.4872920000000  0.4679690000000  0.4772780000000 1.0
END
