TITL C-627108-131-264 -18.0298367179128 125000 -103.953359508063 0 0 20 (C1) n - 1
REM
REM in /home/nfs/bkarasulu/CARBON/AIRSS/Generating-Clusters/LCBOP/Only-C1/SD-CG/FIRE-CG
REM
REM
REM
REM
REM
REM ./C.cell (11c1c37f851c82e70ff6c80c92926a4b)
REM AIRSS Version 0.9.1 bugfix July 2018 build 013d7b7c2542+ Fri, 06 Jul 2018 19:26:36 +0100
REM compiler GCC version 9.2.1 20190827 (Red Hat 9.2.1-1)
REM options -cpp -mtune=generic -march=x86-64 -g -O0 -fpre-include=/usr/include/finclude/math-vector-fortran.h
REM seed 1645441502 2009414710 1552165991 1178148268 -1926562394 683546006 1832464952 -522923808 228987982 -780134955 -783841349 -36385464 1861315326 520593490 -1659103362 1825628642 -1260689745 1800981633 2034286480 -767432635 1392393397 -1397725847 2038596567 1793884959 -1284478467 173391920 853947327 437816499 -1485599326 -824170850 -1117387025 -851901244 1512663222
REM
CELL 1.54180   50.00000   50.00000   50.00000   90.00000   90.00000   90.00000
LATT -1
SFAC C  
C      1  0.5422710000000  0.4501540000000  0.5325050000000 1.0
C      1  0.4641090000000  0.4679040000000  0.5365060000000 1.0
C      1  0.4908090000000  0.5088770000000  0.5423370000000 1.0
C      1  0.5048340000000  0.5811380000000  0.4174190000000 1.0
C      1  0.5058960000000  0.4737440000000  0.5104740000000 1.0
C      1  0.4992040000000  0.5341950000000  0.4719170000000 1.0
C      1  0.4957690000000  0.5086120000000  0.4777910000000 1.0
C      1  0.5315520000000  0.4607590000000  0.5085830000000 1.0
C      1  0.5306550000000  0.4525610000000  0.5567580000000 1.0
C      1  0.5055870000000  0.5787940000000  0.4895250000000 1.0
C      1  0.4925520000000  0.4823640000000  0.4867340000000 1.0
C      1  0.5450830000000  0.4588340000000  0.4849260000000 1.0
C      1  0.4400370000000  0.4580660000000  0.5350540000000 1.0
C      1  0.4612970000000  0.4471150000000  0.4604070000000 1.0
C      1  0.5072310000000  0.4657470000000  0.5596110000000 1.0
C      1  0.5029000000000  0.5615580000000  0.4677040000000 1.0
C      1  0.5080520000000  0.5946060000000  0.5100950000000 1.0
C      1  0.4917650000000  0.4788510000000  0.5373960000000 1.0
C      1  0.5039040000000  0.5716810000000  0.4416870000000 1.0
C      1  0.4764930000000  0.4644410000000  0.4725730000000 1.0
END
