TITL C-627106-156-552 -5.59937310954196e-07 125000 -1006.14435414243 0 0 162 (C1) n - 1
REM
REM in /home/nfs/bkarasulu/CARBON/AIRSS/Generating-Clusters/LCBOP/Only-C1/SD-CG/FIRE-CG
REM
REM
REM
REM
REM
REM ./C.cell (11c1c37f851c82e70ff6c80c92926a4b)
REM AIRSS Version 0.9.1 bugfix July 2018 build 013d7b7c2542+ Fri, 06 Jul 2018 19:26:36 +0100
REM compiler GCC version 9.2.1 20190827 (Red Hat 9.2.1-1)
REM options -cpp -mtune=generic -march=x86-64 -g -O0 -fpre-include=/usr/include/finclude/math-vector-fortran.h
REM seed 1462999092 50528447 869835388 1951712162 1959386207 -571938397 468220402 1323304663 786006512 802171380 -298286792 47912471 32252432 -291999477 -1892458502 -2014956282 1852404567 -693439680 -2003818378 -1665928747 1309044885 444777519 2006072151 444453829 -623697362 -1492472827 -1642081534 40308774 -1354447958 -1544619165 -1874452145 -1955768055 294666307
REM
CELL 1.54180   50.00000   50.00000   50.00000   90.00000   90.00000   90.00000
LATT -1
SFAC C  
C      1  0.4709260000000  0.5897040000000  0.5632950000000 1.0
C      1  0.4512360000000  0.4468380000000  0.4207990000000 1.0
C      1  0.6117330000000  0.4878720000000  0.4428250000000 1.0
C      1  0.5400490000000  0.3865060000000  0.5261730000000 1.0
C      1  0.3940560000000  0.5162500000000  0.4923740000000 1.0
C      1  0.6135940000000  0.4775560000000  0.5341780000000 1.0
C      1  0.4805740000000  0.4348900000000  0.5865670000000 1.0
C      1  0.4705620000000  0.5715290000000  0.5872090000000 1.0
C      1  0.4540180000000  0.4983700000000  0.4001160000000 1.0
C      1  0.3879810000000  0.4769380000000  0.5273410000000 1.0
C      1  0.4781140000000  0.4633950000000  0.5902310000000 1.0
C      1  0.4912730000000  0.5330260000000  0.3961830000000 1.0
C      1  0.4668520000000  0.5925530000000  0.4574110000000 1.0
C      1  0.5732440000000  0.4796270000000  0.4039690000000 1.0
C      1  0.4633940000000  0.5259930000000  0.3995970000000 1.0
C      1  0.5328050000000  0.5214670000000  0.4257450000000 1.0
C      1  0.5500950000000  0.5333290000000  0.5710480000000 1.0
C      1  0.4480310000000  0.4675750000000  0.5275570000000 1.0
C      1  0.5402260000000  0.5713660000000  0.4968880000000 1.0
C      1  0.4929740000000  0.5954150000000  0.5461020000000 1.0
C      1  0.5428190000000  0.6068720000000  0.4108460000000 1.0
C      1  0.4846440000000  0.5239270000000  0.5503240000000 1.0
C      1  0.5057190000000  0.4974290000000  0.4655070000000 1.0
C      1  0.4617940000000  0.3677150000000  0.5087630000000 1.0
C      1  0.4932910000000  0.4465430000000  0.5197540000000 1.0
C      1  0.5778200000000  0.5354620000000  0.5318340000000 1.0
C      1  0.4829210000000  0.4954700000000  0.5085340000000 1.0
C      1  0.5567550000000  0.4093030000000  0.4616510000000 1.0
C      1  0.5955730000000  0.4852470000000  0.4187660000000 1.0
C      1  0.3893760000000  0.5632050000000  0.5083410000000 1.0
C      1  0.6169470000000  0.5096500000000  0.5736240000000 1.0
C      1  0.5328600000000  0.5483450000000  0.4166190000000 1.0
C      1  0.4796450000000  0.4759740000000  0.5640400000000 1.0
C      1  0.5318900000000  0.5051580000000  0.4036760000000 1.0
C      1  0.4728130000000  0.4789900000000  0.6125950000000 1.0
C      1  0.4754400000000  0.5895550000000  0.4322620000000 1.0
C      1  0.4053300000000  0.4588160000000  0.4419060000000 1.0
C      1  0.5517330000000  0.4459840000000  0.5558010000000 1.0
C      1  0.4674480000000  0.5042440000000  0.6193850000000 1.0
C      1  0.3973400000000  0.4848920000000  0.4529590000000 1.0
C      1  0.4193770000000  0.4368510000000  0.5544840000000 1.0
C      1  0.4640090000000  0.4500710000000  0.3955580000000 1.0
C      1  0.3989800000000  0.6090430000000  0.5317460000000 1.0
C      1  0.5801900000000  0.5624580000000  0.5964790000000 1.0
C      1  0.4557790000000  0.5253730000000  0.5516920000000 1.0
C      1  0.5059760000000  0.5567500000000  0.4088830000000 1.0
C      1  0.5305120000000  0.4159110000000  0.4521860000000 1.0
C      1  0.5268270000000  0.4426730000000  0.4442820000000 1.0
C      1  0.4444740000000  0.3735980000000  0.5280770000000 1.0
C      1  0.5243940000000  0.6129270000000  0.4807570000000 1.0
C      1  0.4832290000000  0.5502960000000  0.6028600000000 1.0
C      1  0.5033870000000  0.4184350000000  0.5252290000000 1.0
C      1  0.5198200000000  0.4621440000000  0.5241730000000 1.0
C      1  0.3895510000000  0.4892130000000  0.4807560000000 1.0
C      1  0.3858160000000  0.5843080000000  0.5268230000000 1.0
C      1  0.4268160000000  0.6090940000000  0.5376620000000 1.0
C      1  0.5377790000000  0.4210000000000  0.5613910000000 1.0
C      1  0.5598460000000  0.5301440000000  0.4758420000000 1.0
C      1  0.5295860000000  0.5074540000000  0.5089340000000 1.0
C      1  0.4805390000000  0.4856020000000  0.4600120000000 1.0
C      1  0.5543180000000  0.5560600000000  0.5882620000000 1.0
C      1  0.5634990000000  0.5001480000000  0.4774100000000 1.0
C      1  0.3922100000000  0.5280550000000  0.5411930000000 1.0
C      1  0.5062120000000  0.5007010000000  0.4945000000000 1.0
C      1  0.4718050000000  0.5523490000000  0.4839930000000 1.0
C      1  0.3919210000000  0.4354100000000  0.4455090000000 1.0
C      1  0.5531900000000  0.3796890000000  0.5039980000000 1.0
C      1  0.5826880000000  0.4562020000000  0.4603600000000 1.0
C      1  0.4421700000000  0.5007730000000  0.4857200000000 1.0
C      1  0.4316450000000  0.5797330000000  0.4862320000000 1.0
C      1  0.6024350000000  0.4507780000000  0.5327400000000 1.0
C      1  0.5104750000000  0.5454490000000  0.6073050000000 1.0
C      1  0.5004330000000  0.5381740000000  0.5293580000000 1.0
C      1  0.4957940000000  0.4985880000000  0.5598150000000 1.0
C      1  0.5073490000000  0.5097870000000  0.3889450000000 1.0
C      1  0.5283150000000  0.5282100000000  0.5280810000000 1.0
C      1  0.6201860000000  0.4635670000000  0.4882650000000 1.0
C      1  0.5259900000000  0.4072280000000  0.5387530000000 1.0
C      1  0.6094300000000  0.5021950000000  0.5480130000000 1.0
C      1  0.4411100000000  0.5654620000000  0.5918430000000 1.0
C      1  0.4333490000000  0.5228410000000  0.5703210000000 1.0
C      1  0.4682580000000  0.4289580000000  0.3780230000000 1.0
C      1  0.5309920000000  0.5643540000000  0.6021880000000 1.0
C      1  0.3868630000000  0.5349790000000  0.5138970000000 1.0
C      1  0.4269400000000  0.3899220000000  0.5397700000000 1.0
C      1  0.4501710000000  0.5453900000000  0.4411400000000 1.0
C      1  0.4983700000000  0.4827770000000  0.3820660000000 1.0
C      1  0.5029410000000  0.4204790000000  0.5949190000000 1.0
C      1  0.3850300000000  0.6325490000000  0.5307660000000 1.0
C      1  0.4698110000000  0.4306910000000  0.5598580000000 1.0
C      1  0.4264940000000  0.4639660000000  0.5486080000000 1.0
C      1  0.4732270000000  0.4092150000000  0.3617560000000 1.0
C      1  0.6340950000000  0.5794860000000  0.4783050000000 1.0
C      1  0.6172110000000  0.5290310000000  0.5918910000000 1.0
C      1  0.5623620000000  0.4766460000000  0.4592230000000 1.0
C      1  0.6214550000000  0.4860510000000  0.5063260000000 1.0
C      1  0.5424430000000  0.4635710000000  0.5059610000000 1.0
C      1  0.6198950000000  0.5124730000000  0.4539800000000 1.0
C      1  0.4946510000000  0.5493360000000  0.5014410000000 1.0
C      1  0.5236500000000  0.4668300000000  0.3828610000000 1.0
C      1  0.4062390000000  0.4836920000000  0.5486190000000 1.0
C      1  0.5195100000000  0.5533860000000  0.4867560000000 1.0
C      1  0.4729010000000  0.4557900000000  0.5419220000000 1.0
C      1  0.4771670000000  0.3713620000000  0.4873920000000 1.0
C      1  0.4752720000000  0.4575160000000  0.4657480000000 1.0
C      1  0.4715690000000  0.4770350000000  0.3897640000000 1.0
C      1  0.5603600000000  0.5878110000000  0.4034180000000 1.0
C      1  0.4089930000000  0.5112310000000  0.5572930000000 1.0
C      1  0.6140470000000  0.4413620000000  0.5067670000000 1.0
C      1  0.4481220000000  0.5440370000000  0.4145940000000 1.0
C      1  0.5503100000000  0.4904690000000  0.5011680000000 1.0
C      1  0.5286040000000  0.5965900000000  0.5036640000000 1.0
C      1  0.5518870000000  0.5346780000000  0.5429090000000 1.0
C      1  0.4997870000000  0.5833810000000  0.4197460000000 1.0
C      1  0.6040340000000  0.5508920000000  0.5996510000000 1.0
C      1  0.5235970000000  0.4920950000000  0.5645760000000 1.0
C      1  0.6210520000000  0.5271540000000  0.4782370000000 1.0
C      1  0.4586080000000  0.5776610000000  0.4797690000000 1.0
C      1  0.4212910000000  0.5195730000000  0.4855680000000 1.0
C      1  0.5356190000000  0.5109850000000  0.5821170000000 1.0
C      1  0.4385310000000  0.5368210000000  0.5946180000000 1.0
C      1  0.4644210000000  0.5338840000000  0.4625440000000 1.0
C      1  0.6151460000000  0.5140490000000  0.5026470000000 1.0
C      1  0.5458090000000  0.4812500000000  0.3961020000000 1.0
C      1  0.4708220000000  0.4478800000000  0.4922910000000 1.0
C      1  0.5746560000000  0.4446850000000  0.5365560000000 1.0
C      1  0.5385580000000  0.4665670000000  0.4477070000000 1.0
C      1  0.5122330000000  0.5988600000000  0.5272500000000 1.0
C      1  0.4144280000000  0.4464460000000  0.4988820000000 1.0
C      1  0.4267040000000  0.5853320000000  0.5783730000000 1.0
C      1  0.5652420000000  0.5561240000000  0.4898710000000 1.0
C      1  0.4665310000000  0.4420100000000  0.4438520000000 1.0
C      1  0.6020130000000  0.5220290000000  0.5276560000000 1.0
C      1  0.4104920000000  0.5034390000000  0.4336840000000 1.0
C      1  0.5317210000000  0.5350650000000  0.4690230000000 1.0
C      1  0.6087740000000  0.4665910000000  0.4623560000000 1.0
C      1  0.5617040000000  0.4439590000000  0.5107030000000 1.0
C      1  0.4631440000000  0.5297080000000  0.6090040000000 1.0
C      1  0.4144320000000  0.4147690000000  0.5372460000000 1.0
C      1  0.4920970000000  0.3824470000000  0.4684150000000 1.0
C      1  0.4426800000000  0.5980790000000  0.5578700000000 1.0
C      1  0.5093470000000  0.3980310000000  0.4555490000000 1.0
C      1  0.5559580000000  0.5616950000000  0.4080930000000 1.0
C      1  0.6283860000000  0.5540610000000  0.4779810000000 1.0
C      1  0.5322680000000  0.4679980000000  0.5511680000000 1.0
C      1  0.4535560000000  0.4945170000000  0.5129740000000 1.0
C      1  0.5766050000000  0.4289630000000  0.4586670000000 1.0
C      1  0.4055340000000  0.4223330000000  0.5112380000000 1.0
C      1  0.5213290000000  0.5164300000000  0.4511520000000 1.0
C      1  0.5464170000000  0.4016900000000  0.6051840000000 1.0
C      1  0.4307320000000  0.4908150000000  0.4163140000000 1.0
C      1  0.5204800000000  0.5186370000000  0.6051700000000 1.0
C      1  0.4451580000000  0.5186160000000  0.5269530000000 1.0
C      1  0.4278110000000  0.4623380000000  0.4241200000000 1.0
C      1  0.4432800000000  0.4503400000000  0.5024310000000 1.0
C      1  0.3949810000000  0.4687170000000  0.5004900000000 1.0
C      1  0.5294490000000  0.4140640000000  0.5877400000000 1.0
C      1  0.5205260000000  0.6025250000000  0.4275230000000 1.0
C      1  0.5599800000000  0.3880680000000  0.4796020000000 1.0
C      1  0.4609670000000  0.5055810000000  0.4655190000000 1.0
C      1  0.4067040000000  0.5706710000000  0.4875490000000 1.0
C      1  0.5212550000000  0.6127920000000  0.4540370000000 1.0
END
