TITL C-627112-676-875 -8.6541503342798e-07 125000 -1020.70125076409 0 0 168 (C1) n - 1
REM
REM in /home/nfs/bkarasulu/CARBON/AIRSS/Generating-Clusters/LCBOP/Only-C1/SD-CG/FIRE-CG
REM
REM
REM
REM
REM
REM ./C.cell (11c1c37f851c82e70ff6c80c92926a4b)
REM AIRSS Version 0.9.1 bugfix July 2018 build 013d7b7c2542+ Fri, 06 Jul 2018 19:26:36 +0100
REM compiler GCC version 9.2.1 20190827 (Red Hat 9.2.1-1)
REM options -cpp -mtune=generic -march=x86-64 -g -O0 -fpre-include=/usr/include/finclude/math-vector-fortran.h
REM seed -759618141 -1533757486 -1343446084 1665477647 1495787163 -1610708684 -2029264601 -1047176540 1958803682 68257591 -539859962 291123974 -1295399159 1589635580 -1269170178 -1682941894 -657937773 -759435143 -246888974 1608763394 -661078395 -14539428 -1058613967 1003008931 -819250416 1309952965 1002184045 -747926932 236941872 206831048 -81167040 1216441389 -1823095861
REM
CELL 1.54180   50.00000   50.00000   50.00000   90.00000   90.00000   90.00000
LATT -1
SFAC C  
C      1  0.5337630000000  0.6334850000000  0.4955510000000 1.0
C      1  0.6211710000000  0.4293850000000  0.3798590000000 1.0
C      1  0.4496670000000  0.5562280000000  0.4516890000000 1.0
C      1  0.5923530000000  0.5426150000000  0.5179090000000 1.0
C      1  0.6046630000000  0.5781330000000  0.4876690000000 1.0
C      1  0.5490520000000  0.5014480000000  0.4752510000000 1.0
C      1  0.4857240000000  0.5796910000000  0.5783870000000 1.0
C      1  0.5338820000000  0.5418550000000  0.4278860000000 1.0
C      1  0.4675140000000  0.6006620000000  0.5860250000000 1.0
C      1  0.5422370000000  0.4485420000000  0.4308950000000 1.0
C      1  0.5667070000000  0.5846220000000  0.5182670000000 1.0
C      1  0.3645710000000  0.6096820000000  0.5568610000000 1.0
C      1  0.4512530000000  0.4706490000000  0.6200430000000 1.0
C      1  0.5726010000000  0.5696890000000  0.4225210000000 1.0
C      1  0.5170480000000  0.5207100000000  0.4405710000000 1.0
C      1  0.6022820000000  0.5147980000000  0.5603060000000 1.0
C      1  0.4384470000000  0.4111510000000  0.5512640000000 1.0
C      1  0.5312930000000  0.5349710000000  0.3807350000000 1.0
C      1  0.5897320000000  0.4897470000000  0.5679880000000 1.0
C      1  0.5056660000000  0.6290840000000  0.4999450000000 1.0
C      1  0.4797970000000  0.5533250000000  0.5830990000000 1.0
C      1  0.5437990000000  0.4584230000000  0.5294040000000 1.0
C      1  0.5998100000000  0.4663470000000  0.5530570000000 1.0
C      1  0.3806180000000  0.4579260000000  0.4714090000000 1.0
C      1  0.4183850000000  0.5683780000000  0.4917520000000 1.0
C      1  0.4713890000000  0.4800980000000  0.4005910000000 1.0
C      1  0.4902880000000  0.4698550000000  0.3821970000000 1.0
C      1  0.5118610000000  0.4543970000000  0.3890220000000 1.0
C      1  0.5489800000000  0.4877040000000  0.6084260000000 1.0
C      1  0.5641530000000  0.4902840000000  0.5831590000000 1.0
C      1  0.4279300000000  0.4831130000000  0.4191660000000 1.0
C      1  0.4863480000000  0.5070020000000  0.5867950000000 1.0
C      1  0.4186920000000  0.4285160000000  0.4621810000000 1.0
C      1  0.4767770000000  0.4721090000000  0.4282550000000 1.0
C      1  0.4956210000000  0.4925230000000  0.6095730000000 1.0
C      1  0.4508190000000  0.5245810000000  0.4071030000000 1.0
C      1  0.4717090000000  0.4476940000000  0.5846950000000 1.0
C      1  0.4986780000000  0.4086590000000  0.5848340000000 1.0
C      1  0.5834530000000  0.4577680000000  0.5083260000000 1.0
C      1  0.5220190000000  0.5707070000000  0.4687860000000 1.0
C      1  0.5325470000000  0.5830170000000  0.5722920000000 1.0
C      1  0.5819580000000  0.5271310000000  0.4428120000000 1.0
C      1  0.5956200000000  0.5266250000000  0.4940590000000 1.0
C      1  0.5397040000000  0.4598270000000  0.5571860000000 1.0
C      1  0.4635380000000  0.4013420000000  0.5428680000000 1.0
C      1  0.5173150000000  0.4470620000000  0.4160340000000 1.0
C      1  0.4599140000000  0.5285010000000  0.5479270000000 1.0
C      1  0.4625350000000  0.4992140000000  0.4953700000000 1.0
C      1  0.5431540000000  0.6163380000000  0.4758570000000 1.0
C      1  0.4608160000000  0.6124370000000  0.5056010000000 1.0
C      1  0.5269810000000  0.4135090000000  0.5741550000000 1.0
C      1  0.5892520000000  0.5361200000000  0.5459320000000 1.0
C      1  0.4481930000000  0.4042730000000  0.4000050000000 1.0
C      1  0.5946790000000  0.4218320000000  0.4467830000000 1.0
C      1  0.5631730000000  0.4150260000000  0.5039190000000 1.0
C      1  0.5469660000000  0.5580510000000  0.5707800000000 1.0
C      1  0.5175010000000  0.4506720000000  0.6002520000000 1.0
C      1  0.5600160000000  0.4411610000000  0.5146340000000 1.0
C      1  0.5398280000000  0.4546610000000  0.4589240000000 1.0
C      1  0.4443700000000  0.5629960000000  0.4794120000000 1.0
C      1  0.4975070000000  0.6127610000000  0.4753940000000 1.0
C      1  0.5700250000000  0.4843200000000  0.4161670000000 1.0
C      1  0.5343700000000  0.4410340000000  0.5781250000000 1.0
C      1  0.5000400000000  0.3669730000000  0.5250680000000 1.0
C      1  0.4890800000000  0.6144960000000  0.5465110000000 1.0
C      1  0.5144930000000  0.5766960000000  0.5300660000000 1.0
C      1  0.3896620000000  0.4983760000000  0.4951340000000 1.0
C      1  0.4514560000000  0.5347490000000  0.5215760000000 1.0
C      1  0.4856260000000  0.6222950000000  0.5194480000000 1.0
C      1  0.4247340000000  0.4449300000000  0.5833540000000 1.0
C      1  0.5061250000000  0.5892220000000  0.5568110000000 1.0
C      1  0.4214040000000  0.4326050000000  0.5578860000000 1.0
C      1  0.5881280000000  0.5011690000000  0.4312970000000 1.0
C      1  0.4035560000000  0.5493790000000  0.5487360000000 1.0
C      1  0.6091470000000  0.4874630000000  0.4444950000000 1.0
C      1  0.4932150000000  0.4493550000000  0.4321760000000 1.0
C      1  0.4028580000000  0.4964580000000  0.5541650000000 1.0
C      1  0.5113520000000  0.4258040000000  0.5332590000000 1.0
C      1  0.5239960000000  0.4037000000000  0.5471690000000 1.0
C      1  0.5032780000000  0.5541700000000  0.5178380000000 1.0
C      1  0.5096670000000  0.4620390000000  0.4940520000000 1.0
C      1  0.4365700000000  0.4987070000000  0.4441080000000 1.0
C      1  0.5086850000000  0.5745820000000  0.4000040000000 1.0
C      1  0.6104000000000  0.5617670000000  0.4651830000000 1.0
C      1  0.4982320000000  0.5270490000000  0.4627200000000 1.0
C      1  0.4003460000000  0.4483690000000  0.4512640000000 1.0
C      1  0.5276000000000  0.5100600000000  0.5566640000000 1.0
C      1  0.4927910000000  0.3852710000000  0.5044600000000 1.0
C      1  0.5733450000000  0.5539700000000  0.5616440000000 1.0
C      1  0.4562300000000  0.6045640000000  0.6103230000000 1.0
C      1  0.4644410000000  0.6165140000000  0.5626360000000 1.0
C      1  0.4379790000000  0.6056270000000  0.5212270000000 1.0
C      1  0.3993040000000  0.4334950000000  0.5106610000000 1.0
C      1  0.6285720000000  0.5185720000000  0.5676180000000 1.0
C      1  0.5625360000000  0.5455840000000  0.4317130000000 1.0
C      1  0.5065060000000  0.3802960000000  0.5488250000000 1.0
C      1  0.5424620000000  0.5537400000000  0.4787020000000 1.0
C      1  0.5318600000000  0.5342280000000  0.5705840000000 1.0
C      1  0.4915140000000  0.4654760000000  0.5142080000000 1.0
C      1  0.4984270000000  0.5560560000000  0.4633430000000 1.0
C      1  0.6088440000000  0.4231500000000  0.5202260000000 1.0
C      1  0.4105820000000  0.5175260000000  0.4981380000000 1.0
C      1  0.3804020000000  0.4873590000000  0.4696580000000 1.0
C      1  0.4681760000000  0.4244540000000  0.4672010000000 1.0
C      1  0.5208830000000  0.4776980000000  0.6095470000000 1.0
C      1  0.4524730000000  0.5437180000000  0.4271500000000 1.0
C      1  0.4124360000000  0.4198430000000  0.4893560000000 1.0
C      1  0.5918450000000  0.4108560000000  0.4990540000000 1.0
C      1  0.5403100000000  0.5851610000000  0.5217090000000 1.0
C      1  0.4046500000000  0.5404260000000  0.4418750000000 1.0
C      1  0.5971390000000  0.5361300000000  0.4664780000000 1.0
C      1  0.5242640000000  0.4975440000000  0.4259090000000 1.0
C      1  0.5154720000000  0.4472520000000  0.4716880000000 1.0
C      1  0.4028940000000  0.5233800000000  0.5556580000000 1.0
C      1  0.5011510000000  0.5263150000000  0.5126150000000 1.0
C      1  0.6280090000000  0.5687190000000  0.4456050000000 1.0
C      1  0.5156090000000  0.3936730000000  0.4896380000000 1.0
C      1  0.5897150000000  0.5707350000000  0.5106200000000 1.0
C      1  0.3821920000000  0.5928860000000  0.5475580000000 1.0
C      1  0.5573820000000  0.4745730000000  0.4712490000000 1.0
C      1  0.4473250000000  0.4542180000000  0.5973740000000 1.0
C      1  0.4459270000000  0.4112250000000  0.4250180000000 1.0
C      1  0.4656580000000  0.4727820000000  0.5054810000000 1.0
C      1  0.4017470000000  0.5754870000000  0.5375750000000 1.0
C      1  0.4939670000000  0.5960880000000  0.3999940000000 1.0
C      1  0.4507350000000  0.4489680000000  0.5036780000000 1.0
C      1  0.4709510000000  0.4029500000000  0.5133970000000 1.0
C      1  0.5423860000000  0.5103970000000  0.3829470000000 1.0
C      1  0.3980270000000  0.4733910000000  0.5388140000000 1.0
C      1  0.4837080000000  0.3929700000000  0.5632370000000 1.0
C      1  0.3918760000000  0.4945140000000  0.4451010000000 1.0
C      1  0.4123860000000  0.5148650000000  0.4471220000000 1.0
C      1  0.5423970000000  0.4873050000000  0.5645810000000 1.0
C      1  0.4740520000000  0.4841380000000  0.6264080000000 1.0
C      1  0.4389140000000  0.5136870000000  0.5051760000000 1.0
C      1  0.4403330000000  0.6160930000000  0.5477520000000 1.0
C      1  0.4471720000000  0.4956340000000  0.4005130000000 1.0
C      1  0.5894630000000  0.4366460000000  0.4229990000000 1.0
C      1  0.5111460000000  0.5107920000000  0.5338580000000 1.0
C      1  0.4185210000000  0.5849130000000  0.5157430000000 1.0
C      1  0.4694730000000  0.6082840000000  0.4785030000000 1.0
C      1  0.5681200000000  0.4556250000000  0.4207920000000 1.0
C      1  0.6026200000000  0.4507480000000  0.5288270000000 1.0
C      1  0.4773450000000  0.4535140000000  0.5580150000000 1.0
C      1  0.5455740000000  0.4955070000000  0.4066580000000 1.0
C      1  0.4876700000000  0.5153370000000  0.4884440000000 1.0
C      1  0.5474730000000  0.5274260000000  0.4818950000000 1.0
C      1  0.5833080000000  0.4684860000000  0.4825400000000 1.0
C      1  0.3839910000000  0.4778290000000  0.5142460000000 1.0
C      1  0.4927110000000  0.4365720000000  0.4574350000000 1.0
C      1  0.5239570000000  0.5515490000000  0.4024850000000 1.0
C      1  0.4939240000000  0.4482800000000  0.5362030000000 1.0
C      1  0.4028630000000  0.5446590000000  0.4932030000000 1.0
C      1  0.5415760000000  0.4831800000000  0.5173030000000 1.0
C      1  0.5414820000000  0.4007690000000  0.4929080000000 1.0
C      1  0.5988000000000  0.4117000000000  0.4714230000000 1.0
C      1  0.4627300000000  0.4875110000000  0.4480620000000 1.0
C      1  0.5218390000000  0.5987030000000  0.4669980000000 1.0
C      1  0.4741930000000  0.5281400000000  0.5725340000000 1.0
C      1  0.3806130000000  0.4526240000000  0.4995720000000 1.0
C      1  0.6058690000000  0.4323920000000  0.4007380000000 1.0
C      1  0.6064210000000  0.4740920000000  0.4676840000000 1.0
C      1  0.4066730000000  0.4451240000000  0.5372700000000 1.0
C      1  0.4929290000000  0.4342500000000  0.5976280000000 1.0
C      1  0.4040500000000  0.4703140000000  0.4307580000000 1.0
C      1  0.4624250000000  0.4240350000000  0.4955290000000 1.0
C      1  0.4443080000000  0.4214440000000  0.4509280000000 1.0
C      1  0.4596110000000  0.5551680000000  0.5028470000000 1.0
END
