TITL C-627111-6168-438 -26220.2514286873 125000 -560.140539017201 0 0 94 (C1) n - 1
REM
REM in /home/nfs/bkarasulu/CARBON/AIRSS/Generating-Clusters/LCBOP/Only-C1/SD-CG/FIRE-CG
REM
REM
REM
REM
REM
REM ./C.cell (11c1c37f851c82e70ff6c80c92926a4b)
REM AIRSS Version 0.9.1 bugfix July 2018 build 013d7b7c2542+ Fri, 06 Jul 2018 19:26:36 +0100
REM compiler GCC version 9.2.1 20190827 (Red Hat 9.2.1-1)
REM options -cpp -mtune=generic -march=x86-64 -g -O0 -fpre-include=/usr/include/finclude/math-vector-fortran.h
REM seed -1448796554 526219827 860070721 -869312451 781765505 -894578567 -1794561175 1927017945 493421244 1657566794 -1064288104 1240583303 -1034787170 -351215417 -582779422 1967523265 790683680 -2037996468 491148737 896283448 -1349760758 1907535073 1764320293 -1087309034 67091528 289645987 1061294820 1242148026 1229759705 1829335173 -1665267012 490742135 257819350
REM
CELL 1.54180   50.00000   50.00000   50.00000   90.00000   90.00000   90.00000
LATT -1
SFAC C  
C      1  0.5326730000000  0.3680840000000  0.6693600000000 1.0
C      1  0.4426860000000  0.4379460000000  0.5195550000000 1.0
C      1  0.4732470000000  0.4589320000000  0.5809510000000 1.0
C      1  0.4532460000000  0.5701000000000  0.4963570000000 1.0
C      1  0.5165950000000  0.5139200000000  0.5345070000000 1.0
C      1  0.5969770000000  0.4898430000000  0.4581900000000 1.0
C      1  0.4891070000000  0.4666630000000  0.5097380000000 1.0
C      1  0.4571280000000  0.4967890000000  0.5304040000000 1.0
C      1  0.5474320000000  0.5281940000000  0.4059400000000 1.0
C      1  0.4218870000000  0.4855980000000  0.4813830000000 1.0
C      1  0.5020000000000  0.4781680000000  0.4693890000000 1.0
C      1  0.4730720000000  0.5710610000000  0.5575800000000 1.0
C      1  0.5587190000000  0.5035230000000  0.4072520000000 1.0
C      1  0.5194790000000  0.5467170000000  0.5696800000000 1.0
C      1  0.5608490000000  0.4472840000000  0.4970660000000 1.0
C      1  0.4887840000000  0.4386730000000  0.5019360000000 1.0
C      1  0.4985830000000  0.5649330000000  0.5666300000000 1.0
C      1  0.5266120000000  0.4971960000000  0.5140020000000 1.0
C      1  0.4541340000000  0.4276580000000  0.5437800000000 1.0
C      1  0.4004970000000  0.5255200000000  0.5261760000000 1.0
C      1  0.5412250000000  0.4485520000000  0.5633720000000 1.0
C      1  0.4798620000000  0.6162060000000  0.4882400000000 1.0
C      1  0.5389500000000  0.6641260000000  0.4671260000000 1.0
C      1  0.5184500000000  0.4910420000000  0.4476220000000 1.0
C      1  0.4646210000000  0.4801720000000  0.5077330000000 1.0
C      1  0.5324100000000  0.3841550000000  0.6488340000000 1.0
C      1  0.5094170000000  0.4817990000000  0.4971290000000 1.0
C      1  0.4912040000000  0.5303920000000  0.5317330000000 1.0
C      1  0.4595730000000  0.5232290000000  0.4904550000000 1.0
C      1  0.4959270000000  0.4976570000000  0.4272890000000 1.0
C      1  0.5654290000000  0.4485210000000  0.4687800000000 1.0
C      1  0.4509570000000  0.4956610000000  0.4860050000000 1.0
C      1  0.5559700000000  0.5248100000000  0.4695500000000 1.0
C      1  0.5146230000000  0.4296150000000  0.4925760000000 1.0
C      1  0.4698420000000  0.5089580000000  0.5817670000000 1.0
C      1  0.4380040000000  0.4806150000000  0.5436040000000 1.0
C      1  0.4737170000000  0.4804350000000  0.4329930000000 1.0
C      1  0.5542400000000  0.4921250000000  0.5143900000000 1.0
C      1  0.5370750000000  0.4702370000000  0.4357770000000 1.0
C      1  0.4255810000000  0.4610290000000  0.5253360000000 1.0
C      1  0.5110210000000  0.4875880000000  0.5925290000000 1.0
C      1  0.4477610000000  0.5162990000000  0.5960750000000 1.0
C      1  0.4835930000000  0.4844190000000  0.5870880000000 1.0
C      1  0.5023830000000  0.5506160000000  0.5103410000000 1.0
C      1  0.4544540000000  0.4504680000000  0.4701060000000 1.0
C      1  0.4069720000000  0.5379920000000  0.4804630000000 1.0
C      1  0.5364140000000  0.4377370000000  0.5376860000000 1.0
C      1  0.4128480000000  0.5449470000000  0.5091310000000 1.0
C      1  0.4657250000000  0.5220930000000  0.5190820000000 1.0
C      1  0.5356160000000  0.5752600000000  0.4404930000000 1.0
C      1  0.5124640000000  0.5388210000000  0.4603280000000 1.0
C      1  0.4806090000000  0.5256560000000  0.5615370000000 1.0
C      1  0.6468680000000  0.5004170000000  0.4406650000000 1.0
C      1  0.5324400000000  0.4959140000000  0.5761290000000 1.0
C      1  0.4358900000000  0.5624260000000  0.5182840000000 1.0
C      1  0.5325930000000  0.4003900000000  0.6278820000000 1.0
C      1  0.4096510000000  0.4491940000000  0.4482800000000 1.0
C      1  0.5008930000000  0.5040530000000  0.3803270000000 1.0
C      1  0.5418090000000  0.4472540000000  0.4525930000000 1.0
C      1  0.5339700000000  0.4162990000000  0.6067350000000 1.0
C      1  0.5013470000000  0.5159100000000  0.4061430000000 1.0
C      1  0.5874900000000  0.4633850000000  0.4597430000000 1.0
C      1  0.3954650000000  0.4991290000000  0.5218560000000 1.0
C      1  0.5796800000000  0.5106870000000  0.4657770000000 1.0
C      1  0.5144110000000  0.4817050000000  0.3729510000000 1.0
C      1  0.4576640000000  0.5486240000000  0.4777760000000 1.0
C      1  0.4985580000000  0.6338460000000  0.4817960000000 1.0
C      1  0.5778680000000  0.4802290000000  0.5690760000000 1.0
C      1  0.5276770000000  0.5198150000000  0.5606750000000 1.0
C      1  0.5187250000000  0.6494280000000  0.4745100000000 1.0
C      1  0.5369940000000  0.4317990000000  0.5854730000000 1.0
C      1  0.5696220000000  0.4704580000000  0.5107390000000 1.0
C      1  0.5472870000000  0.4774340000000  0.4098940000000 1.0
C      1  0.4651170000000  0.4381650000000  0.5660590000000 1.0
C      1  0.4091610000000  0.4776540000000  0.5084210000000 1.0
C      1  0.4158650000000  0.5535090000000  0.4583260000000 1.0
C      1  0.5536190000000  0.5518790000000  0.4787220000000 1.0
C      1  0.4427900000000  0.5527720000000  0.4540170000000 1.0
C      1  0.4763380000000  0.4662460000000  0.4582090000000 1.0
C      1  0.4276910000000  0.4605560000000  0.4652220000000 1.0
C      1  0.5139610000000  0.5507040000000  0.4855470000000 1.0
C      1  0.5305480000000  0.5155410000000  0.4591880000000 1.0
C      1  0.5509050000000  0.4752620000000  0.5686470000000 1.0
C      1  0.4056510000000  0.5098810000000  0.4737310000000 1.0
C      1  0.4601110000000  0.4356770000000  0.4951440000000 1.0
C      1  0.5175280000000  0.5535830000000  0.4354600000000 1.0
C      1  0.5379170000000  0.4344890000000  0.5096030000000 1.0
C      1  0.5213100000000  0.4309280000000  0.4644810000000 1.0
C      1  0.5529900000000  0.5737080000000  0.4616960000000 1.0
C      1  0.6228050000000  0.4952540000000  0.4492390000000 1.0
C      1  0.5207570000000  0.5364700000000  0.4123860000000 1.0
C      1  0.5337840000000  0.4684470000000  0.3865480000000 1.0
C      1  0.4642360000000  0.5954100000000  0.4932370000000 1.0
C      1  0.4493690000000  0.5674380000000  0.5437640000000 1.0
END
