TITL C-627107-135-163 -197.73181840033 125000 -909.597163786508 0 0 149 (C1) n - 1
REM
REM in /home/nfs/bkarasulu/CARBON/AIRSS/Generating-Clusters/LCBOP/Only-C1/SD-CG/FIRE-CG
REM
REM
REM
REM
REM
REM ./C.cell (11c1c37f851c82e70ff6c80c92926a4b)
REM AIRSS Version 0.9.1 bugfix July 2018 build 013d7b7c2542+ Fri, 06 Jul 2018 19:26:36 +0100
REM compiler GCC version 9.2.1 20190827 (Red Hat 9.2.1-1)
REM options -cpp -mtune=generic -march=x86-64 -g -O0 -fpre-include=/usr/include/finclude/math-vector-fortran.h
REM seed 694222008 625971937 -354754162 1027642992 1313323314 79529941 2018202303 234986424 -1602129916 -1924800964 -1273398097 -73725589 1321449480 568193643 -448569414 859533923 -89957561 553876669 -901637722 922375004 1067616816 1647235477 913363251 473035267 -1565152193 1313240220 717452772 405816633 -1211647132 1725912542 486650310 -1207603240 -1836873553
REM
CELL 1.54180   50.00000   50.00000   50.00000   90.00000   90.00000   90.00000
LATT -1
SFAC C  
C      1  0.4531960000000  0.4586880000000  0.5111440000000 1.0
C      1  0.4036980000000  0.5177110000000  0.5686400000000 1.0
C      1  0.5117930000000  0.5649100000000  0.4973540000000 1.0
C      1  0.5201300000000  0.4155080000000  0.5583820000000 1.0
C      1  0.5848910000000  0.4496300000000  0.4945190000000 1.0
C      1  0.4433770000000  0.5260750000000  0.4577490000000 1.0
C      1  0.4049520000000  0.3900130000000  0.5002370000000 1.0
C      1  0.5196850000000  0.5111260000000  0.5587310000000 1.0
C      1  0.5367810000000  0.5608080000000  0.5986280000000 1.0
C      1  0.4451100000000  0.5283270000000  0.5404610000000 1.0
C      1  0.5921120000000  0.4975720000000  0.5007140000000 1.0
C      1  0.5567110000000  0.5045370000000  0.3882290000000 1.0
C      1  0.5125090000000  0.5463780000000  0.5936100000000 1.0
C      1  0.5171520000000  0.4405090000000  0.3971030000000 1.0
C      1  0.4933360000000  0.4404420000000  0.5151240000000 1.0
C      1  0.4827980000000  0.5784790000000  0.4611100000000 1.0
C      1  0.5547220000000  0.4796140000000  0.4694260000000 1.0
C      1  0.5442970000000  0.5206280000000  0.5501500000000 1.0
C      1  0.4634660000000  0.4230400000000  0.4794940000000 1.0
C      1  0.6187900000000  0.4955890000000  0.5101860000000 1.0
C      1  0.4385110000000  0.5223980000000  0.4856620000000 1.0
C      1  0.5534520000000  0.4390100000000  0.5848590000000 1.0
C      1  0.4701570000000  0.4824500000000  0.5845350000000 1.0
C      1  0.5205420000000  0.5048560000000  0.4957720000000 1.0
C      1  0.5652120000000  0.4512320000000  0.5620740000000 1.0
C      1  0.4237870000000  0.5116310000000  0.4011090000000 1.0
C      1  0.4219810000000  0.5679130000000  0.4864190000000 1.0
C      1  0.4353690000000  0.4930520000000  0.4863420000000 1.0
C      1  0.5153650000000  0.5942360000000  0.4299360000000 1.0
C      1  0.5645300000000  0.6091310000000  0.5472720000000 1.0
C      1  0.5394050000000  0.4502610000000  0.5031420000000 1.0
C      1  0.5212120000000  0.3847980000000  0.4954860000000 1.0
C      1  0.4534530000000  0.4586890000000  0.3865940000000 1.0
C      1  0.4013770000000  0.4801070000000  0.5411380000000 1.0
C      1  0.6043690000000  0.4086260000000  0.4736770000000 1.0
C      1  0.5139140000000  0.4585270000000  0.5081540000000 1.0
C      1  0.5834990000000  0.4235560000000  0.4824910000000 1.0
C      1  0.4154630000000  0.5235630000000  0.4470870000000 1.0
C      1  0.5475610000000  0.5510190000000  0.4264320000000 1.0
C      1  0.4483780000000  0.3577070000000  0.5083380000000 1.0
C      1  0.5380690000000  0.4602670000000  0.4537480000000 1.0
C      1  0.5944120000000  0.4999330000000  0.5972110000000 1.0
C      1  0.5113660000000  0.4662670000000  0.4073060000000 1.0
C      1  0.4185800000000  0.5410220000000  0.4949280000000 1.0
C      1  0.5155080000000  0.4693200000000  0.4363730000000 1.0
C      1  0.4628240000000  0.5946220000000  0.4734630000000 1.0
C      1  0.4543430000000  0.3751690000000  0.5548680000000 1.0
C      1  0.5253550000000  0.5635860000000  0.5394540000000 1.0
C      1  0.6303960000000  0.5013360000000  0.5603300000000 1.0
C      1  0.5003740000000  0.4649250000000  0.5544240000000 1.0
C      1  0.4626390000000  0.5059760000000  0.5362110000000 1.0
C      1  0.5061880000000  0.5089520000000  0.3794500000000 1.0
C      1  0.5070780000000  0.6127520000000  0.4888070000000 1.0
C      1  0.4672310000000  0.4408920000000  0.4581030000000 1.0
C      1  0.4824280000000  0.4425730000000  0.5438890000000 1.0
C      1  0.5346970000000  0.5925810000000  0.4515200000000 1.0
C      1  0.4404750000000  0.3741710000000  0.5303640000000 1.0
C      1  0.4589530000000  0.5778200000000  0.5265230000000 1.0
C      1  0.5164760000000  0.4951330000000  0.6011200000000 1.0
C      1  0.5646940000000  0.4480290000000  0.5147200000000 1.0
C      1  0.5644150000000  0.6068160000000  0.5202160000000 1.0
C      1  0.4493900000000  0.5071530000000  0.3897970000000 1.0
C      1  0.5561360000000  0.5258900000000  0.4628420000000 1.0
C      1  0.5522830000000  0.5703450000000  0.4477610000000 1.0
C      1  0.4945430000000  0.4850450000000  0.3916660000000 1.0
C      1  0.4784370000000  0.6084480000000  0.4947800000000 1.0
C      1  0.3960810000000  0.5216420000000  0.4973310000000 1.0
C      1  0.4354960000000  0.3577930000000  0.4842400000000 1.0
C      1  0.5057490000000  0.5721410000000  0.4139150000000 1.0
C      1  0.5623370000000  0.4349380000000  0.5391140000000 1.0
C      1  0.4484040000000  0.3576140000000  0.5749680000000 1.0
C      1  0.4621210000000  0.4841240000000  0.5558870000000 1.0
C      1  0.5173060000000  0.4854600000000  0.5166880000000 1.0
C      1  0.4880210000000  0.5088950000000  0.4381670000000 1.0
C      1  0.4761750000000  0.6170250000000  0.5454590000000 1.0
C      1  0.4898280000000  0.5326030000000  0.3792100000000 1.0
C      1  0.5445000000000  0.4898870000000  0.6051230000000 1.0
C      1  0.4706590000000  0.5248380000000  0.4531970000000 1.0
C      1  0.4760500000000  0.6347070000000  0.5907610000000 1.0
C      1  0.5206960000000  0.5482600000000  0.4184820000000 1.0
C      1  0.4742570000000  0.3944930000000  0.5581870000000 1.0
C      1  0.4896920000000  0.5629570000000  0.5908570000000 1.0
C      1  0.4737790000000  0.4684050000000  0.4654440000000 1.0
C      1  0.4365850000000  0.5835600000000  0.4671100000000 1.0
C      1  0.3970130000000  0.5097510000000  0.4683120000000 1.0
C      1  0.5553580000000  0.4159330000000  0.4815040000000 1.0
C      1  0.5110070000000  0.4158700000000  0.4061850000000 1.0
C      1  0.5652380000000  0.5017200000000  0.5430410000000 1.0
C      1  0.4942120000000  0.5158680000000  0.4947210000000 1.0
C      1  0.5016930000000  0.3889170000000  0.4471850000000 1.0
C      1  0.4862710000000  0.5338360000000  0.4752250000000 1.0
C      1  0.4025370000000  0.5062540000000  0.5234770000000 1.0
C      1  0.5405360000000  0.4034560000000  0.5054110000000 1.0
C      1  0.5338570000000  0.5081800000000  0.3746920000000 1.0
C      1  0.4111900000000  0.4842670000000  0.4738300000000 1.0
C      1  0.4323580000000  0.5764200000000  0.4391570000000 1.0
C      1  0.5328380000000  0.6022040000000  0.4794400000000 1.0
C      1  0.4948200000000  0.4085210000000  0.4280570000000 1.0
C      1  0.5631640000000  0.5636860000000  0.4955830000000 1.0
C      1  0.6313790000000  0.4977440000000  0.5338250000000 1.0
C      1  0.5600060000000  0.5535390000000  0.4698330000000 1.0
C      1  0.5074970000000  0.5240350000000  0.4245530000000 1.0
C      1  0.4791930000000  0.5866540000000  0.5840270000000 1.0
C      1  0.4507430000000  0.4893340000000  0.6030820000000 1.0
C      1  0.5412350000000  0.4323500000000  0.4615160000000 1.0
C      1  0.4654750000000  0.4831360000000  0.3897230000000 1.0
C      1  0.4742960000000  0.5011030000000  0.5092790000000 1.0
C      1  0.4137950000000  0.3738720000000  0.4800240000000 1.0
C      1  0.5666520000000  0.5084500000000  0.4128600000000 1.0
C      1  0.5759620000000  0.5143980000000  0.5177580000000 1.0
C      1  0.4825060000000  0.5674330000000  0.3993220000000 1.0
C      1  0.5423080000000  0.5049070000000  0.4761710000000 1.0
C      1  0.5453160000000  0.5445900000000  0.5359510000000 1.0
C      1  0.5680970000000  0.4801140000000  0.5626490000000 1.0
C      1  0.5808390000000  0.4762280000000  0.4836610000000 1.0
C      1  0.4182210000000  0.5324050000000  0.4199850000000 1.0
C      1  0.5265590000000  0.4304410000000  0.5831700000000 1.0
C      1  0.4705080000000  0.6029730000000  0.5218140000000 1.0
C      1  0.5091470000000  0.3807320000000  0.4716610000000 1.0
C      1  0.5598760000000  0.5255770000000  0.4336880000000 1.0
C      1  0.4175470000000  0.3902470000000  0.5244850000000 1.0
C      1  0.4806180000000  0.4208310000000  0.4998220000000 1.0
C      1  0.4342260000000  0.5573570000000  0.4175480000000 1.0
C      1  0.5115330000000  0.4884420000000  0.5441860000000 1.0
C      1  0.5464200000000  0.5972280000000  0.5654730000000 1.0
C      1  0.4747970000000  0.4275470000000  0.4346450000000 1.0
C      1  0.5654940000000  0.5430120000000  0.5154230000000 1.0
C      1  0.4536920000000  0.4575450000000  0.5414360000000 1.0
C      1  0.6174630000000  0.5031160000000  0.5837090000000 1.0
C      1  0.5068420000000  0.4472160000000  0.5960490000000 1.0
C      1  0.4965540000000  0.4741910000000  0.5958360000000 1.0
C      1  0.5689370000000  0.4901410000000  0.5902590000000 1.0
C      1  0.4925650000000  0.4823740000000  0.4482210000000 1.0
C      1  0.4170940000000  0.5242010000000  0.5436550000000 1.0
C      1  0.5542450000000  0.5918290000000  0.4982630000000 1.0
C      1  0.4222580000000  0.4598800000000  0.5451070000000 1.0
C      1  0.5125230000000  0.5189560000000  0.5853860000000 1.0
C      1  0.4546430000000  0.5542420000000  0.5375970000000 1.0
C      1  0.5502080000000  0.5827230000000  0.5895890000000 1.0
C      1  0.4754740000000  0.6550430000000  0.6070490000000 1.0
C      1  0.5411880000000  0.4139130000000  0.5359400000000 1.0
C      1  0.4569590000000  0.5559830000000  0.3998080000000 1.0
C      1  0.4608680000000  0.4793020000000  0.4915800000000 1.0
C      1  0.4961360000000  0.5593410000000  0.4761540000000 1.0
C      1  0.5237690000000  0.5874090000000  0.5515100000000 1.0
C      1  0.3929900000000  0.4921180000000  0.5669300000000 1.0
C      1  0.4914840000000  0.4158680000000  0.5542410000000 1.0
C      1  0.4770730000000  0.6128290000000  0.5734500000000 1.0
C      1  0.4626290000000  0.5315090000000  0.3847480000000 1.0
END
