TITL C-627108-131-1452 0.0187438249314922 125000 -108.369037907169 0 0 19 (C1) n - 1
REM
REM in /home/nfs/bkarasulu/CARBON/AIRSS/Generating-Clusters/LCBOP/Only-C1/SD-CG/FIRE-CG
REM
REM
REM
REM
REM
REM ./C.cell (11c1c37f851c82e70ff6c80c92926a4b)
REM AIRSS Version 0.9.1 bugfix July 2018 build 013d7b7c2542+ Fri, 06 Jul 2018 19:26:36 +0100
REM compiler GCC version 9.2.1 20190827 (Red Hat 9.2.1-1)
REM options -cpp -mtune=generic -march=x86-64 -g -O0 -fpre-include=/usr/include/finclude/math-vector-fortran.h
REM seed -1885304605 -1332654169 434894715 2057017163 1434682664 1693177926 309898666 -538253204 182163408 1069956276 924689150 -1528397541 -111832796 829926880 64668380 14210907 -529812372 1212529674 136388618 -133070223 -2139237313 -1824743813 -955189026 -1245786953 -1036151693 1586160095 1929868899 740278096 360146110 -436697335 791450286 -1107186700 -1699384926
REM
CELL 1.54180   50.00000   50.00000   50.00000   90.00000   90.00000   90.00000
LATT -1
SFAC C  
C      1  0.5480870000000  0.5930760000000  0.5281190000000 1.0
C      1  0.4882210000000  0.5086020000000  0.5054740000000 1.0
C      1  0.4909800000000  0.4380790000000  0.5311430000000 1.0
C      1  0.5181050000000  0.5508670000000  0.5167870000000 1.0
C      1  0.5778300000000  0.6349480000000  0.5393610000000 1.0
C      1  0.5133270000000  0.4631870000000  0.4141170000000 1.0
C      1  0.5056530000000  0.4332890000000  0.5091100000000 1.0
C      1  0.5031160000000  0.5297610000000  0.5111210000000 1.0
C      1  0.4561080000000  0.4705580000000  0.5182320000000 1.0
C      1  0.4719390000000  0.4718400000000  0.4735550000000 1.0
C      1  0.5630820000000  0.6141850000000  0.5337870000000 1.0
C      1  0.4357030000000  0.4601140000000  0.5002760000000 1.0
C      1  0.5071290000000  0.4408830000000  0.4834070000000 1.0
C      1  0.4450990000000  0.4606090000000  0.4741440000000 1.0
C      1  0.5330960000000  0.5719710000000  0.5224530000000 1.0
C      1  0.4947720000000  0.4577760000000  0.4643880000000 1.0
C      1  0.5044300000000  0.4604990000000  0.4384650000000 1.0
C      1  0.4735980000000  0.4858530000000  0.4996540000000 1.0
C      1  0.4697250000000  0.4539040000000  0.5364060000000 1.0
END
