TITL C-627108-131-2050 6307.01603252037 125000 -1086.21217868256 0 0 178 (C1) n - 1
REM
REM in /home/nfs/bkarasulu/CARBON/AIRSS/Generating-Clusters/LCBOP/Only-C1/SD-CG/FIRE-CG
REM
REM
REM
REM
REM
REM ./C.cell (11c1c37f851c82e70ff6c80c92926a4b)
REM AIRSS Version 0.9.1 bugfix July 2018 build 013d7b7c2542+ Fri, 06 Jul 2018 19:26:36 +0100
REM compiler GCC version 9.2.1 20190827 (Red Hat 9.2.1-1)
REM options -cpp -mtune=generic -march=x86-64 -g -O0 -fpre-include=/usr/include/finclude/math-vector-fortran.h
REM seed -146850421 1102536305 -672050768 493024180 -403578565 -935625034 1928631156 -1646356369 -1819183419 1570379809 -1263966803 -2038522294 1999750936 1614513521 966085972 123781512 -1415849737 1376994798 -1343672038 -152255306 -870642058 265487347 178342009 -344847471 -553824625 880337485 -1202269425 -765743357 2027856791 491813 1007080374 808224666 -1627522071
REM
CELL 1.54180   50.00000   50.00000   50.00000   90.00000   90.00000   90.00000
LATT -1
SFAC C  
C      1  0.6745230000000  0.5290130000000  0.6489030000000 1.0
C      1  0.4380030000000  0.5608720000000  0.5182810000000 1.0
C      1  0.5701650000000  0.3816630000000  0.5048890000000 1.0
C      1  0.4273930000000  0.5842520000000  0.4793950000000 1.0
C      1  0.5642480000000  0.3555010000000  0.5122620000000 1.0
C      1  0.5991940000000  0.4541290000000  0.4793330000000 1.0
C      1  0.4687060000000  0.5981470000000  0.5007350000000 1.0
C      1  0.4896820000000  0.5360300000000  0.5507580000000 1.0
C      1  0.4633510000000  0.5938430000000  0.5524690000000 1.0
C      1  0.5966070000000  0.3909480000000  0.5026500000000 1.0
C      1  0.5173530000000  0.4543320000000  0.5348680000000 1.0
C      1  0.6311940000000  0.5619850000000  0.5666340000000 1.0
C      1  0.4771140000000  0.5616040000000  0.4252720000000 1.0
C      1  0.4692640000000  0.5110990000000  0.5847880000000 1.0
C      1  0.5240000000000  0.4276430000000  0.5279470000000 1.0
C      1  0.5301390000000  0.5776250000000  0.5738430000000 1.0
C      1  0.4077950000000  0.5229100000000  0.6005140000000 1.0
C      1  0.5785650000000  0.4353740000000  0.4280220000000 1.0
C      1  0.5589510000000  0.5116420000000  0.4584810000000 1.0
C      1  0.4923850000000  0.3945720000000  0.4735770000000 1.0
C      1  0.5668080000000  0.4966970000000  0.5046820000000 1.0
C      1  0.6222300000000  0.5521790000000  0.5918450000000 1.0
C      1  0.4791060000000  0.4096560000000  0.6023670000000 1.0
C      1  0.4718020000000  0.4282070000000  0.5063810000000 1.0
C      1  0.6156170000000  0.5215410000000  0.4681330000000 1.0
C      1  0.5057800000000  0.3761100000000  0.5796900000000 1.0
C      1  0.4660260000000  0.5419100000000  0.4856540000000 1.0
C      1  0.6008270000000  0.4955070000000  0.4040790000000 1.0
C      1  0.5658670000000  0.6056580000000  0.4884590000000 1.0
C      1  0.3856250000000  0.4603780000000  0.4722160000000 1.0
C      1  0.4202700000000  0.4310280000000  0.5622270000000 1.0
C      1  0.4202370000000  0.5408410000000  0.5277000000000 1.0
C      1  0.6151920000000  0.5004320000000  0.4504850000000 1.0
C      1  0.5014670000000  0.5755200000000  0.5755590000000 1.0
C      1  0.4439060000000  0.4933020000000  0.5878990000000 1.0
C      1  0.5781470000000  0.5089350000000  0.3950060000000 1.0
C      1  0.3720080000000  0.4742330000000  0.4907690000000 1.0
C      1  0.4889420000000  0.4874490000000  0.3881620000000 1.0
C      1  0.5442630000000  0.6223160000000  0.5516410000000 1.0
C      1  0.5439780000000  0.6275300000000  0.5254980000000 1.0
C      1  0.5255090000000  0.5571160000000  0.4140610000000 1.0
C      1  0.4811820000000  0.6015470000000  0.4553860000000 1.0
C      1  0.4769800000000  0.5203050000000  0.5006920000000 1.0
C      1  0.5574060000000  0.4803270000000  0.3595810000000 1.0
C      1  0.4454710000000  0.4623040000000  0.4063540000000 1.0
C      1  0.5699340000000  0.4932530000000  0.4772040000000 1.0
C      1  0.5582660000000  0.4177420000000  0.4315570000000 1.0
C      1  0.6462410000000  0.4449770000000  0.4865610000000 1.0
C      1  0.4415760000000  0.4397080000000  0.5814140000000 1.0
C      1  0.5398190000000  0.5238160000000  0.5284280000000 1.0
C      1  0.5624950000000  0.5632600000000  0.5357200000000 1.0
C      1  0.4129520000000  0.4488400000000  0.5406850000000 1.0
C      1  0.4382140000000  0.4156350000000  0.4702380000000 1.0
C      1  0.4111650000000  0.4761840000000  0.5485850000000 1.0
C      1  0.5499520000000  0.4005610000000  0.4991330000000 1.0
C      1  0.4223070000000  0.4172260000000  0.4956720000000 1.0
C      1  0.4118710000000  0.3890450000000  0.5342000000000 1.0
C      1  0.4993730000000  0.3919420000000  0.6006100000000 1.0
C      1  0.4631860000000  0.5357760000000  0.4340630000000 1.0
C      1  0.3739270000000  0.5403860000000  0.4872230000000 1.0
C      1  0.3888600000000  0.5329740000000  0.4398660000000 1.0
C      1  0.4634810000000  0.5425000000000  0.6385790000000 1.0
C      1  0.3668220000000  0.4955490000000  0.5065450000000 1.0
C      1  0.4974230000000  0.5034650000000  0.5830890000000 1.0
C      1  0.4276440000000  0.4344430000000  0.4491230000000 1.0
C      1  0.6097830000000  0.5427730000000  0.4845250000000 1.0
C      1  0.4649420000000  0.4864090000000  0.5382800000000 1.0
C      1  0.4639230000000  0.3992170000000  0.4624510000000 1.0
C      1  0.5340540000000  0.5635270000000  0.4653490000000 1.0
C      1  0.4441090000000  0.5405540000000  0.3872720000000 1.0
C      1  0.6573700000000  0.5685880000000  0.5623590000000 1.0
C      1  0.4272930000000  0.4824870000000  0.4025630000000 1.0
C      1  0.3962800000000  0.5130510000000  0.4220000000000 1.0
C      1  0.4655070000000  0.3985130000000  0.4332470000000 1.0
C      1  0.5314700000000  0.5084760000000  0.4516480000000 1.0
C      1  0.4446890000000  0.5829300000000  0.5019560000000 1.0
C      1  0.6400470000000  0.5454340000000  0.6121700000000 1.0
C      1  0.4408380000000  0.4390190000000  0.4236800000000 1.0
C      1  0.4203290000000  0.4968110000000  0.5656240000000 1.0
C      1  0.4367970000000  0.5067570000000  0.4698990000000 1.0
C      1  0.5250540000000  0.4037810000000  0.5118500000000 1.0
C      1  0.4493880000000  0.5413910000000  0.4612760000000 1.0
C      1  0.4244310000000  0.4397710000000  0.5151690000000 1.0
C      1  0.5741300000000  0.4655890000000  0.4733470000000 1.0
C      1  0.5565580000000  0.4230260000000  0.4838500000000 1.0
C      1  0.4196360000000  0.5701520000000  0.5654810000000 1.0
C      1  0.4252520000000  0.4030490000000  0.5543860000000 1.0
C      1  0.4811110000000  0.4405090000000  0.4821640000000 1.0
C      1  0.4111410000000  0.3940420000000  0.5076360000000 1.0
C      1  0.5155650000000  0.6139340000000  0.4887140000000 1.0
C      1  0.4828580000000  0.5592570000000  0.5911680000000 1.0
C      1  0.4169340000000  0.5726610000000  0.4342850000000 1.0
C      1  0.4127870000000  0.5445550000000  0.5552220000000 1.0
C      1  0.4642000000000  0.4220650000000  0.4180700000000 1.0
C      1  0.5058340000000  0.4790890000000  0.4919360000000 1.0
C      1  0.5960890000000  0.4560120000000  0.4299200000000 1.0
C      1  0.4736520000000  0.4910330000000  0.4442730000000 1.0
C      1  0.4462820000000  0.5212470000000  0.6312630000000 1.0
C      1  0.5493790000000  0.5554470000000  0.5644920000000 1.0
C      1  0.5357900000000  0.5288890000000  0.5563160000000 1.0
C      1  0.4664560000000  0.5425780000000  0.3724770000000 1.0
C      1  0.5426930000000  0.5507220000000  0.5139430000000 1.0
C      1  0.6914930000000  0.5203000000000  0.6666730000000 1.0
C      1  0.4578530000000  0.4861450000000  0.4678070000000 1.0
C      1  0.4707820000000  0.5385570000000  0.5741150000000 1.0
C      1  0.4387030000000  0.5888910000000  0.5621580000000 1.0
C      1  0.5510300000000  0.4495100000000  0.4764770000000 1.0
C      1  0.4848690000000  0.5169050000000  0.4426240000000 1.0
C      1  0.4997910000000  0.3934280000000  0.5017810000000 1.0
C      1  0.4304700000000  0.5086410000000  0.6117290000000 1.0
C      1  0.5683010000000  0.5302450000000  0.4121900000000 1.0
C      1  0.4044060000000  0.4491520000000  0.4566660000000 1.0
C      1  0.5236810000000  0.4581430000000  0.4748150000000 1.0
C      1  0.5432500000000  0.4978280000000  0.5194640000000 1.0
C      1  0.4851450000000  0.4414530000000  0.4116590000000 1.0
C      1  0.5561330000000  0.4998790000000  0.3783950000000 1.0
C      1  0.4522890000000  0.4436500000000  0.5183400000000 1.0
C      1  0.5113510000000  0.5554480000000  0.5079060000000 1.0
C      1  0.5112350000000  0.5504460000000  0.4769500000000 1.0
C      1  0.5726510000000  0.5280630000000  0.4399410000000 1.0
C      1  0.4220550000000  0.5074450000000  0.4130910000000 1.0
C      1  0.5224030000000  0.4775540000000  0.5181540000000 1.0
C      1  0.5402320000000  0.6039710000000  0.5706310000000 1.0
C      1  0.6706600000000  0.4539230000000  0.4848710000000 1.0
C      1  0.4587460000000  0.4163080000000  0.5844320000000 1.0
C      1  0.5964510000000  0.5637440000000  0.4994920000000 1.0
C      1  0.4422530000000  0.5275260000000  0.4125480000000 1.0
C      1  0.6130800000000  0.4109050000000  0.4963670000000 1.0
C      1  0.3992660000000  0.5843630000000  0.4838350000000 1.0
C      1  0.5019110000000  0.4464670000000  0.4333460000000 1.0
C      1  0.4539280000000  0.4653470000000  0.5799780000000 1.0
C      1  0.3779720000000  0.5683290000000  0.4886020000000 1.0
C      1  0.5107380000000  0.5198960000000  0.5637700000000 1.0
C      1  0.4676830000000  0.5484330000000  0.6649380000000 1.0
C      1  0.4076360000000  0.5216880000000  0.5106210000000 1.0
C      1  0.4783920000000  0.4028220000000  0.5181630000000 1.0
C      1  0.5337750000000  0.5692920000000  0.4381190000000 1.0
C      1  0.4946380000000  0.5582750000000  0.5321160000000 1.0
C      1  0.4998940000000  0.5081120000000  0.4887480000000 1.0
C      1  0.5752430000000  0.5788810000000  0.4870120000000 1.0
C      1  0.4134890000000  0.5145760000000  0.4820370000000 1.0
C      1  0.5267400000000  0.4899250000000  0.4318250000000 1.0
C      1  0.5421220000000  0.5373830000000  0.4025040000000 1.0
C      1  0.5324940000000  0.5151380000000  0.3853320000000 1.0
C      1  0.4528920000000  0.3988120000000  0.5615520000000 1.0
C      1  0.5046450000000  0.4381660000000  0.4618190000000 1.0
C      1  0.5701400000000  0.5505700000000  0.5850820000000 1.0
C      1  0.6121560000000  0.5647810000000  0.5462540000000 1.0
C      1  0.5041290000000  0.5120620000000  0.3840030000000 1.0
C      1  0.4644810000000  0.5065970000000  0.5212630000000 1.0
C      1  0.3777590000000  0.5215870000000  0.5096560000000 1.0
C      1  0.5570470000000  0.3316000000000  0.5197480000000 1.0
C      1  0.6062870000000  0.4828770000000  0.4289300000000 1.0
C      1  0.4983180000000  0.4572270000000  0.5554590000000 1.0
C      1  0.6572530000000  0.5376020000000  0.6307230000000 1.0
C      1  0.4389780000000  0.5714690000000  0.4545810000000 1.0
C      1  0.4738890000000  0.4650000000000  0.3984230000000 1.0
C      1  0.5532970000000  0.5610780000000  0.4863100000000 1.0
C      1  0.5946110000000  0.5492620000000  0.5951940000000 1.0
C      1  0.4655590000000  0.5824230000000  0.4419960000000 1.0
C      1  0.4886240000000  0.5814620000000  0.5495300000000 1.0
C      1  0.3938500000000  0.5593070000000  0.4312770000000 1.0
C      1  0.4766640000000  0.4691950000000  0.4839070000000 1.0
C      1  0.4940580000000  0.3750910000000  0.5554060000000 1.0
C      1  0.6196070000000  0.4366880000000  0.4874630000000 1.0
C      1  0.5360990000000  0.4059350000000  0.4420230000000 1.0
C      1  0.4736260000000  0.3909540000000  0.5436290000000 1.0
C      1  0.4889730000000  0.6061040000000  0.4822870000000 1.0
C      1  0.4912230000000  0.5379850000000  0.3847350000000 1.0
C      1  0.5076100000000  0.5225780000000  0.4639670000000 1.0
C      1  0.4076260000000  0.5223750000000  0.5717640000000 1.0
C      1  0.5910100000000  0.5635900000000  0.5281550000000 1.0
C      1  0.4980750000000  0.5562730000000  0.4064440000000 1.0
C      1  0.4728510000000  0.4682540000000  0.5582570000000 1.0
C      1  0.4762940000000  0.5575390000000  0.6183150000000 1.0
C      1  0.5419080000000  0.6173620000000  0.4992960000000 1.0
C      1  0.3909860000000  0.5273410000000  0.4671880000000 1.0
C      1  0.5128020000000  0.4090270000000  0.4582370000000 1.0
END
