TITL C-627112-676-2000 1.93466500593414e-07 125000 -361.939386252399 0 0 59 (C1) n - 1
REM
REM in /home/nfs/bkarasulu/CARBON/AIRSS/Generating-Clusters/LCBOP/Only-C1/SD-CG/FIRE-CG
REM
REM
REM
REM
REM
REM ./C.cell (11c1c37f851c82e70ff6c80c92926a4b)
REM AIRSS Version 0.9.1 bugfix July 2018 build 013d7b7c2542+ Fri, 06 Jul 2018 19:26:36 +0100
REM compiler GCC version 9.2.1 20190827 (Red Hat 9.2.1-1)
REM options -cpp -mtune=generic -march=x86-64 -g -O0 -fpre-include=/usr/include/finclude/math-vector-fortran.h
REM seed -1022083095 882630274 1362927576 1781750623 -261052765 -712824824 -215569379 117984769 1831675148 1178174244 2109501124 1391639001 2038198336 625856158 1700288068 -345896755 774068517 -1348816339 361271926 1172339389 -107870812 2047075383 214908152 -1915396141 -1324670578 165805183 -549536889 160699342 405629122 -332446303 -1319008313 -16844839 -1622308619
REM
CELL 1.54180   50.00000   50.00000   50.00000   90.00000   90.00000   90.00000
LATT -1
SFAC C  
C      1  0.5596350000000  0.4826600000000  0.5326510000000 1.0
C      1  0.4399110000000  0.5093700000000  0.4681440000000 1.0
C      1  0.4864560000000  0.6115750000000  0.5215970000000 1.0
C      1  0.4939890000000  0.4323240000000  0.4478730000000 1.0
C      1  0.4195500000000  0.4608340000000  0.5161190000000 1.0
C      1  0.4326120000000  0.4691570000000  0.4945280000000 1.0
C      1  0.4506760000000  0.4854790000000  0.4805310000000 1.0
C      1  0.4366050000000  0.5057930000000  0.4403240000000 1.0
C      1  0.4462260000000  0.5492590000000  0.5290920000000 1.0
C      1  0.5070630000000  0.4316630000000  0.4728230000000 1.0
C      1  0.5191460000000  0.5177960000000  0.5391910000000 1.0
C      1  0.4463770000000  0.5336620000000  0.4821000000000 1.0
C      1  0.4899440000000  0.5906200000000  0.5045760000000 1.0
C      1  0.4614400000000  0.4644280000000  0.4220810000000 1.0
C      1  0.4788490000000  0.4791330000000  0.4810650000000 1.0
C      1  0.5195670000000  0.5072220000000  0.4901150000000 1.0
C      1  0.4764850000000  0.5165210000000  0.5601370000000 1.0
C      1  0.4673940000000  0.5304990000000  0.5361280000000 1.0
C      1  0.5208020000000  0.4856660000000  0.5699790000000 1.0
C      1  0.5338360000000  0.4409940000000  0.4769640000000 1.0
C      1  0.5232580000000  0.4829880000000  0.4510430000000 1.0
C      1  0.5277500000000  0.5033640000000  0.4314970000000 1.0
C      1  0.5671400000000  0.5234210000000  0.4839850000000 1.0
C      1  0.4465240000000  0.4866250000000  0.4241030000000 1.0
C      1  0.5468970000000  0.4403720000000  0.5036980000000 1.0
C      1  0.4937300000000  0.4146740000000  0.5166650000000 1.0
C      1  0.5376400000000  0.5729120000000  0.5127810000000 1.0
C      1  0.5035450000000  0.4913280000000  0.4708720000000 1.0
C      1  0.4682970000000  0.5752950000000  0.4920960000000 1.0
C      1  0.4842400000000  0.5569330000000  0.4740100000000 1.0
C      1  0.5285920000000  0.5438400000000  0.4602570000000 1.0
C      1  0.5427790000000  0.4758910000000  0.5558440000000 1.0
C      1  0.5042520000000  0.5084760000000  0.5617800000000 1.0
C      1  0.5643310000000  0.4756140000000  0.4803230000000 1.0
C      1  0.4777050000000  0.4450190000000  0.4307840000000 1.0
C      1  0.5273960000000  0.5306120000000  0.4349400000000 1.0
C      1  0.5522210000000  0.5523630000000  0.5244580000000 1.0
C      1  0.4860040000000  0.4614360000000  0.5028580000000 1.0
C      1  0.4573280000000  0.5054620000000  0.5772680000000 1.0
C      1  0.5118990000000  0.5636630000000  0.4716630000000 1.0
C      1  0.4760200000000  0.5313420000000  0.4839220000000 1.0
C      1  0.5661900000000  0.5111110000000  0.5318840000000 1.0
C      1  0.5608160000000  0.4658380000000  0.5083580000000 1.0
C      1  0.4207910000000  0.4719220000000  0.5660440000000 1.0
C      1  0.5778230000000  0.4993300000000  0.4742070000000 1.0
C      1  0.4367860000000  0.4886240000000  0.5792750000000 1.0
C      1  0.4442140000000  0.5577090000000  0.5009620000000 1.0
C      1  0.5161120000000  0.5799800000000  0.4958780000000 1.0
C      1  0.5149830000000  0.5005120000000  0.5169940000000 1.0
C      1  0.5429090000000  0.4650800000000  0.4628640000000 1.0
C      1  0.5439520000000  0.5302510000000  0.5414960000000 1.0
C      1  0.5014670000000  0.4755220000000  0.5217040000000 1.0
C      1  0.4806290000000  0.5245760000000  0.5113190000000 1.0
C      1  0.5173320000000  0.4087480000000  0.5285260000000 1.0
C      1  0.5764660000000  0.5323310000000  0.5084220000000 1.0
C      1  0.4908470000000  0.4342500000000  0.4965780000000 1.0
C      1  0.5389290000000  0.5259580000000  0.4798880000000 1.0
C      1  0.5409390000000  0.4203890000000  0.5224670000000 1.0
C      1  0.4147010000000  0.4615860000000  0.5422670000000 1.0
END
