TITL C-627109-622-336 0.00989126350963448 125000 -1108.1333789721 0 0 178 (C1) n - 1
REM
REM in /home/nfs/bkarasulu/CARBON/AIRSS/Generating-Clusters/LCBOP/Only-C1/SD-CG/FIRE-CG
REM
REM
REM
REM
REM
REM ./C.cell (11c1c37f851c82e70ff6c80c92926a4b)
REM AIRSS Version 0.9.1 bugfix July 2018 build 013d7b7c2542+ Fri, 06 Jul 2018 19:26:36 +0100
REM compiler GCC version 9.2.1 20190827 (Red Hat 9.2.1-1)
REM options -cpp -mtune=generic -march=x86-64 -g -O0 -fpre-include=/usr/include/finclude/math-vector-fortran.h
REM seed -155838420 -490362747 -1031925564 1465316505 -1550131432 964112396 2059877945 -872131898 689068874 324183696 -623995593 -594324077 -711838954 -552027902 -1174864354 -1171790583 1626882603 -561616126 -289201127 930144117 797574976 -1079846792 -388406890 -51014316 1535123601 -646228340 -221428809 1970393233 -431063886 822237764 -1314655389 1494710737 -417749468
REM
CELL 1.54180   50.00000   50.00000   50.00000   90.00000   90.00000   90.00000
LATT -1
SFAC C  
C      1  0.4352040000000  0.5415300000000  0.4265850000000 1.0
C      1  0.5354050000000  0.5381640000000  0.5125570000000 1.0
C      1  0.4639280000000  0.4851720000000  0.4585560000000 1.0
C      1  0.3957370000000  0.5386800000000  0.4607760000000 1.0
C      1  0.4572440000000  0.5552680000000  0.5273340000000 1.0
C      1  0.4858930000000  0.4407890000000  0.4660270000000 1.0
C      1  0.5598640000000  0.4549930000000  0.5254220000000 1.0
C      1  0.4223100000000  0.3792030000000  0.5388760000000 1.0
C      1  0.4076360000000  0.5606510000000  0.5319540000000 1.0
C      1  0.5287480000000  0.3784710000000  0.4805350000000 1.0
C      1  0.5278360000000  0.4898530000000  0.5434130000000 1.0
C      1  0.4531360000000  0.5825370000000  0.4378050000000 1.0
C      1  0.5926440000000  0.5129160000000  0.5644740000000 1.0
C      1  0.5928650000000  0.5607830000000  0.4861230000000 1.0
C      1  0.5209590000000  0.5467640000000  0.6054050000000 1.0
C      1  0.4499940000000  0.4424950000000  0.6178980000000 1.0
C      1  0.4083600000000  0.4148960000000  0.4471400000000 1.0
C      1  0.3944430000000  0.3635610000000  0.4997330000000 1.0
C      1  0.5244800000000  0.6455860000000  0.5002360000000 1.0
C      1  0.4013450000000  0.5087810000000  0.4215490000000 1.0
C      1  0.6510270000000  0.4849340000000  0.4471610000000 1.0
C      1  0.5291920000000  0.5798220000000  0.5559910000000 1.0
C      1  0.3894760000000  0.5231360000000  0.5655750000000 1.0
C      1  0.5986070000000  0.4315830000000  0.4327820000000 1.0
C      1  0.4722870000000  0.5900490000000  0.4565280000000 1.0
C      1  0.5540010000000  0.4135510000000  0.5431800000000 1.0
C      1  0.4247950000000  0.4985170000000  0.4816880000000 1.0
C      1  0.5013000000000  0.5021700000000  0.5471110000000 1.0
C      1  0.5507880000000  0.4024640000000  0.5162250000000 1.0
C      1  0.5330390000000  0.3969760000000  0.4592640000000 1.0
C      1  0.4361120000000  0.5226510000000  0.5890230000000 1.0
C      1  0.4849680000000  0.5073810000000  0.5708910000000 1.0
C      1  0.4857220000000  0.4253180000000  0.4889850000000 1.0
C      1  0.5106440000000  0.5985600000000  0.5076830000000 1.0
C      1  0.5166000000000  0.5937920000000  0.4503980000000 1.0
C      1  0.5034420000000  0.5747470000000  0.4059380000000 1.0
C      1  0.4002810000000  0.4334780000000  0.5619040000000 1.0
C      1  0.4287200000000  0.4319510000000  0.6050260000000 1.0
C      1  0.5534780000000  0.4462300000000  0.4524840000000 1.0
C      1  0.5570970000000  0.5446370000000  0.5718960000000 1.0
C      1  0.5216180000000  0.6269070000000  0.5448430000000 1.0
C      1  0.5306980000000  0.5280600000000  0.4510080000000 1.0
C      1  0.5175680000000  0.6245660000000  0.5171300000000 1.0
C      1  0.5343680000000  0.6652210000000  0.4854540000000 1.0
C      1  0.5134630000000  0.4482450000000  0.5238080000000 1.0
C      1  0.4119170000000  0.5357090000000  0.5780560000000 1.0
C      1  0.5335930000000  0.4646750000000  0.5323220000000 1.0
C      1  0.5579210000000  0.4925560000000  0.4859600000000 1.0
C      1  0.5052620000000  0.4328320000000  0.4465020000000 1.0
C      1  0.6340290000000  0.5342110000000  0.4973970000000 1.0
C      1  0.4959240000000  0.5199190000000  0.5258670000000 1.0
C      1  0.6019860000000  0.4666380000000  0.5664340000000 1.0
C      1  0.5602550000000  0.4191350000000  0.4938730000000 1.0
C      1  0.5284310000000  0.5002850000000  0.5927700000000 1.0
C      1  0.4391220000000  0.6001800000000  0.5179930000000 1.0
C      1  0.3946150000000  0.5152220000000  0.5379550000000 1.0
C      1  0.5067830000000  0.4302520000000  0.5059570000000 1.0
C      1  0.4385760000000  0.4773000000000  0.4692090000000 1.0
C      1  0.4916040000000  0.3982220000000  0.5402940000000 1.0
C      1  0.5435760000000  0.6843940000000  0.4696400000000 1.0
C      1  0.3953780000000  0.5374800000000  0.5178010000000 1.0
C      1  0.5219740000000  0.5127310000000  0.3837960000000 1.0
C      1  0.3986500000000  0.4676840000000  0.5245400000000 1.0
C      1  0.6073850000000  0.5269430000000  0.4586400000000 1.0
C      1  0.5589320000000  0.5374950000000  0.4524660000000 1.0
C      1  0.6038630000000  0.4839550000000  0.4401140000000 1.0
C      1  0.5378330000000  0.5292600000000  0.5898860000000 1.0
C      1  0.5249110000000  0.4531110000000  0.4465400000000 1.0
C      1  0.4285480000000  0.5157000000000  0.4165770000000 1.0
C      1  0.5199060000000  0.5873830000000  0.4230110000000 1.0
C      1  0.5126720000000  0.5446600000000  0.4654520000000 1.0
C      1  0.5720310000000  0.4367030000000  0.5435020000000 1.0
C      1  0.4622930000000  0.6359280000000  0.4861880000000 1.0
C      1  0.5191040000000  0.5009650000000  0.4399090000000 1.0
C      1  0.4263450000000  0.5806820000000  0.4484200000000 1.0
C      1  0.5064820000000  0.5631270000000  0.5501230000000 1.0
C      1  0.6074220000000  0.4934050000000  0.6072430000000 1.0
C      1  0.4101130000000  0.4428230000000  0.5868590000000 1.0
C      1  0.6530510000000  0.5099090000000  0.4575340000000 1.0
C      1  0.4912900000000  0.5103620000000  0.4998200000000 1.0
C      1  0.4502300000000  0.5450640000000  0.5521310000000 1.0
C      1  0.5313580000000  0.5810510000000  0.4970270000000 1.0
C      1  0.3915070000000  0.3747670000000  0.4757360000000 1.0
C      1  0.3965790000000  0.3933410000000  0.4573570000000 1.0
C      1  0.4878330000000  0.5295020000000  0.4748780000000 1.0
C      1  0.5108750000000  0.5432240000000  0.5287660000000 1.0
C      1  0.4224570000000  0.5528510000000  0.5566860000000 1.0
C      1  0.4494740000000  0.4974600000000  0.4097200000000 1.0
C      1  0.4730870000000  0.4017830000000  0.4112260000000 1.0
C      1  0.4657810000000  0.4599320000000  0.5423760000000 1.0
C      1  0.4168590000000  0.5536820000000  0.4476700000000 1.0
C      1  0.4829120000000  0.6333110000000  0.4684440000000 1.0
C      1  0.4902700000000  0.5300750000000  0.3939240000000 1.0
C      1  0.5513440000000  0.5053130000000  0.5429130000000 1.0
C      1  0.4741510000000  0.5759740000000  0.4805640000000 1.0
C      1  0.5085670000000  0.3803180000000  0.5258320000000 1.0
C      1  0.6389580000000  0.5120090000000  0.5153020000000 1.0
C      1  0.5837830000000  0.4757410000000  0.4209890000000 1.0
C      1  0.4625840000000  0.4173660000000  0.5011570000000 1.0
C      1  0.5424140000000  0.5142380000000  0.4975190000000 1.0
C      1  0.4139630000000  0.4905640000000  0.5376470000000 1.0
C      1  0.5130150000000  0.4863910000000  0.3920910000000 1.0
C      1  0.4100240000000  0.4709590000000  0.5874530000000 1.0
C      1  0.5276810000000  0.6069510000000  0.5616730000000 1.0
C      1  0.4372930000000  0.4317040000000  0.4960150000000 1.0
C      1  0.4839480000000  0.5884430000000  0.5049700000000 1.0
C      1  0.5226970000000  0.5724320000000  0.4701210000000 1.0
C      1  0.5575480000000  0.4644550000000  0.4779550000000 1.0
C      1  0.5943290000000  0.4989130000000  0.5162020000000 1.0
C      1  0.4411560000000  0.4429650000000  0.4227220000000 1.0
C      1  0.4181300000000  0.4852180000000  0.5664900000000 1.0
C      1  0.4144090000000  0.5864540000000  0.5217540000000 1.0
C      1  0.5785660000000  0.4491830000000  0.5681570000000 1.0
C      1  0.4715890000000  0.4486400000000  0.5655760000000 1.0
C      1  0.5861650000000  0.4972030000000  0.4885680000000 1.0
C      1  0.4040840000000  0.4411890000000  0.5344870000000 1.0
C      1  0.4987810000000  0.4978000000000  0.5943970000000 1.0
C      1  0.5416910000000  0.4742840000000  0.5910410000000 1.0
C      1  0.4441670000000  0.4694070000000  0.4124420000000 1.0
C      1  0.4405290000000  0.4953920000000  0.5234160000000 1.0
C      1  0.4057500000000  0.3643970000000  0.5239060000000 1.0
C      1  0.3919070000000  0.5291980000000  0.4892030000000 1.0
C      1  0.5307260000000  0.3831880000000  0.5086490000000 1.0
C      1  0.4550880000000  0.4215800000000  0.4105210000000 1.0
C      1  0.4988700000000  0.4928740000000  0.4170200000000 1.0
C      1  0.4580720000000  0.5595760000000  0.4197380000000 1.0
C      1  0.5438360000000  0.4917550000000  0.4270120000000 1.0
C      1  0.5791580000000  0.5067360000000  0.5395080000000 1.0
C      1  0.4672230000000  0.5490730000000  0.4827840000000 1.0
C      1  0.4722550000000  0.5122210000000  0.4552570000000 1.0
C      1  0.4954510000000  0.3929890000000  0.4233600000000 1.0
C      1  0.5525260000000  0.7031910000000  0.4539490000000 1.0
C      1  0.4391270000000  0.5141820000000  0.5018470000000 1.0
C      1  0.3855460000000  0.5200740000000  0.4408090000000 1.0
C      1  0.4329150000000  0.4488040000000  0.4721400000000 1.0
C      1  0.5514290000000  0.4490980000000  0.5809810000000 1.0
C      1  0.6210080000000  0.4912930000000  0.5237090000000 1.0
C      1  0.4827530000000  0.4825950000000  0.4997420000000 1.0
C      1  0.6200870000000  0.4699050000000  0.5434060000000 1.0
C      1  0.4266640000000  0.4361650000000  0.4468870000000 1.0
C      1  0.5482030000000  0.5636310000000  0.5148400000000 1.0
C      1  0.4628920000000  0.4773390000000  0.5209910000000 1.0
C      1  0.4926170000000  0.6100340000000  0.4554130000000 1.0
C      1  0.5527950000000  0.4171990000000  0.4656940000000 1.0
C      1  0.4365060000000  0.4030120000000  0.5347610000000 1.0
C      1  0.4852860000000  0.4812160000000  0.6127700000000 1.0
C      1  0.4881350000000  0.4305010000000  0.5760200000000 1.0
C      1  0.5121000000000  0.4057120000000  0.4419700000000 1.0
C      1  0.6239640000000  0.4414460000000  0.4364750000000 1.0
C      1  0.4762430000000  0.5076850000000  0.4070110000000 1.0
C      1  0.5343950000000  0.4210740000000  0.5643310000000 1.0
C      1  0.3860060000000  0.4774480000000  0.5007500000000 1.0
C      1  0.6144360000000  0.5548690000000  0.5023330000000 1.0
C      1  0.4512390000000  0.5398380000000  0.5038620000000 1.0
C      1  0.5058630000000  0.4139870000000  0.5615780000000 1.0
C      1  0.4623160000000  0.5834760000000  0.5230560000000 1.0
C      1  0.5518810000000  0.5645510000000  0.5503710000000 1.0
C      1  0.5842710000000  0.5372660000000  0.5752780000000 1.0
C      1  0.5518090000000  0.5105950000000  0.3872250000000 1.0
C      1  0.6346770000000  0.5281530000000  0.4690650000000 1.0
C      1  0.4686900000000  0.4616050000000  0.6204530000000 1.0
C      1  0.5637540000000  0.4469770000000  0.4992900000000 1.0
C      1  0.4223300000000  0.4249100000000  0.5202440000000 1.0
C      1  0.4597470000000  0.5238740000000  0.5710490000000 1.0
C      1  0.5986480000000  0.5002550000000  0.4626070000000 1.0
C      1  0.6286780000000  0.4692100000000  0.4402490000000 1.0
C      1  0.6009190000000  0.4912360000000  0.5809040000000 1.0
C      1  0.5133230000000  0.4775940000000  0.4580410000000 1.0
C      1  0.4979070000000  0.5588650000000  0.5981900000000 1.0
C      1  0.5852620000000  0.5453920000000  0.4628950000000 1.0
C      1  0.5755440000000  0.4488730000000  0.4313350000000 1.0
C      1  0.4827560000000  0.5555980000000  0.4042820000000 1.0
C      1  0.4895510000000  0.5628450000000  0.5727610000000 1.0
C      1  0.3965110000000  0.4997250000000  0.4865690000000 1.0
C      1  0.4647790000000  0.4040620000000  0.5277070000000 1.0
C      1  0.4863740000000  0.4705560000000  0.4716350000000 1.0
C      1  0.5644640000000  0.4932180000000  0.4080050000000 1.0
C      1  0.4448560000000  0.6238570000000  0.5031500000000 1.0
END
