TITL C-627106-156-947 -1.73323859845252e-06 125000 -751.423838788905 0 0 122 (C1) n - 1
REM
REM in /home/nfs/bkarasulu/CARBON/AIRSS/Generating-Clusters/LCBOP/Only-C1/SD-CG/FIRE-CG
REM
REM
REM
REM
REM
REM ./C.cell (11c1c37f851c82e70ff6c80c92926a4b)
REM AIRSS Version 0.9.1 bugfix July 2018 build 013d7b7c2542+ Fri, 06 Jul 2018 19:26:36 +0100
REM compiler GCC version 9.2.1 20190827 (Red Hat 9.2.1-1)
REM options -cpp -mtune=generic -march=x86-64 -g -O0 -fpre-include=/usr/include/finclude/math-vector-fortran.h
REM seed -30179296 87015705 1956366687 -1527509056 -2032565174 -461978972 -2140614139 1364889430 639868743 -1304346878 1363751087 -1049746911 -1955185132 223827118 970916215 -1091064244 -807977163 -829755797 -3279786 -1153795270 1024751330 74267678 870096707 -851269990 -193214360 791275696 602845900 -754507018 1564979664 1909095135 267058772 877002714 1548897525
REM
CELL 1.54180   50.00000   50.00000   50.00000   90.00000   90.00000   90.00000
LATT -1
SFAC C  
C      1  0.5186990000000  0.4391150000000  0.4942120000000 1.0
C      1  0.4407130000000  0.5654520000000  0.4699810000000 1.0
C      1  0.3955790000000  0.5169790000000  0.4683520000000 1.0
C      1  0.5687570000000  0.5069240000000  0.4362360000000 1.0
C      1  0.4176870000000  0.5694800000000  0.4856030000000 1.0
C      1  0.4948730000000  0.4548680000000  0.5688820000000 1.0
C      1  0.5772770000000  0.5320930000000  0.3975170000000 1.0
C      1  0.4458690000000  0.5296420000000  0.4109040000000 1.0
C      1  0.5286900000000  0.5075550000000  0.5414050000000 1.0
C      1  0.4133500000000  0.4427540000000  0.5307410000000 1.0
C      1  0.5076170000000  0.5721420000000  0.5237440000000 1.0
C      1  0.4535500000000  0.4260510000000  0.4603740000000 1.0
C      1  0.4462020000000  0.5386700000000  0.4625100000000 1.0
C      1  0.4392600000000  0.4948400000000  0.5779690000000 1.0
C      1  0.4560710000000  0.4375510000000  0.5479750000000 1.0
C      1  0.5865720000000  0.5215620000000  0.4966830000000 1.0
C      1  0.4295180000000  0.4571880000000  0.4872020000000 1.0
C      1  0.4256630000000  0.4359360000000  0.5057420000000 1.0
C      1  0.4315780000000  0.5083500000000  0.4188060000000 1.0
C      1  0.5289190000000  0.5060860000000  0.6770430000000 1.0
C      1  0.4704030000000  0.4239790000000  0.4359720000000 1.0
C      1  0.5697580000000  0.5521850000000  0.4655590000000 1.0
C      1  0.5521100000000  0.5126760000000  0.5564300000000 1.0
C      1  0.4658490000000  0.4503170000000  0.4232790000000 1.0
C      1  0.4910630000000  0.5870350000000  0.5431400000000 1.0
C      1  0.5877920000000  0.4932860000000  0.5348700000000 1.0
C      1  0.5125120000000  0.5770830000000  0.4551430000000 1.0
C      1  0.3874370000000  0.5624790000000  0.5236090000000 1.0
C      1  0.5508070000000  0.4308540000000  0.5390140000000 1.0
C      1  0.5951930000000  0.5363950000000  0.5577140000000 1.0
C      1  0.5600730000000  0.5786310000000  0.4641910000000 1.0
C      1  0.5110290000000  0.5287430000000  0.5382450000000 1.0
C      1  0.4973670000000  0.3951830000000  0.5092520000000 1.0
C      1  0.5477020000000  0.4921180000000  0.4497160000000 1.0
C      1  0.5697840000000  0.5053180000000  0.4060490000000 1.0
C      1  0.5170270000000  0.5292220000000  0.4382300000000 1.0
C      1  0.4740640000000  0.4971520000000  0.4820540000000 1.0
C      1  0.4944000000000  0.5191380000000  0.4874060000000 1.0
C      1  0.5086480000000  0.4111850000000  0.5508020000000 1.0
C      1  0.4449770000000  0.4655010000000  0.4383690000000 1.0
C      1  0.4194770000000  0.5040430000000  0.5071400000000 1.0
C      1  0.4961650000000  0.5502950000000  0.5830040000000 1.0
C      1  0.5422650000000  0.5628520000000  0.5716910000000 1.0
C      1  0.5319980000000  0.4115440000000  0.5314210000000 1.0
C      1  0.4598760000000  0.4137150000000  0.5322320000000 1.0
C      1  0.4839080000000  0.4748270000000  0.6171230000000 1.0
C      1  0.4827790000000  0.5296200000000  0.5321340000000 1.0
C      1  0.5477530000000  0.4499840000000  0.4878440000000 1.0
C      1  0.5480620000000  0.4962850000000  0.5800220000000 1.0
C      1  0.5497370000000  0.4939540000000  0.3898150000000 1.0
C      1  0.4578050000000  0.5205900000000  0.5423340000000 1.0
C      1  0.4021190000000  0.5527490000000  0.5021180000000 1.0
C      1  0.5232250000000  0.5570430000000  0.4361110000000 1.0
C      1  0.4944650000000  0.4550060000000  0.4957080000000 1.0
C      1  0.4887570000000  0.5659480000000  0.5027930000000 1.0
C      1  0.5225710000000  0.5182780000000  0.4885440000000 1.0
C      1  0.4782380000000  0.4678200000000  0.4738290000000 1.0
C      1  0.4716940000000  0.6005590000000  0.5247740000000 1.0
C      1  0.5343420000000  0.5165060000000  0.5973560000000 1.0
C      1  0.5319200000000  0.5120890000000  0.6249150000000 1.0
C      1  0.4507020000000  0.4546560000000  0.4667970000000 1.0
C      1  0.5294100000000  0.4874000000000  0.5221430000000 1.0
C      1  0.5468200000000  0.5933990000000  0.5270270000000 1.0
C      1  0.5421770000000  0.4435320000000  0.5646330000000 1.0
C      1  0.4883180000000  0.5372300000000  0.3898370000000 1.0
C      1  0.5967570000000  0.5004000000000  0.5094430000000 1.0
C      1  0.4815470000000  0.4670250000000  0.5202510000000 1.0
C      1  0.4287750000000  0.4712880000000  0.5699440000000 1.0
C      1  0.4715910000000  0.5884770000000  0.4979340000000 1.0
C      1  0.5659280000000  0.5393220000000  0.4903500000000 1.0
C      1  0.4779510000000  0.4557710000000  0.5461760000000 1.0
C      1  0.5691660000000  0.5510480000000  0.4172230000000 1.0
C      1  0.5373620000000  0.5969410000000  0.5011600000000 1.0
C      1  0.5558410000000  0.4692170000000  0.5679390000000 1.0
C      1  0.5461360000000  0.4777870000000  0.4753110000000 1.0
C      1  0.4852250000000  0.4012140000000  0.5349480000000 1.0
C      1  0.4557770000000  0.5165880000000  0.5704520000000 1.0
C      1  0.5327190000000  0.4930860000000  0.4950520000000 1.0
C      1  0.4834260000000  0.5799920000000  0.4506420000000 1.0
C      1  0.4568380000000  0.4061270000000  0.4807030000000 1.0
C      1  0.5065060000000  0.5206840000000  0.3793190000000 1.0
C      1  0.5306320000000  0.5092120000000  0.6512190000000 1.0
C      1  0.4170790000000  0.4821220000000  0.4869530000000 1.0
C      1  0.5220070000000  0.5010740000000  0.4385820000000 1.0
C      1  0.5388960000000  0.5392100000000  0.5004640000000 1.0
C      1  0.4747310000000  0.5315030000000  0.5857210000000 1.0
C      1  0.4028740000000  0.5253760000000  0.4954060000000 1.0
C      1  0.4262150000000  0.4874360000000  0.4372060000000 1.0
C      1  0.4093530000000  0.4928240000000  0.4603970000000 1.0
C      1  0.4436930000000  0.5048410000000  0.5225750000000 1.0
C      1  0.4898280000000  0.4036800000000  0.4445210000000 1.0
C      1  0.5342230000000  0.5875390000000  0.4735770000000 1.0
C      1  0.4900480000000  0.5750190000000  0.5689110000000 1.0
C      1  0.4740020000000  0.5679720000000  0.4259390000000 1.0
C      1  0.5146530000000  0.4346690000000  0.5677140000000 1.0
C      1  0.4900210000000  0.4685800000000  0.5925590000000 1.0
C      1  0.5790810000000  0.5159850000000  0.5498850000000 1.0
C      1  0.5485220000000  0.5808220000000  0.5516460000000 1.0
C      1  0.5197570000000  0.4122830000000  0.5050900000000 1.0
C      1  0.4775150000000  0.3898780000000  0.4677660000000 1.0
C      1  0.6128190000000  0.4221960000000  0.4688170000000 1.0
C      1  0.5734970000000  0.5361630000000  0.4424910000000 1.0
C      1  0.5253310000000  0.5499520000000  0.5239060000000 1.0
C      1  0.4653730000000  0.4897950000000  0.5110670000000 1.0
C      1  0.4548450000000  0.5134870000000  0.4661760000000 1.0
C      1  0.5269800000000  0.5034250000000  0.3789580000000 1.0
C      1  0.5058620000000  0.4829160000000  0.4246960000000 1.0
C      1  0.5176640000000  0.4071840000000  0.4428320000000 1.0
C      1  0.4879880000000  0.4655910000000  0.4151670000000 1.0
C      1  0.5248970000000  0.5432790000000  0.5855760000000 1.0
C      1  0.4688090000000  0.5461060000000  0.4082940000000 1.0
C      1  0.4303280000000  0.4490300000000  0.5526030000000 1.0
C      1  0.5440380000000  0.5640910000000  0.4177310000000 1.0
C      1  0.5594570000000  0.4298950000000  0.4687060000000 1.0
C      1  0.3742470000000  0.5711630000000  0.5443400000000 1.0
C      1  0.5412930000000  0.4164060000000  0.4515250000000 1.0
C      1  0.4825510000000  0.5388380000000  0.5043350000000 1.0
C      1  0.4629380000000  0.5837430000000  0.4711610000000 1.0
C      1  0.5722820000000  0.4703250000000  0.5406550000000 1.0
C      1  0.5621860000000  0.4501640000000  0.5210930000000 1.0
C      1  0.4459670000000  0.4143390000000  0.5064230000000 1.0
C      1  0.5869510000000  0.4252820000000  0.4681980000000 1.0
END
