TITL C-627113-6568-1690 0.147044732416274 125000 -615.682011467339 0 0 102 (C1) n - 1
REM
REM in /home/nfs/bkarasulu/CARBON/AIRSS/Generating-Clusters/LCBOP/Only-C1/SD-CG/FIRE-CG
REM
REM
REM
REM
REM
REM ./C.cell (11c1c37f851c82e70ff6c80c92926a4b)
REM AIRSS Version 0.9.1 bugfix July 2018 build 013d7b7c2542+ Fri, 06 Jul 2018 19:26:36 +0100
REM compiler GCC version 9.2.1 20190827 (Red Hat 9.2.1-1)
REM options -cpp -mtune=generic -march=x86-64 -g -O0 -fpre-include=/usr/include/finclude/math-vector-fortran.h
REM seed -52437278 770892906 -1190319026 -939066440 1408449732 -2025773912 785411270 -807990835 -1247562944 1305579830 1549280297 1236907474 644205408 1885333592 -797452363 -287692422 2139279289 26423979 -752286233 195262031 -191996827 -892354666 -172438929 -1921279060 183811833 -1933044414 1834901919 -1314343776 -2090382840 2067053745 -512338935 2092413097 -1250704559
REM
CELL 1.54180   50.00000   50.00000   50.00000   90.00000   90.00000   90.00000
LATT -1
SFAC C  
C      1  0.5773720000000  0.4255280000000  0.4783450000000 1.0
C      1  0.4903440000000  0.5782200000000  0.5124780000000 1.0
C      1  0.4393490000000  0.5049390000000  0.4963150000000 1.0
C      1  0.4647380000000  0.5021580000000  0.5337480000000 1.0
C      1  0.4994040000000  0.5075580000000  0.3969730000000 1.0
C      1  0.5017580000000  0.4270700000000  0.4705720000000 1.0
C      1  0.4506110000000  0.4420480000000  0.4979080000000 1.0
C      1  0.4620330000000  0.4897040000000  0.4299900000000 1.0
C      1  0.4469350000000  0.5353860000000  0.4495170000000 1.0
C      1  0.5254150000000  0.4323880000000  0.4058050000000 1.0
C      1  0.5134850000000  0.5216430000000  0.5080050000000 1.0
C      1  0.5180710000000  0.5447030000000  0.4221530000000 1.0
C      1  0.5281460000000  0.4994440000000  0.5081970000000 1.0
C      1  0.5373000000000  0.5598140000000  0.5185860000000 1.0
C      1  0.3777340000000  0.5376570000000  0.5754560000000 1.0
C      1  0.4543680000000  0.4521840000000  0.5736150000000 1.0
C      1  0.4339870000000  0.5510570000000  0.4704010000000 1.0
C      1  0.4463980000000  0.5554530000000  0.5174440000000 1.0
C      1  0.4709260000000  0.4131810000000  0.5296500000000 1.0
C      1  0.5982820000000  0.4683850000000  0.4790160000000 1.0
C      1  0.4126640000000  0.5415130000000  0.4879310000000 1.0
C      1  0.5734280000000  0.4782880000000  0.3913460000000 1.0
C      1  0.5608000000000  0.4528910000000  0.3453690000000 1.0
C      1  0.5378690000000  0.5424160000000  0.5432130000000 1.0
C      1  0.5368950000000  0.4885870000000  0.6462150000000 1.0
C      1  0.5944800000000  0.5217770000000  0.3938830000000 1.0
C      1  0.5460520000000  0.5227890000000  0.4598420000000 1.0
C      1  0.5019840000000  0.4655660000000  0.5779430000000 1.0
C      1  0.4683440000000  0.5179590000000  0.5572080000000 1.0
C      1  0.5312660000000  0.4713260000000  0.4685530000000 1.0
C      1  0.5671160000000  0.4648900000000  0.3676240000000 1.0
C      1  0.4190980000000  0.4908680000000  0.4485900000000 1.0
C      1  0.4765240000000  0.4729610000000  0.4744250000000 1.0
C      1  0.5228980000000  0.4518410000000  0.5123700000000 1.0
C      1  0.4591940000000  0.4688790000000  0.4516210000000 1.0
C      1  0.5833200000000  0.5283050000000  0.5257130000000 1.0
C      1  0.5180310000000  0.5771240000000  0.5063010000000 1.0
C      1  0.4620830000000  0.4156010000000  0.5019870000000 1.0
C      1  0.5716670000000  0.5067510000000  0.3920140000000 1.0
C      1  0.5598720000000  0.5549740000000  0.5003810000000 1.0
C      1  0.5317770000000  0.4969490000000  0.4540650000000 1.0
C      1  0.5428720000000  0.5487830000000  0.6076700000000 1.0
C      1  0.3636090000000  0.5456380000000  0.5964090000000 1.0
C      1  0.4895080000000  0.5168500000000  0.4603570000000 1.0
C      1  0.5530680000000  0.4611710000000  0.5819500000000 1.0
C      1  0.5849020000000  0.5553510000000  0.5152450000000 1.0
C      1  0.5365000000000  0.5464300000000  0.4444880000000 1.0
C      1  0.5197900000000  0.4461720000000  0.4575610000000 1.0
C      1  0.5211850000000  0.5262010000000  0.4001920000000 1.0
C      1  0.5255630000000  0.4404070000000  0.4306030000000 1.0
C      1  0.4986340000000  0.4937570000000  0.5836190000000 1.0
C      1  0.4812150000000  0.4497660000000  0.5652240000000 1.0
C      1  0.4802330000000  0.4997420000000  0.4801390000000 1.0
C      1  0.4228610000000  0.4833310000000  0.5049320000000 1.0
C      1  0.4888070000000  0.4954330000000  0.4202710000000 1.0
C      1  0.4722250000000  0.5036780000000  0.5809570000000 1.0
C      1  0.4816620000000  0.4084850000000  0.4808960000000 1.0
C      1  0.3919650000000  0.5295480000000  0.5546440000000 1.0
C      1  0.4079300000000  0.5204340000000  0.5335270000000 1.0
C      1  0.5141730000000  0.5357930000000  0.5599020000000 1.0
C      1  0.5406310000000  0.4300830000000  0.5133320000000 1.0
C      1  0.4855140000000  0.5414000000000  0.5529860000000 1.0
C      1  0.5311700000000  0.4741060000000  0.4970570000000 1.0
C      1  0.4674740000000  0.5102110000000  0.5043960000000 1.0
C      1  0.5355630000000  0.5714010000000  0.4581550000000 1.0
C      1  0.4206490000000  0.5399730000000  0.5164900000000 1.0
C      1  0.4912820000000  0.5526600000000  0.4292850000000 1.0
C      1  0.4754870000000  0.4574350000000  0.4976750000000 1.0
C      1  0.5818020000000  0.4636000000000  0.4137340000000 1.0
C      1  0.4951910000000  0.4512970000000  0.5180720000000 1.0
C      1  0.4755300000000  0.5387160000000  0.4482780000000 1.0
C      1  0.5062050000000  0.5020220000000  0.4425340000000 1.0
C      1  0.6035290000000  0.5746120000000  0.5182200000000 1.0
C      1  0.5255590000000  0.5841870000000  0.4796350000000 1.0
C      1  0.5889560000000  0.4466920000000  0.4639250000000 1.0
C      1  0.4491640000000  0.5681160000000  0.4892930000000 1.0
C      1  0.4108750000000  0.4914310000000  0.5297050000000 1.0
C      1  0.5791230000000  0.5128140000000  0.5007070000000 1.0
C      1  0.5173230000000  0.5162640000000  0.5821910000000 1.0
C      1  0.4849500000000  0.4361780000000  0.5402570000000 1.0
C      1  0.5682480000000  0.5069180000000  0.5659340000000 1.0
C      1  0.4296950000000  0.4604740000000  0.5676030000000 1.0
C      1  0.4775040000000  0.5541670000000  0.5267160000000 1.0
C      1  0.5611110000000  0.5293250000000  0.4837770000000 1.0
C      1  0.3355900000000  0.5614680000000  0.6379850000000 1.0
C      1  0.5865750000000  0.4502260000000  0.4362460000000 1.0
C      1  0.5606400000000  0.4201120000000  0.4985310000000 1.0
C      1  0.5933100000000  0.4904810000000  0.4927320000000 1.0
C      1  0.5681490000000  0.4823220000000  0.5760140000000 1.0
C      1  0.4307410000000  0.4667950000000  0.4605640000000 1.0
C      1  0.4807730000000  0.3830320000000  0.4704200000000 1.0
C      1  0.4873670000000  0.5318630000000  0.5087020000000 1.0
C      1  0.5272720000000  0.4544190000000  0.5826440000000 1.0
C      1  0.5347060000000  0.5055650000000  0.6265640000000 1.0
C      1  0.4285590000000  0.4594060000000  0.4889680000000 1.0
C      1  0.5631770000000  0.5263040000000  0.5464510000000 1.0
C      1  0.5465960000000  0.5193280000000  0.3907530000000 1.0
C      1  0.4131170000000  0.4741880000000  0.5517770000000 1.0
C      1  0.3494830000000  0.5536180000000  0.6173690000000 1.0
C      1  0.4392970000000  0.5093400000000  0.4376750000000 1.0
C      1  0.5320380000000  0.5237240000000  0.6054410000000 1.0
C      1  0.4713570000000  0.5859790000000  0.4918590000000 1.0
END
