TITL C-627111-6168-475 0.0528917155377662 125000 -348.280228455064 0 0 57 (C1) n - 1
REM
REM in /home/nfs/bkarasulu/CARBON/AIRSS/Generating-Clusters/LCBOP/Only-C1/SD-CG/FIRE-CG
REM
REM
REM
REM
REM
REM ./C.cell (11c1c37f851c82e70ff6c80c92926a4b)
REM AIRSS Version 0.9.1 bugfix July 2018 build 013d7b7c2542+ Fri, 06 Jul 2018 19:26:36 +0100
REM compiler GCC version 9.2.1 20190827 (Red Hat 9.2.1-1)
REM options -cpp -mtune=generic -march=x86-64 -g -O0 -fpre-include=/usr/include/finclude/math-vector-fortran.h
REM seed 86272322 -1731134293 -80047845 1150603302 -843160765 1326078301 947413913 -460172834 -1613593626 -2136715035 -2013951339 342938997 2039611546 927550174 1390597432 -664872198 -255002713 48795597 -807351962 982237263 231144065 427007088 1817638695 1762817949 82126869 103849301 -2065713734 1402790560 -1287507857 170070816 2063992191 -828408200 1163326492
REM
CELL 1.54180   50.00000   50.00000   50.00000   90.00000   90.00000   90.00000
LATT -1
SFAC C  
C      1  0.5749240000000  0.5066360000000  0.4695660000000 1.0
C      1  0.5422800000000  0.4701180000000  0.4718740000000 1.0
C      1  0.4764620000000  0.5030120000000  0.4830130000000 1.0
C      1  0.5471670000000  0.5220120000000  0.5855250000000 1.0
C      1  0.4795770000000  0.5357220000000  0.6163220000000 1.0
C      1  0.5147100000000  0.4921550000000  0.3941150000000 1.0
C      1  0.4967240000000  0.5684170000000  0.4564750000000 1.0
C      1  0.4443700000000  0.4821630000000  0.4549360000000 1.0
C      1  0.4643770000000  0.5428010000000  0.4279250000000 1.0
C      1  0.4657950000000  0.4972240000000  0.4121390000000 1.0
C      1  0.4757930000000  0.5287340000000  0.4720110000000 1.0
C      1  0.5153250000000  0.5720010000000  0.4755460000000 1.0
C      1  0.5051800000000  0.5507390000000  0.5187100000000 1.0
C      1  0.4527560000000  0.5225760000000  0.4121640000000 1.0
C      1  0.4986340000000  0.4521510000000  0.4602130000000 1.0
C      1  0.4924580000000  0.5140130000000  0.5528260000000 1.0
C      1  0.4321810000000  0.4544530000000  0.5099530000000 1.0
C      1  0.4306400000000  0.5008010000000  0.5239030000000 1.0
C      1  0.5043940000000  0.5275110000000  0.6112070000000 1.0
C      1  0.4374020000000  0.4814920000000  0.5047930000000 1.0
C      1  0.5925300000000  0.4768930000000  0.5070590000000 1.0
C      1  0.4073820000000  0.5497680000000  0.6059540000000 1.0
C      1  0.4285370000000  0.5153200000000  0.5460420000000 1.0
C      1  0.5940330000000  0.4953730000000  0.4873010000000 1.0
C      1  0.4619260000000  0.4782140000000  0.4330360000000 1.0
C      1  0.4801360000000  0.4109060000000  0.4861240000000 1.0
C      1  0.4881770000000  0.4939290000000  0.3954490000000 1.0
C      1  0.4579380000000  0.4116420000000  0.5009170000000 1.0
C      1  0.4781520000000  0.5479220000000  0.4516850000000 1.0
C      1  0.4300730000000  0.5388200000000  0.5952890000000 1.0
C      1  0.5579810000000  0.5151550000000  0.5363920000000 1.0
C      1  0.5422130000000  0.5156860000000  0.5131780000000 1.0
C      1  0.5386370000000  0.4603250000000  0.5548320000000 1.0
C      1  0.5646130000000  0.5325780000000  0.4750830000000 1.0
C      1  0.5575450000000  0.4883170000000  0.4558120000000 1.0
C      1  0.4540450000000  0.5391420000000  0.6098050000000 1.0
C      1  0.5590850000000  0.4559970000000  0.5381510000000 1.0
C      1  0.4519340000000  0.4885350000000  0.4815010000000 1.0
C      1  0.5153090000000  0.5053050000000  0.5117520000000 1.0
C      1  0.4300570000000  0.5269190000000  0.3976350000000 1.0
C      1  0.5018850000000  0.4919120000000  0.4904760000000 1.0
C      1  0.5075410000000  0.4995760000000  0.5719250000000 1.0
C      1  0.5456860000000  0.5380110000000  0.4951760000000 1.0
C      1  0.5140200000000  0.4718320000000  0.4740110000000 1.0
C      1  0.5608720000000  0.5204040000000  0.5624590000000 1.0
C      1  0.4394810000000  0.4288680000000  0.5095050000000 1.0
C      1  0.5554460000000  0.4533640000000  0.4902640000000 1.0
C      1  0.4956270000000  0.4265120000000  0.4710570000000 1.0
C      1  0.5241680000000  0.5570520000000  0.4976050000000 1.0
C      1  0.4826710000000  0.4598430000000  0.4384350000000 1.0
C      1  0.5710580000000  0.4593890000000  0.5130180000000 1.0
C      1  0.4294760000000  0.5272110000000  0.5697670000000 1.0
C      1  0.5187240000000  0.4744730000000  0.5657250000000 1.0
C      1  0.5205370000000  0.5155070000000  0.5919120000000 1.0
C      1  0.5382480000000  0.4908180000000  0.4064300000000 1.0
C      1  0.4997430000000  0.5241160000000  0.5277670000000 1.0
C      1  0.5533640000000  0.4896340000000  0.4282550000000 1.0
END
