TITL C-627113-6568-2128 -4657.49843773103 125000 -243.436102261595 0 0 42 (C1) n - 1
REM
REM in /home/nfs/bkarasulu/CARBON/AIRSS/Generating-Clusters/LCBOP/Only-C1/SD-CG/FIRE-CG
REM
REM
REM
REM
REM
REM ./C.cell (11c1c37f851c82e70ff6c80c92926a4b)
REM AIRSS Version 0.9.1 bugfix July 2018 build 013d7b7c2542+ Fri, 06 Jul 2018 19:26:36 +0100
REM compiler GCC version 9.2.1 20190827 (Red Hat 9.2.1-1)
REM options -cpp -mtune=generic -march=x86-64 -g -O0 -fpre-include=/usr/include/finclude/math-vector-fortran.h
REM seed 336717940 957297004 86674922 -2046511122 -2041965755 840229157 -1858447545 774136435 2092710602 -853787756 1591292710 1510192837 1121460983 -736698647 -1514450784 1529481869 -1925574036 807309242 2096684034 -592899841 -1110870705 -169628564 2021212160 76095997 1239026689 -177622779 1603271650 -710239668 -1736045640 -1843543874 -1762548370 -753319047 2047441394
REM
CELL 1.54180   50.00000   50.00000   50.00000   90.00000   90.00000   90.00000
LATT -1
SFAC C  
C      1  0.5051210000000  0.4263370000000  0.4937990000000 1.0
C      1  0.4784170000000  0.6026190000000  0.4625340000000 1.0
C      1  0.4950060000000  0.5271940000000  0.5359400000000 1.0
C      1  0.4902160000000  0.5832440000000  0.4487150000000 1.0
C      1  0.4623570000000  0.6098540000000  0.5107060000000 1.0
C      1  0.5097480000000  0.5098860000000  0.5196680000000 1.0
C      1  0.4631940000000  0.5947770000000  0.5326010000000 1.0
C      1  0.5275270000000  0.5266270000000  0.4693890000000 1.0
C      1  0.5369220000000  0.4717720000000  0.5717650000000 1.0
C      1  0.5008510000000  0.5592920000000  0.4445920000000 1.0
C      1  0.4816740000000  0.5481890000000  0.5451580000000 1.0
C      1  0.4161790000000  0.4558500000000  0.5227730000000 1.0
C      1  0.4583060000000  0.4612360000000  0.5558460000000 1.0
C      1  0.4498230000000  0.5085420000000  0.4280420000000 1.0
C      1  0.4359480000000  0.4583600000000  0.5395680000000 1.0
C      1  0.5543920000000  0.5287610000000  0.4646410000000 1.0
C      1  0.5162540000000  0.4839260000000  0.5292050000000 1.0
C      1  0.4569830000000  0.4735340000000  0.5813310000000 1.0
C      1  0.5008880000000  0.4413310000000  0.5682010000000 1.0
C      1  0.5088650000000  0.5328700000000  0.4488360000000 1.0
C      1  0.5651240000000  0.4851810000000  0.5341510000000 1.0
C      1  0.4703150000000  0.5721900000000  0.5446700000000 1.0
C      1  0.4798330000000  0.4647440000000  0.4799830000000 1.0
C      1  0.4977940000000  0.4623880000000  0.5250590000000 1.0
C      1  0.5286440000000  0.4788850000000  0.4155860000000 1.0
C      1  0.4680950000000  0.6126510000000  0.4848850000000 1.0
C      1  0.4728530000000  0.5005190000000  0.4403850000000 1.0
C      1  0.5878600000000  0.4902960000000  0.5224850000000 1.0
C      1  0.5107730000000  0.5128470000000  0.3865370000000 1.0
C      1  0.5001020000000  0.4715770000000  0.6047960000000 1.0
C      1  0.5650170000000  0.4171240000000  0.4485920000000 1.0
C      1  0.5158730000000  0.4587540000000  0.5851160000000 1.0
C      1  0.4978850000000  0.5118970000000  0.4331840000000 1.0
C      1  0.4724860000000  0.4810480000000  0.4604500000000 1.0
C      1  0.4942430000000  0.4507990000000  0.4994510000000 1.0
C      1  0.5419370000000  0.4578590000000  0.4246880000000 1.0
C      1  0.4841640000000  0.4519500000000  0.5478160000000 1.0
C      1  0.4739510000000  0.4779540000000  0.6018270000000 1.0
C      1  0.5538010000000  0.4372460000000  0.4363890000000 1.0
C      1  0.5399130000000  0.4804570000000  0.5450410000000 1.0
C      1  0.5125100000000  0.5013080000000  0.4112630000000 1.0
C      1  0.5181550000000  0.5181260000000  0.4943340000000 1.0
END
