TITL C-627113-6568-822 0.00498560505422644 125000 -243.949244518807 0 0 42 (C1) n - 1
REM
REM in /home/nfs/bkarasulu/CARBON/AIRSS/Generating-Clusters/LCBOP/Only-C1/SD-CG/FIRE-CG
REM
REM
REM
REM
REM
REM ./C.cell (11c1c37f851c82e70ff6c80c92926a4b)
REM AIRSS Version 0.9.1 bugfix July 2018 build 013d7b7c2542+ Fri, 06 Jul 2018 19:26:36 +0100
REM compiler GCC version 9.2.1 20190827 (Red Hat 9.2.1-1)
REM options -cpp -mtune=generic -march=x86-64 -g -O0 -fpre-include=/usr/include/finclude/math-vector-fortran.h
REM seed -2070461426 -707278068 -1974884413 628567171 -2028231790 469596087 -786748364 -1189532126 551761836 -1884047249 815873302 1268589132 -1921863220 1624452372 1627950315 -1122063184 1748378579 -122619674 1687742419 736717575 1690447929 1781311948 -545357732 -1886413427 1614370087 -162056117 1852667456 -944154396 -1394298656 -419934159 -210386601 -409215136 -1444085375
REM
CELL 1.54180   50.00000   50.00000   50.00000   90.00000   90.00000   90.00000
LATT -1
SFAC C  
C      1  0.5395190000000  0.4259560000000  0.5261460000000 1.0
C      1  0.5395280000000  0.4462000000000  0.4821130000000 1.0
C      1  0.5315650000000  0.4633380000000  0.4633970000000 1.0
C      1  0.5871350000000  0.4788930000000  0.5056650000000 1.0
C      1  0.5631050000000  0.5131840000000  0.4773480000000 1.0
C      1  0.5219320000000  0.4922880000000  0.4254420000000 1.0
C      1  0.4884610000000  0.5551500000000  0.4289390000000 1.0
C      1  0.5163920000000  0.5278750000000  0.4795610000000 1.0
C      1  0.4966080000000  0.5613190000000  0.4049670000000 1.0
C      1  0.5260040000000  0.5703100000000  0.5018810000000 1.0
C      1  0.5222620000000  0.5426960000000  0.5031540000000 1.0
C      1  0.4828730000000  0.4530890000000  0.5567560000000 1.0
C      1  0.4440720000000  0.4808260000000  0.5572310000000 1.0
C      1  0.5246840000000  0.5290280000000  0.5274190000000 1.0
C      1  0.5248720000000  0.5106640000000  0.5465180000000 1.0
C      1  0.4214150000000  0.4928810000000  0.5469040000000 1.0
C      1  0.5819960000000  0.5012300000000  0.4919350000000 1.0
C      1  0.5365560000000  0.5112720000000  0.4683040000000 1.0
C      1  0.4380400000000  0.5583930000000  0.4784980000000 1.0
C      1  0.4678850000000  0.4956760000000  0.5645010000000 1.0
C      1  0.4526030000000  0.4535920000000  0.5546330000000 1.0
C      1  0.4919420000000  0.4796680000000  0.5628690000000 1.0
C      1  0.5183340000000  0.4210880000000  0.5414170000000 1.0
C      1  0.5760020000000  0.4553340000000  0.5116640000000 1.0
C      1  0.4099620000000  0.5100010000000  0.5301200000000 1.0
C      1  0.5135990000000  0.4940890000000  0.4003600000000 1.0
C      1  0.4458220000000  0.4263750000000  0.5485970000000 1.0
C      1  0.4801510000000  0.5505450000000  0.4552040000000 1.0
C      1  0.5181470000000  0.4895610000000  0.5636490000000 1.0
C      1  0.4925550000000  0.4267400000000  0.5496350000000 1.0
C      1  0.5367080000000  0.4789640000000  0.5806850000000 1.0
C      1  0.4203010000000  0.5452070000000  0.4931640000000 1.0
C      1  0.4675870000000  0.5951210000000  0.4693250000000 1.0
C      1  0.4898430000000  0.5278980000000  0.4693900000000 1.0
C      1  0.5051040000000  0.4958690000000  0.3757780000000 1.0
C      1  0.5302080000000  0.5959650000000  0.5000630000000 1.0
C      1  0.5296530000000  0.4888910000000  0.4519970000000 1.0
C      1  0.4735570000000  0.5062590000000  0.4735650000000 1.0
C      1  0.4618370000000  0.5684110000000  0.4676880000000 1.0
C      1  0.4100490000000  0.5284890000000  0.5110530000000 1.0
C      1  0.4686110000000  0.4108440000000  0.5460100000000 1.0
C      1  0.5525210000000  0.4408230000000  0.5064540000000 1.0
END
