TITL C-627108-131-874 -33.9599397764834 125000 -491.290747750133 0 0 83 (C1) n - 1
REM
REM in /home/nfs/bkarasulu/CARBON/AIRSS/Generating-Clusters/LCBOP/Only-C1/SD-CG/FIRE-CG
REM
REM
REM
REM
REM
REM ./C.cell (11c1c37f851c82e70ff6c80c92926a4b)
REM AIRSS Version 0.9.1 bugfix July 2018 build 013d7b7c2542+ Fri, 06 Jul 2018 19:26:36 +0100
REM compiler GCC version 9.2.1 20190827 (Red Hat 9.2.1-1)
REM options -cpp -mtune=generic -march=x86-64 -g -O0 -fpre-include=/usr/include/finclude/math-vector-fortran.h
REM seed -484022568 929172244 -2075487317 -548554721 340309862 -1706093371 -264288892 1590953559 -1490616281 -1499839008 -1365633409 2008311086 1422207807 1929441038 -704865957 952120495 216467004 -2048763944 1770034928 -2098590314 1355947376 -1044653868 1972793575 1662079199 1358734045 -51645341 -126009126 -1711963146 1040470636 -829902363 -816001795 978798274 1095734726
REM
CELL 1.54180   50.00000   50.00000   50.00000   90.00000   90.00000   90.00000
LATT -1
SFAC C  
C      1  0.4904840000000  0.5024210000000  0.5944030000000 1.0
C      1  0.5787810000000  0.5044710000000  0.5416220000000 1.0
C      1  0.4979110000000  0.4053820000000  0.4781570000000 1.0
C      1  0.5506380000000  0.4593280000000  0.4788020000000 1.0
C      1  0.5818040000000  0.5349880000000  0.5008950000000 1.0
C      1  0.4749990000000  0.5096360000000  0.5054490000000 1.0
C      1  0.5165800000000  0.5278780000000  0.4317280000000 1.0
C      1  0.5619310000000  0.4450950000000  0.5016140000000 1.0
C      1  0.5033020000000  0.5455020000000  0.5585190000000 1.0
C      1  0.4932150000000  0.4933510000000  0.5484240000000 1.0
C      1  0.5182460000000  0.4587220000000  0.5280720000000 1.0
C      1  0.4820530000000  0.5229640000000  0.5536390000000 1.0
C      1  0.5196920000000  0.5337220000000  0.5040400000000 1.0
C      1  0.4496260000000  0.4402850000000  0.4402490000000 1.0
C      1  0.4383460000000  0.5815180000000  0.4860850000000 1.0
C      1  0.4787190000000  0.5698890000000  0.5098110000000 1.0
C      1  0.5265590000000  0.5737980000000  0.5246390000000 1.0
C      1  0.6177280000000  0.5326870000000  0.5340140000000 1.0
C      1  0.4673870000000  0.5269450000000  0.5275650000000 1.0
C      1  0.4219100000000  0.5602300000000  0.4880500000000 1.0
C      1  0.5708800000000  0.5045600000000  0.4552670000000 1.0
C      1  0.4162370000000  0.5214850000000  0.4279590000000 1.0
C      1  0.5359430000000  0.5018650000000  0.5689540000000 1.0
C      1  0.4685940000000  0.5183740000000  0.5814500000000 1.0
C      1  0.4826230000000  0.4850610000000  0.5141340000000 1.0
C      1  0.5054460000000  0.5590670000000  0.5101730000000 1.0
C      1  0.5462660000000  0.5781000000000  0.5033400000000 1.0
C      1  0.4507860000000  0.4594230000000  0.5459770000000 1.0
C      1  0.5016840000000  0.4420580000000  0.5450660000000 1.0
C      1  0.4896900000000  0.5658620000000  0.4599080000000 1.0
C      1  0.5629960000000  0.4547470000000  0.5299920000000 1.0
C      1  0.5385410000000  0.4847180000000  0.4857030000000 1.0
C      1  0.4301350000000  0.4876250000000  0.4728680000000 1.0
C      1  0.5093270000000  0.4951050000000  0.4690390000000 1.0
C      1  0.4688050000000  0.4404770000000  0.5069420000000 1.0
C      1  0.5215740000000  0.5647730000000  0.5514270000000 1.0
C      1  0.5478850000000  0.4958130000000  0.5084930000000 1.0
C      1  0.4569970000000  0.4662670000000  0.4326250000000 1.0
C      1  0.5507260000000  0.4879540000000  0.4420730000000 1.0
C      1  0.5213520000000  0.4993760000000  0.4377840000000 1.0
C      1  0.4726120000000  0.4414540000000  0.5361510000000 1.0
C      1  0.4524800000000  0.4266220000000  0.4646320000000 1.0
C      1  0.4467130000000  0.4414390000000  0.4884580000000 1.0
C      1  0.4637380000000  0.5877910000000  0.4937220000000 1.0
C      1  0.4462130000000  0.4995670000000  0.5789170000000 1.0
C      1  0.4430110000000  0.5122580000000  0.4298640000000 1.0
C      1  0.5669270000000  0.4837610000000  0.5262770000000 1.0
C      1  0.5191150000000  0.5074870000000  0.5919790000000 1.0
C      1  0.5439430000000  0.4587990000000  0.4505540000000 1.0
C      1  0.4326560000000  0.4668380000000  0.4939370000000 1.0
C      1  0.4448610000000  0.4881110000000  0.4464350000000 1.0
C      1  0.4968640000000  0.4662140000000  0.4673580000000 1.0
C      1  0.3997010000000  0.5167670000000  0.4491370000000 1.0
C      1  0.4800920000000  0.4718860000000  0.4167690000000 1.0
C      1  0.4891460000000  0.4600980000000  0.4953010000000 1.0
C      1  0.5204660000000  0.4401570000000  0.5674930000000 1.0
C      1  0.4561470000000  0.4731190000000  0.5707710000000 1.0
C      1  0.5142910000000  0.4461900000000  0.5035730000000 1.0
C      1  0.5634900000000  0.5089290000000  0.5652820000000 1.0
C      1  0.4918130000000  0.5321610000000  0.4183450000000 1.0
C      1  0.4606170000000  0.5535060000000  0.5239990000000 1.0
C      1  0.5144530000000  0.4550470000000  0.4453870000000 1.0
C      1  0.5205290000000  0.4931540000000  0.5435290000000 1.0
C      1  0.5154750000000  0.4199560000000  0.4927750000000 1.0
C      1  0.5321380000000  0.5338070000000  0.4779560000000 1.0
C      1  0.5281760000000  0.5117450000000  0.5210710000000 1.0
C      1  0.4799330000000  0.5411820000000  0.4672180000000 1.0
C      1  0.4866650000000  0.4769640000000  0.5764600000000 1.0
C      1  0.4119130000000  0.5106870000000  0.4744580000000 1.0
C      1  0.5179000000000  0.5716750000000  0.4581780000000 1.0
C      1  0.4732330000000  0.4071830000000  0.4672260000000 1.0
C      1  0.5807470000000  0.5197270000000  0.4759910000000 1.0
C      1  0.4657290000000  0.5251460000000  0.4190720000000 1.0
C      1  0.4332600000000  0.4694180000000  0.5239290000000 1.0
C      1  0.5340890000000  0.5855780000000  0.4776370000000 1.0
C      1  0.5929590000000  0.5241220000000  0.5257500000000 1.0
C      1  0.5692410000000  0.5608680000000  0.5026050000000 1.0
C      1  0.5060850000000  0.4559110000000  0.5865740000000 1.0
C      1  0.5283240000000  0.5450680000000  0.4517090000000 1.0
C      1  0.5486260000000  0.4433280000000  0.5549280000000 1.0
C      1  0.4859770000000  0.5160540000000  0.4793800000000 1.0
C      1  0.5071340000000  0.4747150000000  0.4243790000000 1.0
C      1  0.4161200000000  0.5339930000000  0.4898810000000 1.0
END
