TITL C-627109-622-1084 -1.5522304115267e-07 125000 -798.981640718174 0 0 130 (C1) n - 1
REM
REM in /home/nfs/bkarasulu/CARBON/AIRSS/Generating-Clusters/LCBOP/Only-C1/SD-CG/FIRE-CG
REM
REM
REM
REM
REM
REM ./C.cell (11c1c37f851c82e70ff6c80c92926a4b)
REM AIRSS Version 0.9.1 bugfix July 2018 build 013d7b7c2542+ Fri, 06 Jul 2018 19:26:36 +0100
REM compiler GCC version 9.2.1 20190827 (Red Hat 9.2.1-1)
REM options -cpp -mtune=generic -march=x86-64 -g -O0 -fpre-include=/usr/include/finclude/math-vector-fortran.h
REM seed -1215687153 -63181907 1719479816 669760880 -513957979 -158604044 1327031526 1662431504 1726157916 -1401121484 1648740035 1048823456 -1280012764 1168050881 -1989793059 674254416 -1544906929 -525971827 -1971140922 242050858 -1379473595 -24566788 -306238607 -1565950440 1217746694 -2044174880 -961060621 -2057946297 359493951 -506327892 -158951850 -1122183565 -2080383889
REM
CELL 1.54180   50.00000   50.00000   50.00000   90.00000   90.00000   90.00000
LATT -1
SFAC C  
C      1  0.4468980000000  0.5159240000000  0.5064550000000 1.0
C      1  0.4966380000000  0.4329190000000  0.5711240000000 1.0
C      1  0.5437330000000  0.4326230000000  0.5772940000000 1.0
C      1  0.4785980000000  0.5900890000000  0.5455980000000 1.0
C      1  0.5489620000000  0.5680960000000  0.4759770000000 1.0
C      1  0.4870840000000  0.5052290000000  0.4396970000000 1.0
C      1  0.5486180000000  0.4631110000000  0.5230480000000 1.0
C      1  0.5788720000000  0.5588420000000  0.4921420000000 1.0
C      1  0.4642670000000  0.4102000000000  0.5368540000000 1.0
C      1  0.4835460000000  0.4702400000000  0.4903800000000 1.0
C      1  0.4048800000000  0.5378470000000  0.4549270000000 1.0
C      1  0.4608370000000  0.4600370000000  0.4764030000000 1.0
C      1  0.5225000000000  0.4353850000000  0.5584150000000 1.0
C      1  0.4384000000000  0.5847410000000  0.4911870000000 1.0
C      1  0.6181880000000  0.4572990000000  0.5371320000000 1.0
C      1  0.4267480000000  0.4976360000000  0.5174230000000 1.0
C      1  0.4596270000000  0.5083280000000  0.4522600000000 1.0
C      1  0.4545340000000  0.5768980000000  0.4444380000000 1.0
C      1  0.5073440000000  0.5921470000000  0.4903640000000 1.0
C      1  0.5489900000000  0.4804200000000  0.5849330000000 1.0
C      1  0.4316180000000  0.4099940000000  0.5010550000000 1.0
C      1  0.5177610000000  0.5651410000000  0.5672780000000 1.0
C      1  0.6433990000000  0.5006870000000  0.5022270000000 1.0
C      1  0.4777290000000  0.5402360000000  0.5459780000000 1.0
C      1  0.3788990000000  0.5338170000000  0.4506010000000 1.0
C      1  0.5468220000000  0.5931070000000  0.5398430000000 1.0
C      1  0.5653760000000  0.4911340000000  0.4174450000000 1.0
C      1  0.5051090000000  0.4758370000000  0.5357670000000 1.0
C      1  0.4973380000000  0.4400830000000  0.4563870000000 1.0
C      1  0.5149010000000  0.5433690000000  0.5030790000000 1.0
C      1  0.4477120000000  0.5463610000000  0.5902350000000 1.0
C      1  0.4833900000000  0.5960420000000  0.4766350000000 1.0
C      1  0.4717970000000  0.4206650000000  0.5628560000000 1.0
C      1  0.4966750000000  0.4615970000000  0.4131940000000 1.0
C      1  0.5518220000000  0.5042120000000  0.4995260000000 1.0
C      1  0.5809030000000  0.5097250000000  0.4330960000000 1.0
C      1  0.5781400000000  0.5580070000000  0.5216570000000 1.0
C      1  0.5150140000000  0.4632010000000  0.4557640000000 1.0
C      1  0.5444640000000  0.5414810000000  0.4356660000000 1.0
C      1  0.5328570000000  0.5893730000000  0.5641910000000 1.0
C      1  0.4354840000000  0.4128430000000  0.3839290000000 1.0
C      1  0.4892180000000  0.5158860000000  0.5546550000000 1.0
C      1  0.4598920000000  0.5348310000000  0.5241030000000 1.0
C      1  0.5397000000000  0.4657470000000  0.4710380000000 1.0
C      1  0.4313000000000  0.4492060000000  0.5334310000000 1.0
C      1  0.4020140000000  0.5060920000000  0.5276290000000 1.0
C      1  0.4649190000000  0.5621900000000  0.4248450000000 1.0
C      1  0.4921700000000  0.4972160000000  0.4896270000000 1.0
C      1  0.5442910000000  0.4765730000000  0.4980410000000 1.0
C      1  0.5996440000000  0.5441410000000  0.4797190000000 1.0
C      1  0.5032260000000  0.5165810000000  0.5068800000000 1.0
C      1  0.5648860000000  0.4607690000000  0.4576050000000 1.0
C      1  0.4290840000000  0.5502400000000  0.5710810000000 1.0
C      1  0.4994890000000  0.4109260000000  0.4221780000000 1.0
C      1  0.5721210000000  0.4716540000000  0.5372190000000 1.0
C      1  0.4738100000000  0.3897010000000  0.4895930000000 1.0
C      1  0.5972190000000  0.4688470000000  0.5236220000000 1.0
C      1  0.6183370000000  0.4989300000000  0.4899510000000 1.0
C      1  0.4399320000000  0.4964630000000  0.4359380000000 1.0
C      1  0.4574610000000  0.5876240000000  0.4701660000000 1.0
C      1  0.5346680000000  0.5422390000000  0.5759340000000 1.0
C      1  0.4820760000000  0.4286970000000  0.3805410000000 1.0
C      1  0.5214700000000  0.5239700000000  0.5937680000000 1.0
C      1  0.4818000000000  0.5452100000000  0.4102500000000 1.0
C      1  0.5472650000000  0.5668070000000  0.4475050000000 1.0
C      1  0.5354270000000  0.5444290000000  0.5226600000000 1.0
C      1  0.5878500000000  0.4629650000000  0.4744890000000 1.0
C      1  0.5001710000000  0.4491040000000  0.5004030000000 1.0
C      1  0.5655260000000  0.4654230000000  0.4295150000000 1.0
C      1  0.5517890000000  0.5687690000000  0.5273380000000 1.0
C      1  0.3541490000000  0.5138790000000  0.5107030000000 1.0
C      1  0.5216940000000  0.5674020000000  0.4875650000000 1.0
C      1  0.4783380000000  0.4954450000000  0.5726780000000 1.0
C      1  0.4687180000000  0.4390980000000  0.4590480000000 1.0
C      1  0.3459630000000  0.5203670000000  0.4861380000000 1.0
C      1  0.4507620000000  0.4171530000000  0.4566480000000 1.0
C      1  0.6899360000000  0.5049620000000  0.5262820000000 1.0
C      1  0.4231770000000  0.5607370000000  0.4940910000000 1.0
C      1  0.4272040000000  0.4102550000000  0.4091970000000 1.0
C      1  0.3756630000000  0.5093780000000  0.5257660000000 1.0
C      1  0.4946840000000  0.4339350000000  0.4052140000000 1.0
C      1  0.4286970000000  0.4694870000000  0.5132400000000 1.0
C      1  0.5619520000000  0.5236600000000  0.4490170000000 1.0
C      1  0.4984820000000  0.4818430000000  0.5892140000000 1.0
C      1  0.5752610000000  0.5327910000000  0.5382740000000 1.0
C      1  0.5187270000000  0.4037370000000  0.4867410000000 1.0
C      1  0.4986490000000  0.5265150000000  0.4235970000000 1.0
C      1  0.4711180000000  0.5412940000000  0.6027460000000 1.0
C      1  0.5617890000000  0.5374330000000  0.5650130000000 1.0
C      1  0.4403520000000  0.5993770000000  0.5152610000000 1.0
C      1  0.4402420000000  0.4568720000000  0.5602160000000 1.0
C      1  0.4488550000000  0.4338640000000  0.5750410000000 1.0
C      1  0.4608410000000  0.4767350000000  0.5589120000000 1.0
C      1  0.5157220000000  0.4271680000000  0.4996650000000 1.0
C      1  0.5664850000000  0.4842700000000  0.5624180000000 1.0
C      1  0.4131280000000  0.5561880000000  0.5205820000000 1.0
C      1  0.4980670000000  0.3944460000000  0.4439320000000 1.0
C      1  0.3557440000000  0.5276830000000  0.4623790000000 1.0
C      1  0.4818350000000  0.5462980000000  0.3828760000000 1.0
C      1  0.5413580000000  0.5037210000000  0.4068750000000 1.0
C      1  0.6108120000000  0.5192580000000  0.4712410000000 1.0
C      1  0.4166920000000  0.5538850000000  0.5473560000000 1.0
C      1  0.4766780000000  0.3919840000000  0.5184980000000 1.0
C      1  0.5392380000000  0.6134210000000  0.5218640000000 1.0
C      1  0.5566350000000  0.5161220000000  0.4749670000000 1.0
C      1  0.4969720000000  0.5337570000000  0.6055380000000 1.0
C      1  0.4255590000000  0.5407570000000  0.4735130000000 1.0
C      1  0.4515030000000  0.5943160000000  0.5393080000000 1.0
C      1  0.5054460000000  0.5043670000000  0.5337650000000 1.0
C      1  0.5010960000000  0.4796020000000  0.4356680000000 1.0
C      1  0.4473070000000  0.5211940000000  0.4768370000000 1.0
C      1  0.4785520000000  0.4670570000000  0.5380290000000 1.0
C      1  0.5130580000000  0.6100340000000  0.5120430000000 1.0
C      1  0.5270460000000  0.5263210000000  0.4187240000000 1.0
C      1  0.4974020000000  0.3913030000000  0.4726020000000 1.0
C      1  0.4353890000000  0.4626230000000  0.4869370000000 1.0
C      1  0.4947170000000  0.4536570000000  0.5915370000000 1.0
C      1  0.6010670000000  0.4765480000000  0.4958860000000 1.0
C      1  0.4944480000000  0.6096840000000  0.5330870000000 1.0
C      1  0.4581670000000  0.4203700000000  0.3718330000000 1.0
C      1  0.5244660000000  0.4952880000000  0.5912030000000 1.0
C      1  0.4342230000000  0.4125440000000  0.4347500000000 1.0
C      1  0.5507410000000  0.4532320000000  0.5937030000000 1.0
C      1  0.6669150000000  0.5029560000000  0.5142150000000 1.0
C      1  0.5531030000000  0.5206840000000  0.5227080000000 1.0
C      1  0.5258110000000  0.4565720000000  0.5386350000000 1.0
C      1  0.6066370000000  0.5114610000000  0.4440560000000 1.0
C      1  0.4397610000000  0.4224610000000  0.5253220000000 1.0
C      1  0.4905910000000  0.5650110000000  0.5543870000000 1.0
C      1  0.4491490000000  0.4013880000000  0.4802780000000 1.0
END
