TITL C-627109-622-271 1.74148268593277e-06 125000 -1032.41758968523 0 0 166 (C1) n - 1
REM
REM in /home/nfs/bkarasulu/CARBON/AIRSS/Generating-Clusters/LCBOP/Only-C1/SD-CG/FIRE-CG
REM
REM
REM
REM
REM
REM ./C.cell (11c1c37f851c82e70ff6c80c92926a4b)
REM AIRSS Version 0.9.1 bugfix July 2018 build 013d7b7c2542+ Fri, 06 Jul 2018 19:26:36 +0100
REM compiler GCC version 9.2.1 20190827 (Red Hat 9.2.1-1)
REM options -cpp -mtune=generic -march=x86-64 -g -O0 -fpre-include=/usr/include/finclude/math-vector-fortran.h
REM seed 1648208879 373027368 -1190883364 456386658 1880906576 -111464262 480531939 -1355935081 -1441646527 193311802 786155399 -1378896484 608722242 252265754 -903015398 59121957 438098009 1953925729 -612717075 1386831909 -1009195306 1469005034 1858584479 -24803885 -1011331348 -690777989 1944186193 132373335 382393446 1324308715 1428872421 929143781 -1013020455
REM
CELL 1.54180   50.00000   50.00000   50.00000   90.00000   90.00000   90.00000
LATT -1
SFAC C  
C      1  0.5358900000000  0.4692630000000  0.4803300000000 1.0
C      1  0.4929970000000  0.4404080000000  0.5134740000000 1.0
C      1  0.4346320000000  0.5243460000000  0.4568880000000 1.0
C      1  0.4775100000000  0.4481260000000  0.5659210000000 1.0
C      1  0.5366520000000  0.4958250000000  0.4891180000000 1.0
C      1  0.3766350000000  0.5518670000000  0.5698150000000 1.0
C      1  0.5171180000000  0.5485970000000  0.3859340000000 1.0
C      1  0.5043120000000  0.5867910000000  0.4122030000000 1.0
C      1  0.5638260000000  0.4328550000000  0.4493000000000 1.0
C      1  0.4969940000000  0.4401650000000  0.5427770000000 1.0
C      1  0.5984960000000  0.5439010000000  0.5304060000000 1.0
C      1  0.5153110000000  0.4153230000000  0.4456290000000 1.0
C      1  0.5421310000000  0.4180170000000  0.4367080000000 1.0
C      1  0.5239660000000  0.4375420000000  0.5525020000000 1.0
C      1  0.5912970000000  0.5109860000000  0.5730230000000 1.0
C      1  0.5411120000000  0.5102740000000  0.5517600000000 1.0
C      1  0.4661570000000  0.5628400000000  0.5478350000000 1.0
C      1  0.4192950000000  0.4267890000000  0.4481960000000 1.0
C      1  0.4640670000000  0.3834470000000  0.4817590000000 1.0
C      1  0.5425910000000  0.4152300000000  0.5579210000000 1.0
C      1  0.5565570000000  0.5159190000000  0.5295660000000 1.0
C      1  0.3801030000000  0.5441400000000  0.4979750000000 1.0
C      1  0.4108600000000  0.4722600000000  0.4807500000000 1.0
C      1  0.5009490000000  0.5249760000000  0.5027660000000 1.0
C      1  0.4387280000000  0.4712560000000  0.4369990000000 1.0
C      1  0.4226610000000  0.5377440000000  0.5618750000000 1.0
C      1  0.5364000000000  0.6131190000000  0.5034320000000 1.0
C      1  0.4959540000000  0.5033960000000  0.4563920000000 1.0
C      1  0.5043640000000  0.5173730000000  0.6257910000000 1.0
C      1  0.5711600000000  0.4557330000000  0.4336900000000 1.0
C      1  0.4892570000000  0.5191970000000  0.4782820000000 1.0
C      1  0.6210230000000  0.5169580000000  0.4921380000000 1.0
C      1  0.5506820000000  0.3987200000000  0.5109690000000 1.0
C      1  0.4856790000000  0.5357010000000  0.4265320000000 1.0
C      1  0.5152950000000  0.5702440000000  0.5098500000000 1.0
C      1  0.4765960000000  0.5915780000000  0.5508840000000 1.0
C      1  0.5051330000000  0.3848510000000  0.5114490000000 1.0
C      1  0.5467420000000  0.5783530000000  0.4483730000000 1.0
C      1  0.3585290000000  0.5874570000000  0.4989260000000 1.0
C      1  0.4309860000000  0.4778340000000  0.4640420000000 1.0
C      1  0.4803990000000  0.5841080000000  0.4268490000000 1.0
C      1  0.5628970000000  0.6088460000000  0.5064060000000 1.0
C      1  0.5154390000000  0.5502070000000  0.5665810000000 1.0
C      1  0.5453700000000  0.5629660000000  0.4249430000000 1.0
C      1  0.5225320000000  0.4651970000000  0.4563840000000 1.0
C      1  0.3890630000000  0.5390690000000  0.5245280000000 1.0
C      1  0.6006340000000  0.5440490000000  0.4569690000000 1.0
C      1  0.5734040000000  0.5943710000000  0.5504390000000 1.0
C      1  0.5358780000000  0.4620580000000  0.5626680000000 1.0
C      1  0.5460030000000  0.5722100000000  0.4743160000000 1.0
C      1  0.4365340000000  0.3921400000000  0.4854350000000 1.0
C      1  0.5121090000000  0.5986400000000  0.5062270000000 1.0
C      1  0.4652260000000  0.4744700000000  0.5565200000000 1.0
C      1  0.5767930000000  0.4330550000000  0.4762290000000 1.0
C      1  0.5540060000000  0.5774520000000  0.5626920000000 1.0
C      1  0.5891850000000  0.5563710000000  0.4819730000000 1.0
C      1  0.5240070000000  0.4032920000000  0.4991840000000 1.0
C      1  0.3719420000000  0.5244380000000  0.4785540000000 1.0
C      1  0.4707020000000  0.6094160000000  0.5297850000000 1.0
C      1  0.5011230000000  0.5476220000000  0.5196350000000 1.0
C      1  0.4780870000000  0.5232780000000  0.4013890000000 1.0
C      1  0.5734150000000  0.4150270000000  0.5016710000000 1.0
C      1  0.4690390000000  0.5621460000000  0.4688690000000 1.0
C      1  0.4195550000000  0.4227600000000  0.6029520000000 1.0
C      1  0.4585640000000  0.3927960000000  0.5282980000000 1.0
C      1  0.6003470000000  0.4417560000000  0.5412490000000 1.0
C      1  0.5247260000000  0.5681370000000  0.4052840000000 1.0
C      1  0.4569540000000  0.5033850000000  0.3990690000000 1.0
C      1  0.5077810000000  0.5190210000000  0.4359860000000 1.0
C      1  0.4526960000000  0.4920040000000  0.3743230000000 1.0
C      1  0.4774720000000  0.3837890000000  0.5071120000000 1.0
C      1  0.5099510000000  0.4960900000000  0.3456370000000 1.0
C      1  0.4336990000000  0.3962360000000  0.5139710000000 1.0
C      1  0.4935190000000  0.5474260000000  0.5479240000000 1.0
C      1  0.6233470000000  0.5289320000000  0.4673430000000 1.0
C      1  0.4556160000000  0.5079840000000  0.6176390000000 1.0
C      1  0.4869900000000  0.4133770000000  0.4478800000000 1.0
C      1  0.4777080000000  0.5181050000000  0.6287850000000 1.0
C      1  0.5667170000000  0.4812960000000  0.4230960000000 1.0
C      1  0.4465260000000  0.4928130000000  0.5682560000000 1.0
C      1  0.3937540000000  0.4393730000000  0.4527470000000 1.0
C      1  0.5299120000000  0.4841860000000  0.3882790000000 1.0
C      1  0.5816600000000  0.5277530000000  0.4396110000000 1.0
C      1  0.3983370000000  0.5824650000000  0.4725330000000 1.0
C      1  0.5738330000000  0.5320420000000  0.4910830000000 1.0
C      1  0.4391760000000  0.4950470000000  0.4203170000000 1.0
C      1  0.5603620000000  0.4258860000000  0.5779380000000 1.0
C      1  0.5022230000000  0.5953440000000  0.5642440000000 1.0
C      1  0.4541560000000  0.5495270000000  0.5209060000000 1.0
C      1  0.5607010000000  0.4544470000000  0.5176940000000 1.0
C      1  0.4355760000000  0.5138750000000  0.5522270000000 1.0
C      1  0.5538320000000  0.5398640000000  0.5126170000000 1.0
C      1  0.5149300000000  0.3812110000000  0.5389600000000 1.0
C      1  0.3789850000000  0.5716560000000  0.4897840000000 1.0
C      1  0.5168190000000  0.5025420000000  0.5088700000000 1.0
C      1  0.5566370000000  0.5122380000000  0.4775010000000 1.0
C      1  0.5170800000000  0.4308960000000  0.5008010000000 1.0
C      1  0.4452460000000  0.4960570000000  0.5961290000000 1.0
C      1  0.5445700000000  0.4159000000000  0.4084290000000 1.0
C      1  0.5552990000000  0.5364410000000  0.4288180000000 1.0
C      1  0.5445620000000  0.5143550000000  0.5968880000000 1.0
C      1  0.5794090000000  0.4331700000000  0.5242970000000 1.0
C      1  0.5134280000000  0.5015160000000  0.3723160000000 1.0
C      1  0.5012110000000  0.5248830000000  0.3833620000000 1.0
C      1  0.5394210000000  0.4321170000000  0.3877270000000 1.0
C      1  0.6095260000000  0.4640890000000  0.5536520000000 1.0
C      1  0.4486590000000  0.5042510000000  0.5034170000000 1.0
C      1  0.5071680000000  0.4882380000000  0.5316020000000 1.0
C      1  0.5929130000000  0.4786560000000  0.4592180000000 1.0
C      1  0.6075210000000  0.4894520000000  0.5629610000000 1.0
C      1  0.4935910000000  0.4579220000000  0.5908490000000 1.0
C      1  0.5702870000000  0.4735180000000  0.5966530000000 1.0
C      1  0.4616680000000  0.4223940000000  0.5692090000000 1.0
C      1  0.4769630000000  0.3889330000000  0.4576720000000 1.0
C      1  0.4792640000000  0.4838430000000  0.5335290000000 1.0
C      1  0.3601990000000  0.4994670000000  0.4847460000000 1.0
C      1  0.4233980000000  0.4036090000000  0.4637860000000 1.0
C      1  0.4781760000000  0.4567550000000  0.4676500000000 1.0
C      1  0.5433980000000  0.4930460000000  0.4118140000000 1.0
C      1  0.5794630000000  0.4987180000000  0.5210030000000 1.0
C      1  0.4583950000000  0.6013100000000  0.4287210000000 1.0
C      1  0.4649470000000  0.4811400000000  0.5085770000000 1.0
C      1  0.5344840000000  0.5163090000000  0.4258160000000 1.0
C      1  0.5389610000000  0.5314040000000  0.5724670000000 1.0
C      1  0.5709280000000  0.5017830000000  0.5931000000000 1.0
C      1  0.3961740000000  0.5428670000000  0.5519650000000 1.0
C      1  0.3639380000000  0.4734300000000  0.4785830000000 1.0
C      1  0.3398040000000  0.5698230000000  0.6027370000000 1.0
C      1  0.5939130000000  0.5687010000000  0.5109250000000 1.0
C      1  0.5266800000000  0.4863090000000  0.5518510000000 1.0
C      1  0.5968270000000  0.5198440000000  0.5094110000000 1.0
C      1  0.5397800000000  0.5613090000000  0.4995830000000 1.0
C      1  0.3785830000000  0.5277100000000  0.4510630000000 1.0
C      1  0.4234060000000  0.5158320000000  0.4327530000000 1.0
C      1  0.4458430000000  0.5209340000000  0.5268150000000 1.0
C      1  0.3959160000000  0.5217040000000  0.4312650000000 1.0
C      1  0.5632550000000  0.5503210000000  0.5669290000000 1.0
C      1  0.4553840000000  0.5503760000000  0.4910920000000 1.0
C      1  0.4398580000000  0.4216450000000  0.5866560000000 1.0
C      1  0.4751910000000  0.4570370000000  0.4962020000000 1.0
C      1  0.4428410000000  0.4420620000000  0.4388300000000 1.0
C      1  0.5099460000000  0.4764260000000  0.6022000000000 1.0
C      1  0.3873070000000  0.4594080000000  0.4718630000000 1.0
C      1  0.5785460000000  0.4743910000000  0.5070520000000 1.0
C      1  0.5418580000000  0.3934430000000  0.5397260000000 1.0
C      1  0.5845340000000  0.4982490000000  0.4402270000000 1.0
C      1  0.5867980000000  0.6130920000000  0.5652950000000 1.0
C      1  0.5876910000000  0.4623620000000  0.4815330000000 1.0
C      1  0.4778280000000  0.5593870000000  0.4413580000000 1.0
C      1  0.5571710000000  0.4543710000000  0.5812520000000 1.0
C      1  0.4963790000000  0.4752670000000  0.4560470000000 1.0
C      1  0.4690950000000  0.4359780000000  0.4499610000000 1.0
C      1  0.4425850000000  0.5579330000000  0.5666810000000 1.0
C      1  0.4873500000000  0.6115120000000  0.5086990000000 1.0
C      1  0.5379780000000  0.4500960000000  0.5006740000000 1.0
C      1  0.3580840000000  0.5608890000000  0.5864380000000 1.0
C      1  0.4343020000000  0.6035880000000  0.4400930000000 1.0
C      1  0.5249480000000  0.5783040000000  0.5668340000000 1.0
C      1  0.5214500000000  0.5019130000000  0.6094360000000 1.0
C      1  0.4141850000000  0.5956210000000  0.4556660000000 1.0
C      1  0.4946090000000  0.3855240000000  0.5585440000000 1.0
C      1  0.5878660000000  0.5369580000000  0.5583790000000 1.0
C      1  0.4446870000000  0.5241090000000  0.4825640000000 1.0
C      1  0.4696320000000  0.3991020000000  0.5538440000000 1.0
C      1  0.5791260000000  0.5916550000000  0.5221440000000 1.0
C      1  0.5330250000000  0.4571550000000  0.3810830000000 1.0
END
