TITL C-627106-156-1510 0.00711308050608808 125000 -537.506699585735 0 0 86 (C1) n - 1
REM
REM in /home/nfs/bkarasulu/CARBON/AIRSS/Generating-Clusters/LCBOP/Only-C1/SD-CG/FIRE-CG
REM
REM
REM
REM
REM
REM ./C.cell (11c1c37f851c82e70ff6c80c92926a4b)
REM AIRSS Version 0.9.1 bugfix July 2018 build 013d7b7c2542+ Fri, 06 Jul 2018 19:26:36 +0100
REM compiler GCC version 9.2.1 20190827 (Red Hat 9.2.1-1)
REM options -cpp -mtune=generic -march=x86-64 -g -O0 -fpre-include=/usr/include/finclude/math-vector-fortran.h
REM seed -144972517 -1224930737 1857238177 1888393002 119194359 -2085239262 1501772687 -74957203 233812003 1871894889 1780702143 -465006063 -202136874 -1762519306 -1180848698 698017332 -1698386304 -428765111 -1025850057 580578192 -405558993 -313195737 -1752722458 -1848816999 -1444302472 -819255843 -1571787061 1543592989 -1390349772 1329351949 -1413961128 85353809 1262939292
REM
CELL 1.54180   50.00000   50.00000   50.00000   90.00000   90.00000   90.00000
LATT -1
SFAC C  
C      1  0.3919180000000  0.4953300000000  0.5296080000000 1.0
C      1  0.5081130000000  0.4648580000000  0.4787840000000 1.0
C      1  0.5120700000000  0.4806660000000  0.4108300000000 1.0
C      1  0.4151000000000  0.4834390000000  0.5185060000000 1.0
C      1  0.4547010000000  0.5099650000000  0.5253790000000 1.0
C      1  0.5278840000000  0.5661350000000  0.5388880000000 1.0
C      1  0.4626230000000  0.4327010000000  0.5797480000000 1.0
C      1  0.5061810000000  0.4176970000000  0.4447400000000 1.0
C      1  0.3851820000000  0.5346090000000  0.5018320000000 1.0
C      1  0.5606730000000  0.5428840000000  0.4521560000000 1.0
C      1  0.4324190000000  0.4625560000000  0.4738110000000 1.0
C      1  0.5138340000000  0.5090160000000  0.4996040000000 1.0
C      1  0.4482490000000  0.5196760000000  0.4994000000000 1.0
C      1  0.4860580000000  0.4013300000000  0.4889110000000 1.0
C      1  0.4159230000000  0.4805660000000  0.4900300000000 1.0
C      1  0.4846640000000  0.4814400000000  0.4170020000000 1.0
C      1  0.4940000000000  0.5580050000000  0.5022510000000 1.0
C      1  0.6021130000000  0.4311980000000  0.5293950000000 1.0
C      1  0.4821260000000  0.5016810000000  0.4621310000000 1.0
C      1  0.3792070000000  0.5181450000000  0.5225220000000 1.0
C      1  0.5285560000000  0.4585780000000  0.4206320000000 1.0
C      1  0.4764840000000  0.5761080000000  0.5202580000000 1.0
C      1  0.4266160000000  0.4689370000000  0.4458070000000 1.0
C      1  0.4404230000000  0.4860070000000  0.5320910000000 1.0
C      1  0.4072190000000  0.5032560000000  0.4722990000000 1.0
C      1  0.4923610000000  0.4201640000000  0.4691040000000 1.0
C      1  0.5048560000000  0.5675540000000  0.5563620000000 1.0
C      1  0.4791690000000  0.5608380000000  0.4755960000000 1.0
C      1  0.4519810000000  0.4636340000000  0.5442390000000 1.0
C      1  0.5619050000000  0.5152010000000  0.4479400000000 1.0
C      1  0.5191750000000  0.4329190000000  0.4267850000000 1.0
C      1  0.4647720000000  0.4620180000000  0.4124660000000 1.0
C      1  0.5865950000000  0.5495700000000  0.4908020000000 1.0
C      1  0.5813180000000  0.4473140000000  0.5326080000000 1.0
C      1  0.5273080000000  0.5057690000000  0.4120970000000 1.0
C      1  0.4759920000000  0.4031440000000  0.5137280000000 1.0
C      1  0.5520500000000  0.5000460000000  0.4257950000000 1.0
C      1  0.4277030000000  0.5145650000000  0.4284190000000 1.0
C      1  0.4964490000000  0.5285560000000  0.5117490000000 1.0
C      1  0.4943210000000  0.5301480000000  0.6212870000000 1.0
C      1  0.4981720000000  0.4888890000000  0.5969390000000 1.0
C      1  0.5050350000000  0.5503270000000  0.4293670000000 1.0
C      1  0.6122180000000  0.5610380000000  0.4944170000000 1.0
C      1  0.4977240000000  0.5455930000000  0.5729070000000 1.0
C      1  0.5513150000000  0.4710910000000  0.4333620000000 1.0
C      1  0.4603200000000  0.5061590000000  0.4784540000000 1.0
C      1  0.4325150000000  0.5410490000000  0.4890360000000 1.0
C      1  0.4062660000000  0.5302150000000  0.4834350000000 1.0
C      1  0.4686550000000  0.4266630000000  0.6316010000000 1.0
C      1  0.4409780000000  0.4578040000000  0.4244240000000 1.0
C      1  0.5554470000000  0.4704930000000  0.4622010000000 1.0
C      1  0.5228680000000  0.5677060000000  0.5098360000000 1.0
C      1  0.4914590000000  0.5205280000000  0.5599620000000 1.0
C      1  0.5212170000000  0.4833460000000  0.5538310000000 1.0
C      1  0.4542900000000  0.5181050000000  0.4253440000000 1.0
C      1  0.4666830000000  0.4178290000000  0.5339680000000 1.0
C      1  0.5607720000000  0.4639300000000  0.5344080000000 1.0
C      1  0.6225820000000  0.4154020000000  0.5260600000000 1.0
C      1  0.4603900000000  0.4381010000000  0.5523940000000 1.0
C      1  0.4500600000000  0.5604740000000  0.4774640000000 1.0
C      1  0.4582720000000  0.4531010000000  0.4801960000000 1.0
C      1  0.4799370000000  0.5197700000000  0.5340010000000 1.0
C      1  0.5039050000000  0.4929720000000  0.4778190000000 1.0
C      1  0.5427370000000  0.5697560000000  0.4898930000000 1.0
C      1  0.5027160000000  0.4962460000000  0.5701840000000 1.0
C      1  0.5912260000000  0.5293970000000  0.5341040000000 1.0
C      1  0.6279980000000  0.5544550000000  0.5156740000000 1.0
C      1  0.4150150000000  0.4959260000000  0.4453060000000 1.0
C      1  0.4654120000000  0.4291320000000  0.6058530000000 1.0
C      1  0.4949950000000  0.5032220000000  0.6195330000000 1.0
C      1  0.5401320000000  0.4827770000000  0.5333450000000 1.0
C      1  0.5353650000000  0.4571440000000  0.4769700000000 1.0
C      1  0.5161020000000  0.5314260000000  0.4139400000000 1.0
C      1  0.6184510000000  0.5378490000000  0.5351450000000 1.0
C      1  0.5641810000000  0.5580370000000  0.4756900000000 1.0
C      1  0.4928750000000  0.5601980000000  0.4510280000000 1.0
C      1  0.4833320000000  0.5822640000000  0.5455780000000 1.0
C      1  0.5724820000000  0.5400840000000  0.5520110000000 1.0
C      1  0.5813100000000  0.5261900000000  0.5072530000000 1.0
C      1  0.5388230000000  0.5010580000000  0.5114600000000 1.0
C      1  0.4858020000000  0.4470920000000  0.4766460000000 1.0
C      1  0.5517720000000  0.5568020000000  0.5500560000000 1.0
C      1  0.5645060000000  0.4969770000000  0.4707730000000 1.0
C      1  0.4763770000000  0.5026530000000  0.4342760000000 1.0
C      1  0.4959520000000  0.5476450000000  0.6008920000000 1.0
C      1  0.5630690000000  0.5068590000000  0.4973710000000 1.0
END
