TITL C-627110-360-1092 0.00167124456640229 125000 -392.821350855209 0 0 65 (C1) n - 1
REM
REM in /home/nfs/bkarasulu/CARBON/AIRSS/Generating-Clusters/LCBOP/Only-C1/SD-CG/FIRE-CG
REM
REM
REM
REM
REM
REM ./C.cell (11c1c37f851c82e70ff6c80c92926a4b)
REM AIRSS Version 0.9.1 bugfix July 2018 build 013d7b7c2542+ Fri, 06 Jul 2018 19:26:36 +0100
REM compiler GCC version 9.2.1 20190827 (Red Hat 9.2.1-1)
REM options -cpp -mtune=generic -march=x86-64 -g -O0 -fpre-include=/usr/include/finclude/math-vector-fortran.h
REM seed -403749277 -846381099 1207866441 -294645707 -462048859 -546452257 574692006 1191054491 -1898699830 20112170 -215352370 1006996844 2036775031 258527101 -1957905782 -445146395 -1229627236 -431548937 677865880 -1476760135 406346974 -1282741665 1670241231 -1493089755 -1490961034 -1577609541 1425057398 1789075182 -877263481 856403669 -101444837 -1892522380 79778534
REM
CELL 1.54180   50.00000   50.00000   50.00000   90.00000   90.00000   90.00000
LATT -1
SFAC C  
C      1  0.5876090000000  0.5027570000000  0.5152210000000 1.0
C      1  0.4324640000000  0.5554850000000  0.4968340000000 1.0
C      1  0.5680080000000  0.5419730000000  0.6530190000000 1.0
C      1  0.5475520000000  0.4626570000000  0.4700270000000 1.0
C      1  0.5925570000000  0.5349510000000  0.4576970000000 1.0
C      1  0.4482940000000  0.5146460000000  0.4713760000000 1.0
C      1  0.5142890000000  0.4388130000000  0.4193740000000 1.0
C      1  0.4594190000000  0.4473720000000  0.5174260000000 1.0
C      1  0.4659430000000  0.5843320000000  0.4543020000000 1.0
C      1  0.5117250000000  0.4449830000000  0.5432640000000 1.0
C      1  0.4497190000000  0.4511990000000  0.4911610000000 1.0
C      1  0.5224160000000  0.4515570000000  0.4642450000000 1.0
C      1  0.5495080000000  0.5581980000000  0.4694720000000 1.0
C      1  0.4878640000000  0.6065680000000  0.4952100000000 1.0
C      1  0.4534680000000  0.5437610000000  0.4797710000000 1.0
C      1  0.5984680000000  0.5115290000000  0.4691830000000 1.0
C      1  0.5044820000000  0.4057910000000  0.5103600000000 1.0
C      1  0.4717280000000  0.4716130000000  0.5282690000000 1.0
C      1  0.4655030000000  0.4865590000000  0.4320410000000 1.0
C      1  0.5874960000000  0.4939430000000  0.4882720000000 1.0
C      1  0.5753650000000  0.5198740000000  0.5321790000000 1.0
C      1  0.4967200000000  0.4565010000000  0.4749180000000 1.0
C      1  0.5178370000000  0.4237010000000  0.5278390000000 1.0
C      1  0.5731790000000  0.5533600000000  0.4581100000000 1.0
C      1  0.4606530000000  0.5457310000000  0.5568460000000 1.0
C      1  0.4267660000000  0.5592760000000  0.5227890000000 1.0
C      1  0.4385480000000  0.4073050000000  0.5424330000000 1.0
C      1  0.4941380000000  0.4655400000000  0.5445000000000 1.0
C      1  0.4430000000000  0.3798990000000  0.5417190000000 1.0
C      1  0.5136540000000  0.3988950000000  0.4845170000000 1.0
C      1  0.4588580000000  0.4629660000000  0.4460840000000 1.0
C      1  0.4662350000000  0.3747720000000  0.5274140000000 1.0
C      1  0.4980840000000  0.5984990000000  0.5185170000000 1.0
C      1  0.5288230000000  0.5019760000000  0.5026020000000 1.0
C      1  0.5027980000000  0.5511220000000  0.4844530000000 1.0
C      1  0.5078980000000  0.5533510000000  0.5452230000000 1.0
C      1  0.4373820000000  0.5552350000000  0.5471200000000 1.0
C      1  0.5189190000000  0.4051740000000  0.4587180000000 1.0
C      1  0.4316170000000  0.4729330000000  0.4902550000000 1.0
C      1  0.4618110000000  0.5432140000000  0.4055120000000 1.0
C      1  0.4857740000000  0.4815540000000  0.4128200000000 1.0
C      1  0.5512060000000  0.5427270000000  0.6032060000000 1.0
C      1  0.5427660000000  0.5430860000000  0.5781040000000 1.0
C      1  0.5373420000000  0.5282620000000  0.5058700000000 1.0
C      1  0.4563380000000  0.5111500000000  0.4433340000000 1.0
C      1  0.4581600000000  0.5574130000000  0.4529880000000 1.0
C      1  0.5702840000000  0.4735410000000  0.4790770000000 1.0
C      1  0.5339200000000  0.5431400000000  0.5516620000000 1.0
C      1  0.5503630000000  0.5330060000000  0.5306750000000 1.0
C      1  0.4782050000000  0.3997140000000  0.5186610000000 1.0
C      1  0.4792800000000  0.5403140000000  0.4951000000000 1.0
C      1  0.4784830000000  0.5233200000000  0.5186280000000 1.0
C      1  0.5596760000000  0.5423470000000  0.6283190000000 1.0
C      1  0.5213310000000  0.4299470000000  0.4452630000000 1.0
C      1  0.5294380000000  0.4780750000000  0.5127650000000 1.0
C      1  0.4592640000000  0.4212500000000  0.5275130000000 1.0
C      1  0.5056420000000  0.5801140000000  0.5363310000000 1.0
C      1  0.4839910000000  0.5373900000000  0.5431040000000 1.0
C      1  0.4689610000000  0.4526130000000  0.4702040000000 1.0
C      1  0.4651310000000  0.4977140000000  0.5156490000000 1.0
C      1  0.4591110000000  0.5376710000000  0.4319930000000 1.0
C      1  0.5025030000000  0.4606620000000  0.4086210000000 1.0
C      1  0.4766430000000  0.6019480000000  0.4714030000000 1.0
C      1  0.4451050000000  0.4974310000000  0.4937710000000 1.0
C      1  0.5302870000000  0.5476020000000  0.4866680000000 1.0
END
