TITL C-627111-6168-1277 1.02272381528367e-06 125000 -1201.8418014687 0 0 195 (C1) n - 1
REM
REM in /home/nfs/bkarasulu/CARBON/AIRSS/Generating-Clusters/LCBOP/Only-C1/SD-CG/FIRE-CG
REM
REM
REM
REM
REM
REM ./C.cell (11c1c37f851c82e70ff6c80c92926a4b)
REM AIRSS Version 0.9.1 bugfix July 2018 build 013d7b7c2542+ Fri, 06 Jul 2018 19:26:36 +0100
REM compiler GCC version 9.2.1 20190827 (Red Hat 9.2.1-1)
REM options -cpp -mtune=generic -march=x86-64 -g -O0 -fpre-include=/usr/include/finclude/math-vector-fortran.h
REM seed 1119226897 515508692 -896151623 1228645144 -1491143241 -665253109 -1781621362 1989981958 -2010977152 -1164817996 -329482366 -1899026301 1566899961 -891889443 1962056646 -1909263060 -747492899 329592553 217609629 -652371327 1263160923 -1025381058 855238364 30408884 -533129961 1380480984 -132038393 1289953825 -937254589 -578823693 1165840969 1003401357 2087119751
REM
CELL 1.54180   50.00000   50.00000   50.00000   90.00000   90.00000   90.00000
LATT -1
SFAC C  
C      1  0.6130820000000  0.4259190000000  0.4597590000000 1.0
C      1  0.5919320000000  0.5036590000000  0.4153390000000 1.0
C      1  0.4678950000000  0.5198710000000  0.4974310000000 1.0
C      1  0.5180320000000  0.6211730000000  0.5497940000000 1.0
C      1  0.4612840000000  0.5264670000000  0.5248810000000 1.0
C      1  0.5047480000000  0.5898800000000  0.5860760000000 1.0
C      1  0.4300060000000  0.5901150000000  0.4269760000000 1.0
C      1  0.5722420000000  0.4666130000000  0.4895390000000 1.0
C      1  0.5325130000000  0.4946660000000  0.5073910000000 1.0
C      1  0.5229210000000  0.4422840000000  0.4782120000000 1.0
C      1  0.5388050000000  0.4536700000000  0.5451590000000 1.0
C      1  0.4889710000000  0.5828350000000  0.4512930000000 1.0
C      1  0.5785680000000  0.5864600000000  0.5743170000000 1.0
C      1  0.4484490000000  0.5074950000000  0.6084620000000 1.0
C      1  0.6221350000000  0.4515530000000  0.4584610000000 1.0
C      1  0.4497580000000  0.5919520000000  0.5567610000000 1.0
C      1  0.5592730000000  0.5965010000000  0.4261290000000 1.0
C      1  0.4859680000000  0.4500830000000  0.5477740000000 1.0
C      1  0.4902590000000  0.5215640000000  0.4805360000000 1.0
C      1  0.5946940000000  0.5291890000000  0.5360430000000 1.0
C      1  0.5898900000000  0.5339840000000  0.5658400000000 1.0
C      1  0.5312930000000  0.5566900000000  0.4318470000000 1.0
C      1  0.4979060000000  0.4029440000000  0.4800810000000 1.0
C      1  0.4226140000000  0.5592250000000  0.5410710000000 1.0
C      1  0.4446400000000  0.4654450000000  0.5564450000000 1.0
C      1  0.4964400000000  0.6078160000000  0.5628640000000 1.0
C      1  0.5229860000000  0.4453470000000  0.5235120000000 1.0
C      1  0.4450520000000  0.5351070000000  0.4482250000000 1.0
C      1  0.4155090000000  0.5441300000000  0.5838940000000 1.0
C      1  0.5110270000000  0.5361150000000  0.4927720000000 1.0
C      1  0.5666510000000  0.5272910000000  0.5283240000000 1.0
C      1  0.4954540000000  0.4336450000000  0.4831400000000 1.0
C      1  0.4276330000000  0.5869590000000  0.5392730000000 1.0
C      1  0.6102860000000  0.5044350000000  0.4612060000000 1.0
C      1  0.5731410000000  0.4905380000000  0.5920560000000 1.0
C      1  0.3969710000000  0.5284330000000  0.5726670000000 1.0
C      1  0.4086860000000  0.5824120000000  0.4942070000000 1.0
C      1  0.4674880000000  0.3965230000000  0.4740490000000 1.0
C      1  0.5003720000000  0.5590340000000  0.5362140000000 1.0
C      1  0.4875340000000  0.5770310000000  0.6064670000000 1.0
C      1  0.5471590000000  0.5739720000000  0.4150390000000 1.0
C      1  0.5841470000000  0.4595860000000  0.5515540000000 1.0
C      1  0.5624290000000  0.4711090000000  0.3964090000000 1.0
C      1  0.4400020000000  0.4394330000000  0.5632020000000 1.0
C      1  0.4409820000000  0.6179300000000  0.4736520000000 1.0
C      1  0.4107420000000  0.4360430000000  0.3543570000000 1.0
C      1  0.4628630000000  0.5612130000000  0.4021370000000 1.0
C      1  0.3943310000000  0.4605290000000  0.4224490000000 1.0
C      1  0.4757460000000  0.6475480000000  0.4172870000000 1.0
C      1  0.6109700000000  0.5152780000000  0.5151520000000 1.0
C      1  0.4951860000000  0.4328040000000  0.4155860000000 1.0
C      1  0.6018150000000  0.4767280000000  0.4234760000000 1.0
C      1  0.4407550000000  0.4677780000000  0.4433910000000 1.0
C      1  0.3930710000000  0.4609690000000  0.5421970000000 1.0
C      1  0.5432810000000  0.4850110000000  0.4572240000000 1.0
C      1  0.4680880000000  0.5727970000000  0.4700260000000 1.0
C      1  0.6152170000000  0.4775030000000  0.4492620000000 1.0
C      1  0.4232330000000  0.4920970000000  0.4390700000000 1.0
C      1  0.4483700000000  0.3897080000000  0.4947800000000 1.0
C      1  0.5251030000000  0.5339530000000  0.5813910000000 1.0
C      1  0.4709800000000  0.4465980000000  0.4082070000000 1.0
C      1  0.4422480000000  0.5574190000000  0.4660530000000 1.0
C      1  0.4913510000000  0.4017060000000  0.5348680000000 1.0
C      1  0.5449150000000  0.6275500000000  0.4650940000000 1.0
C      1  0.5030110000000  0.5641660000000  0.4335540000000 1.0
C      1  0.4158960000000  0.4497100000000  0.4062160000000 1.0
C      1  0.5693260000000  0.4665260000000  0.6037010000000 1.0
C      1  0.5431570000000  0.4304540000000  0.4320420000000 1.0
C      1  0.4828070000000  0.5582570000000  0.5565420000000 1.0
C      1  0.5802190000000  0.4586610000000  0.4166660000000 1.0
C      1  0.5268570000000  0.4522330000000  0.5704160000000 1.0
C      1  0.3962980000000  0.4803620000000  0.4431290000000 1.0
C      1  0.4436620000000  0.6152850000000  0.5023450000000 1.0
C      1  0.5234510000000  0.3991920000000  0.4997510000000 1.0
C      1  0.5738470000000  0.5574430000000  0.5743730000000 1.0
C      1  0.5836820000000  0.4106830000000  0.5492840000000 1.0
C      1  0.5054000000000  0.4827310000000  0.6137860000000 1.0
C      1  0.4148920000000  0.5561220000000  0.4813280000000 1.0
C      1  0.4583860000000  0.5345600000000  0.6039570000000 1.0
C      1  0.4733140000000  0.5099940000000  0.5451200000000 1.0
C      1  0.5600950000000  0.6151790000000  0.4450330000000 1.0
C      1  0.3810380000000  0.5158570000000  0.4714130000000 1.0
C      1  0.5850250000000  0.6011530000000  0.5511930000000 1.0
C      1  0.6033390000000  0.5183930000000  0.4868180000000 1.0
C      1  0.4128260000000  0.4428110000000  0.3794360000000 1.0
C      1  0.4800020000000  0.5724960000000  0.4957890000000 1.0
C      1  0.4114990000000  0.5676970000000  0.4226500000000 1.0
C      1  0.4889440000000  0.4692140000000  0.5965050000000 1.0
C      1  0.5918240000000  0.4104750000000  0.4676620000000 1.0
C      1  0.4637580000000  0.4051410000000  0.4453800000000 1.0
C      1  0.5573240000000  0.5439210000000  0.3743080000000 1.0
C      1  0.5103920000000  0.4008120000000  0.4506600000000 1.0
C      1  0.5656660000000  0.4678890000000  0.4614230000000 1.0
C      1  0.5574500000000  0.4794720000000  0.5108420000000 1.0
C      1  0.4586970000000  0.5673800000000  0.5686100000000 1.0
C      1  0.3907750000000  0.5100070000000  0.5543410000000 1.0
C      1  0.4192010000000  0.5408290000000  0.4124760000000 1.0
C      1  0.3992630000000  0.4586670000000  0.5715020000000 1.0
C      1  0.5722540000000  0.4985890000000  0.3944430000000 1.0
C      1  0.5845700000000  0.4426140000000  0.4978120000000 1.0
C      1  0.5591050000000  0.5326380000000  0.5019370000000 1.0
C      1  0.4111050000000  0.4290500000000  0.5005910000000 1.0
C      1  0.4201140000000  0.4902530000000  0.5196080000000 1.0
C      1  0.6247800000000  0.4910010000000  0.5204050000000 1.0
C      1  0.4170840000000  0.4164830000000  0.4514820000000 1.0
C      1  0.5636830000000  0.3906330000000  0.5505500000000 1.0
C      1  0.4584110000000  0.4180170000000  0.5670780000000 1.0
C      1  0.4969090000000  0.4603640000000  0.5219650000000 1.0
C      1  0.4750310000000  0.5931200000000  0.6250400000000 1.0
C      1  0.4984500000000  0.4022390000000  0.5901700000000 1.0
C      1  0.5251230000000  0.4065500000000  0.5791030000000 1.0
C      1  0.4322230000000  0.6078240000000  0.4496680000000 1.0
C      1  0.5354890000000  0.3963170000000  0.5526760000000 1.0
C      1  0.6057490000000  0.4424990000000  0.5168180000000 1.0
C      1  0.4391070000000  0.4538910000000  0.4690670000000 1.0
C      1  0.4840130000000  0.5476950000000  0.6084510000000 1.0
C      1  0.4799940000000  0.4515790000000  0.4988210000000 1.0
C      1  0.4631140000000  0.4323800000000  0.6117160000000 1.0
C      1  0.5370380000000  0.4040450000000  0.4413930000000 1.0
C      1  0.5722470000000  0.5102520000000  0.5721020000000 1.0
C      1  0.5169280000000  0.4986300000000  0.4220230000000 1.0
C      1  0.4403710000000  0.4177920000000  0.4350270000000 1.0
C      1  0.4963290000000  0.6103470000000  0.4511120000000 1.0
C      1  0.5785720000000  0.5337590000000  0.4815180000000 1.0
C      1  0.4894980000000  0.4101030000000  0.4329620000000 1.0
C      1  0.5613000000000  0.4681240000000  0.5374640000000 1.0
C      1  0.4528970000000  0.5871850000000  0.4095800000000 1.0
C      1  0.4253910000000  0.5206090000000  0.4332520000000 1.0
C      1  0.4646400000000  0.6210220000000  0.5218560000000 1.0
C      1  0.4842070000000  0.6283760000000  0.4335050000000 1.0
C      1  0.5341460000000  0.5214180000000  0.4971660000000 1.0
C      1  0.4153420000000  0.4696060000000  0.5919560000000 1.0
C      1  0.4290020000000  0.4073980000000  0.5070340000000 1.0
C      1  0.5715810000000  0.4196990000000  0.4859990000000 1.0
C      1  0.4707570000000  0.5313420000000  0.4386720000000 1.0
C      1  0.5438860000000  0.5555380000000  0.5814260000000 1.0
C      1  0.5730020000000  0.5347680000000  0.4530220000000 1.0
C      1  0.5382380000000  0.5059400000000  0.4387580000000 1.0
C      1  0.5327710000000  0.5824070000000  0.5878630000000 1.0
C      1  0.4233820000000  0.5978510000000  0.5132640000000 1.0
C      1  0.5010910000000  0.5583660000000  0.5081990000000 1.0
C      1  0.5464050000000  0.5333110000000  0.4419800000000 1.0
C      1  0.6241120000000  0.4642680000000  0.5167390000000 1.0
C      1  0.4663870000000  0.6658380000000  0.4012440000000 1.0
C      1  0.5235170000000  0.4410990000000  0.4125200000000 1.0
C      1  0.5180290000000  0.6195750000000  0.4662680000000 1.0
C      1  0.5424790000000  0.4201330000000  0.4878590000000 1.0
C      1  0.5640770000000  0.5182810000000  0.3766910000000 1.0
C      1  0.5019300000000  0.5060540000000  0.5439520000000 1.0
C      1  0.5939160000000  0.5193390000000  0.4395840000000 1.0
C      1  0.4632920000000  0.4605250000000  0.6064590000000 1.0
C      1  0.4208300000000  0.5366540000000  0.5031360000000 1.0
C      1  0.5069020000000  0.5326740000000  0.6023940000000 1.0
C      1  0.5851620000000  0.3131030000000  0.5466920000000 1.0
C      1  0.3842910000000  0.4873070000000  0.4686170000000 1.0
C      1  0.4774890000000  0.4225280000000  0.5467480000000 1.0
C      1  0.4821340000000  0.5495420000000  0.4202220000000 1.0
C      1  0.4705630000000  0.6098100000000  0.5483640000000 1.0
C      1  0.4431790000000  0.4462800000000  0.4206230000000 1.0
C      1  0.4355800000000  0.5389110000000  0.5267450000000 1.0
C      1  0.5420750000000  0.6236770000000  0.5384370000000 1.0
C      1  0.5519970000000  0.5137060000000  0.5501540000000 1.0
C      1  0.5183840000000  0.3960930000000  0.5285570000000 1.0
C      1  0.5566740000000  0.5982930000000  0.5896100000000 1.0
C      1  0.4713700000000  0.4129930000000  0.5923190000000 1.0
C      1  0.4484070000000  0.3635410000000  0.5034840000000 1.0
C      1  0.4477480000000  0.5046600000000  0.4861980000000 1.0
C      1  0.5715920000000  0.3638000000000  0.5496060000000 1.0
C      1  0.4943380000000  0.4932400000000  0.4357830000000 1.0
C      1  0.4567670000000  0.4894770000000  0.5554130000000 1.0
C      1  0.5365800000000  0.4590360000000  0.3942120000000 1.0
C      1  0.3934430000000  0.4494550000000  0.5130560000000 1.0
C      1  0.5371170000000  0.4318290000000  0.5872950000000 1.0
C      1  0.4178350000000  0.4348460000000  0.4728580000000 1.0
C      1  0.5086200000000  0.4883750000000  0.5222700000000 1.0
C      1  0.5552430000000  0.6467950000000  0.4813740000000 1.0
C      1  0.5657320000000  0.4481630000000  0.4391020000000 1.0
C      1  0.5537350000000  0.3827650000000  0.4378550000000 1.0
C      1  0.5576340000000  0.4420130000000  0.6037780000000 1.0
C      1  0.5960700000000  0.4350740000000  0.5429600000000 1.0
C      1  0.3911490000000  0.5411720000000  0.4689730000000 1.0
C      1  0.5247470000000  0.5169550000000  0.5584870000000 1.0
C      1  0.4537010000000  0.4602600000000  0.4926110000000 1.0
C      1  0.3988300000000  0.4893440000000  0.5374250000000 1.0
C      1  0.4428230000000  0.5504600000000  0.5858830000000 1.0
C      1  0.5679150000000  0.6166070000000  0.5371480000000 1.0
C      1  0.4398320000000  0.4832070000000  0.5017430000000 1.0
C      1  0.4859210000000  0.5132710000000  0.4535200000000 1.0
C      1  0.3828780000000  0.4686500000000  0.4914750000000 1.0
C      1  0.4412040000000  0.5438450000000  0.3936330000000 1.0
C      1  0.4992710000000  0.4590180000000  0.5718690000000 1.0
C      1  0.4408320000000  0.4793680000000  0.6042600000000 1.0
C      1  0.5517860000000  0.5656060000000  0.3887600000000 1.0
C      1  0.5784690000000  0.3382560000000  0.5481550000000 1.0
C      1  0.5226650000000  0.4685190000000  0.4677400000000 1.0
END
