TITL C-627107-135-232 -5.15443838415633e-07 125000 -394.474991614482 0 0 65 (C1) n - 1
REM
REM in /home/nfs/bkarasulu/CARBON/AIRSS/Generating-Clusters/LCBOP/Only-C1/SD-CG/FIRE-CG
REM
REM
REM
REM
REM
REM ./C.cell (11c1c37f851c82e70ff6c80c92926a4b)
REM AIRSS Version 0.9.1 bugfix July 2018 build 013d7b7c2542+ Fri, 06 Jul 2018 19:26:36 +0100
REM compiler GCC version 9.2.1 20190827 (Red Hat 9.2.1-1)
REM options -cpp -mtune=generic -march=x86-64 -g -O0 -fpre-include=/usr/include/finclude/math-vector-fortran.h
REM seed 693420089 1268847393 482367270 1970850791 -2083726595 -1887999514 1453672030 735690217 -2021530415 617565492 -1566984320 -1557854478 -385804844 -626934418 -493820986 -1807642639 1563235800 -1446469540 -191627000 1720426398 -1118039522 1943592426 1923480320 -1494045905 -1658568573 1245726737 1454917876 -1832289886 -435413499 1322882630 -1644017175 350039199 -836147289
REM
CELL 1.54180   50.00000   50.00000   50.00000   90.00000   90.00000   90.00000
LATT -1
SFAC C  
C      1  0.4840630000000  0.4787830000000  0.4911750000000 1.0
C      1  0.4858620000000  0.4602390000000  0.5124310000000 1.0
C      1  0.5709960000000  0.5312780000000  0.5366960000000 1.0
C      1  0.4940670000000  0.5810330000000  0.4960520000000 1.0
C      1  0.4350440000000  0.5322460000000  0.4748720000000 1.0
C      1  0.4335520000000  0.4758370000000  0.5544070000000 1.0
C      1  0.4735900000000  0.5462240000000  0.4445810000000 1.0
C      1  0.5058780000000  0.5352700000000  0.5661130000000 1.0
C      1  0.5796350000000  0.5112130000000  0.5189890000000 1.0
C      1  0.4586770000000  0.4660090000000  0.5522050000000 1.0
C      1  0.4350520000000  0.5411230000000  0.5036220000000 1.0
C      1  0.5307170000000  0.4379390000000  0.4770980000000 1.0
C      1  0.5445300000000  0.5406130000000  0.5368340000000 1.0
C      1  0.4840590000000  0.4684790000000  0.5398200000000 1.0
C      1  0.5545010000000  0.4650530000000  0.5302800000000 1.0
C      1  0.5151890000000  0.5781670000000  0.5486420000000 1.0
C      1  0.4542090000000  0.5238040000000  0.5198590000000 1.0
C      1  0.4460460000000  0.5201030000000  0.5468510000000 1.0
C      1  0.4888600000000  0.4358030000000  0.4049240000000 1.0
C      1  0.5274940000000  0.5525970000000  0.5559620000000 1.0
C      1  0.4311790000000  0.4810170000000  0.4583930000000 1.0
C      1  0.5342770000000  0.5067900000000  0.4569970000000 1.0
C      1  0.4894550000000  0.4908180000000  0.4679260000000 1.0
C      1  0.5124610000000  0.5731130000000  0.4780670000000 1.0
C      1  0.5722060000000  0.4843420000000  0.5214340000000 1.0
C      1  0.4994510000000  0.4409450000000  0.4295010000000 1.0
C      1  0.4878910000000  0.4333980000000  0.5028740000000 1.0
C      1  0.4242910000000  0.5018660000000  0.5491330000000 1.0
C      1  0.4029250000000  0.5135870000000  0.5340950000000 1.0
C      1  0.4989750000000  0.5362210000000  0.4496530000000 1.0
C      1  0.5028580000000  0.4316570000000  0.4780620000000 1.0
C      1  0.5486060000000  0.4832830000000  0.4645540000000 1.0
C      1  0.4419900000000  0.4572120000000  0.4526480000000 1.0
C      1  0.4799260000000  0.5202390000000  0.5107210000000 1.0
C      1  0.4484240000000  0.5684120000000  0.5091360000000 1.0
C      1  0.4644950000000  0.4171780000000  0.5027540000000 1.0
C      1  0.4862930000000  0.4339780000000  0.4538680000000 1.0
C      1  0.5848850000000  0.5593350000000  0.4713860000000 1.0
C      1  0.5607080000000  0.4011790000000  0.4889480000000 1.0
C      1  0.4865840000000  0.5727610000000  0.5434820000000 1.0
C      1  0.5701810000000  0.4883720000000  0.4816070000000 1.0
C      1  0.5275130000000  0.6023560000000  0.5476060000000 1.0
C      1  0.4493760000000  0.4176510000000  0.4800090000000 1.0
C      1  0.5058530000000  0.5233210000000  0.5074450000000 1.0
C      1  0.5711650000000  0.3780450000000  0.4830650000000 1.0
C      1  0.5553790000000  0.4398340000000  0.5181490000000 1.0
C      1  0.4276800000000  0.5057530000000  0.4679710000000 1.0
C      1  0.5783200000000  0.5145380000000  0.4895720000000 1.0
C      1  0.5297500000000  0.5317730000000  0.5146110000000 1.0
C      1  0.5207240000000  0.5521710000000  0.4611260000000 1.0
C      1  0.5491870000000  0.4258590000000  0.4947410000000 1.0
C      1  0.5067210000000  0.4818660000000  0.5518930000000 1.0
C      1  0.5056210000000  0.5083440000000  0.4533760000000 1.0
C      1  0.5380180000000  0.4577700000000  0.4576450000000 1.0
C      1  0.5696360000000  0.5369460000000  0.4744470000000 1.0
C      1  0.4812690000000  0.5504170000000  0.5617420000000 1.0
C      1  0.4493250000000  0.5468470000000  0.4556260000000 1.0
C      1  0.4569130000000  0.5375430000000  0.5655140000000 1.0
C      1  0.5247010000000  0.4535040000000  0.4329120000000 1.0
C      1  0.4752340000000  0.5763950000000  0.5170270000000 1.0
C      1  0.4080250000000  0.5341630000000  0.5164240000000 1.0
C      1  0.5439110000000  0.5342360000000  0.4625790000000 1.0
C      1  0.4576620000000  0.4345170000000  0.4584130000000 1.0
C      1  0.5324370000000  0.4716020000000  0.5463780000000 1.0
C      1  0.5054980000000  0.5070320000000  0.5650740000000 1.0
END
