TITL C-627113-6568-418 131.785294008371 125000 -836.928716785467 0 0 135 (C1) n - 1
REM
REM in /home/nfs/bkarasulu/CARBON/AIRSS/Generating-Clusters/LCBOP/Only-C1/SD-CG/FIRE-CG
REM
REM
REM
REM
REM
REM ./C.cell (11c1c37f851c82e70ff6c80c92926a4b)
REM AIRSS Version 0.9.1 bugfix July 2018 build 013d7b7c2542+ Fri, 06 Jul 2018 19:26:36 +0100
REM compiler GCC version 9.2.1 20190827 (Red Hat 9.2.1-1)
REM options -cpp -mtune=generic -march=x86-64 -g -O0 -fpre-include=/usr/include/finclude/math-vector-fortran.h
REM seed -1311555361 667212501 1346187370 -1380277612 156893543 -1037498187 753159862 822071149 59525504 -129396962 -356911927 -1260960182 -159045479 1964645452 -1898857346 -470372392 1127665812 335731900 -1260027366 -1052743674 713411875 1650055368 214615572 1115696318 142381406 251209026 1248695411 -2090648066 -84645446 -2023592110 1452734668 293101159 728901298
REM
CELL 1.54180   50.00000   50.00000   50.00000   90.00000   90.00000   90.00000
LATT -1
SFAC C  
C      1  0.4200930000000  0.5373960000000  0.5143150000000 1.0
C      1  0.4759760000000  0.5995940000000  0.4833840000000 1.0
C      1  0.5105890000000  0.4444450000000  0.4211770000000 1.0
C      1  0.6194080000000  0.5909400000000  0.5406460000000 1.0
C      1  0.4755920000000  0.5656280000000  0.4158090000000 1.0
C      1  0.4798120000000  0.3826060000000  0.4716970000000 1.0
C      1  0.5482340000000  0.6148990000000  0.5231470000000 1.0
C      1  0.5054150000000  0.5505060000000  0.5103560000000 1.0
C      1  0.4832710000000  0.5385430000000  0.4092150000000 1.0
C      1  0.4880030000000  0.5008960000000  0.5062940000000 1.0
C      1  0.5153490000000  0.4961580000000  0.4451740000000 1.0
C      1  0.4990120000000  0.4093400000000  0.5076640000000 1.0
C      1  0.5546910000000  0.6139780000000  0.5496440000000 1.0
C      1  0.4738240000000  0.4798610000000  0.5466710000000 1.0
C      1  0.5494810000000  0.4674190000000  0.4767980000000 1.0
C      1  0.5321170000000  0.4917200000000  0.5405130000000 1.0
C      1  0.5785600000000  0.5452110000000  0.5600110000000 1.0
C      1  0.4114110000000  0.4812380000000  0.4707800000000 1.0
C      1  0.4057040000000  0.5493240000000  0.4916060000000 1.0
C      1  0.4430640000000  0.4958130000000  0.5069850000000 1.0
C      1  0.4337110000000  0.3677290000000  0.4738710000000 1.0
C      1  0.4266950000000  0.5527540000000  0.5626920000000 1.0
C      1  0.5760440000000  0.4623800000000  0.5195400000000 1.0
C      1  0.5229020000000  0.4587760000000  0.5966200000000 1.0
C      1  0.3957150000000  0.5291430000000  0.4735780000000 1.0
C      1  0.5039570000000  0.4574160000000  0.5110330000000 1.0
C      1  0.4816000000000  0.5657990000000  0.5177800000000 1.0
C      1  0.5349210000000  0.4210760000000  0.5666630000000 1.0
C      1  0.6427790000000  0.5980400000000  0.5497280000000 1.0
C      1  0.4446180000000  0.4493670000000  0.4898590000000 1.0
C      1  0.4886960000000  0.4982130000000  0.4538890000000 1.0
C      1  0.5435110000000  0.4479390000000  0.5769340000000 1.0
C      1  0.4157350000000  0.4626170000000  0.4273420000000 1.0
C      1  0.5386940000000  0.4091210000000  0.5409410000000 1.0
C      1  0.4403230000000  0.5545640000000  0.5861040000000 1.0
C      1  0.4554790000000  0.4911570000000  0.4071710000000 1.0
C      1  0.4682130000000  0.5152790000000  0.6038230000000 1.0
C      1  0.5645100000000  0.5273180000000  0.4454770000000 1.0
C      1  0.4408230000000  0.5230820000000  0.4996690000000 1.0
C      1  0.4362270000000  0.5307980000000  0.4209990000000 1.0
C      1  0.4477300000000  0.4976280000000  0.5945620000000 1.0
C      1  0.4295140000000  0.4859040000000  0.4195830000000 1.0
C      1  0.5087410000000  0.4340190000000  0.6035150000000 1.0
C      1  0.4076090000000  0.5077290000000  0.4590160000000 1.0
C      1  0.5207960000000  0.4252430000000  0.4387840000000 1.0
C      1  0.5741470000000  0.4266270000000  0.4750220000000 1.0
C      1  0.5112180000000  0.4839240000000  0.6042510000000 1.0
C      1  0.5041240000000  0.5221600000000  0.5152440000000 1.0
C      1  0.4193700000000  0.5330330000000  0.5433040000000 1.0
C      1  0.4846040000000  0.5817620000000  0.4376290000000 1.0
C      1  0.5611740000000  0.4098990000000  0.5234550000000 1.0
C      1  0.5287060000000  0.5961330000000  0.5150690000000 1.0
C      1  0.4198370000000  0.5105680000000  0.4330930000000 1.0
C      1  0.5786310000000  0.4647070000000  0.4397610000000 1.0
C      1  0.5234570000000  0.5541960000000  0.4348380000000 1.0
C      1  0.5494860000000  0.5147570000000  0.4670130000000 1.0
C      1  0.4522790000000  0.4383440000000  0.4644230000000 1.0
C      1  0.5267360000000  0.5780770000000  0.5696770000000 1.0
C      1  0.4773120000000  0.4612550000000  0.5657240000000 1.0
C      1  0.4826590000000  0.5935420000000  0.5097720000000 1.0
C      1  0.5393150000000  0.4847680000000  0.4085790000000 1.0
C      1  0.5151530000000  0.4131960000000  0.5864150000000 1.0
C      1  0.4312400000000  0.4751260000000  0.4910180000000 1.0
C      1  0.4034890000000  0.4600140000000  0.4528910000000 1.0
C      1  0.4220260000000  0.3772990000000  0.5209240000000 1.0
C      1  0.5241820000000  0.5561610000000  0.5888010000000 1.0
C      1  0.4566040000000  0.4505050000000  0.5795610000000 1.0
C      1  0.4217640000000  0.5693130000000  0.4781640000000 1.0
C      1  0.5826270000000  0.4583120000000  0.5453670000000 1.0
C      1  0.4935380000000  0.4763840000000  0.4929210000000 1.0
C      1  0.4978030000000  0.5097800000000  0.6037880000000 1.0
C      1  0.5711670000000  0.4135860000000  0.4985820000000 1.0
C      1  0.5534590000000  0.5878670000000  0.5612920000000 1.0
C      1  0.5595090000000  0.5786920000000  0.4570230000000 1.0
C      1  0.5700320000000  0.5764840000000  0.4839060000000 1.0
C      1  0.5138290000000  0.5835760000000  0.4373800000000 1.0
C      1  0.5555890000000  0.5569190000000  0.5002810000000 1.0
C      1  0.5225100000000  0.5066130000000  0.4192940000000 1.0
C      1  0.4833300000000  0.4739650000000  0.4672040000000 1.0
C      1  0.4744430000000  0.4706740000000  0.4033760000000 1.0
C      1  0.4722070000000  0.4533970000000  0.4513880000000 1.0
C      1  0.5562590000000  0.4991870000000  0.5531350000000 1.0
C      1  0.5674830000000  0.4507490000000  0.4615970000000 1.0
C      1  0.5221610000000  0.4628810000000  0.4008370000000 1.0
C      1  0.4372270000000  0.4269920000000  0.5318260000000 1.0
C      1  0.5375360000000  0.4891510000000  0.4630090000000 1.0
C      1  0.4822860000000  0.4521260000000  0.4249260000000 1.0
C      1  0.5791790000000  0.5082890000000  0.4307560000000 1.0
C      1  0.4610440000000  0.5203700000000  0.4085330000000 1.0
C      1  0.5301860000000  0.5313290000000  0.4781690000000 1.0
C      1  0.5905600000000  0.5170230000000  0.4973470000000 1.0
C      1  0.4485450000000  0.5627530000000  0.4698480000000 1.0
C      1  0.5141680000000  0.5133910000000  0.5403960000000 1.0
C      1  0.5169900000000  0.4110170000000  0.4611680000000 1.0
C      1  0.5153940000000  0.3993990000000  0.5280970000000 1.0
C      1  0.4551130000000  0.5352610000000  0.4770270000000 1.0
C      1  0.4566550000000  0.4368150000000  0.5129620000000 1.0
C      1  0.5655770000000  0.4830640000000  0.4202690000000 1.0
C      1  0.5036780000000  0.6020460000000  0.5279840000000 1.0
C      1  0.5756110000000  0.5717460000000  0.5514260000000 1.0
C      1  0.5940350000000  0.5831980000000  0.5313890000000 1.0
C      1  0.4219550000000  0.3641370000000  0.4976710000000 1.0
C      1  0.5996290000000  0.4911000000000  0.4528960000000 1.0
C      1  0.4721040000000  0.5197720000000  0.4607180000000 1.0
C      1  0.4225270000000  0.4449980000000  0.5482850000000 1.0
C      1  0.4862390000000  0.4343300000000  0.5132530000000 1.0
C      1  0.5517470000000  0.4655440000000  0.5052800000000 1.0
C      1  0.5719360000000  0.5194300000000  0.5606570000000 1.0
C      1  0.4310390000000  0.4598420000000  0.5705790000000 1.0
C      1  0.5885760000000  0.5872510000000  0.5031230000000 1.0
C      1  0.5692850000000  0.4556140000000  0.5686320000000 1.0
C      1  0.4289890000000  0.4883420000000  0.5746330000000 1.0
C      1  0.4685060000000  0.5824760000000  0.4619450000000 1.0
C      1  0.5547670000000  0.5538990000000  0.4403140000000 1.0
C      1  0.4301170000000  0.3999360000000  0.5323460000000 1.0
C      1  0.3856580000000  0.4405300000000  0.4594540000000 1.0
C      1  0.4528320000000  0.3859110000000  0.4645060000000 1.0
C      1  0.5023760000000  0.5862420000000  0.5539540000000 1.0
C      1  0.5286990000000  0.4689490000000  0.5221180000000 1.0
C      1  0.4658990000000  0.4928090000000  0.5233870000000 1.0
C      1  0.4182060000000  0.5066920000000  0.5554060000000 1.0
C      1  0.5370550000000  0.5963370000000  0.4495400000000 1.0
C      1  0.4580270000000  0.5422770000000  0.6027720000000 1.0
C      1  0.5303860000000  0.5670080000000  0.5089130000000 1.0
C      1  0.6017900000000  0.5017240000000  0.4782500000000 1.0
C      1  0.5116390000000  0.5332470000000  0.4153260000000 1.0
C      1  0.4791500000000  0.5410020000000  0.5577600000000 1.0
C      1  0.5002930000000  0.3995870000000  0.4808230000000 1.0
C      1  0.4456390000000  0.4121310000000  0.4572520000000 1.0
C      1  0.5715880000000  0.5341110000000  0.5059940000000 1.0
C      1  0.4979040000000  0.4713350000000  0.3863080000000 1.0
C      1  0.5018670000000  0.5253320000000  0.5621460000000 1.0
C      1  0.4812440000000  0.5663520000000  0.5470320000000 1.0
C      1  0.5123940000000  0.5300350000000  0.5881760000000 1.0
C      1  0.5135460000000  0.5447140000000  0.4623610000000 1.0
END
