TITL C-627106-156-1260 3.5545445636965e-07 125000 -715.963790097717 0 0 117 (C1) n - 1
REM
REM in /home/nfs/bkarasulu/CARBON/AIRSS/Generating-Clusters/LCBOP/Only-C1/SD-CG/FIRE-CG
REM
REM
REM
REM
REM
REM ./C.cell (11c1c37f851c82e70ff6c80c92926a4b)
REM AIRSS Version 0.9.1 bugfix July 2018 build 013d7b7c2542+ Fri, 06 Jul 2018 19:26:36 +0100
REM compiler GCC version 9.2.1 20190827 (Red Hat 9.2.1-1)
REM options -cpp -mtune=generic -march=x86-64 -g -O0 -fpre-include=/usr/include/finclude/math-vector-fortran.h
REM seed -448956039 -1498974476 1496379785 317303571 314355656 -1065305896 1164929418 719110193 -170416371 1453707945 -814779758 1044914982 -1841569258 1734595949 800177246 -229502147 -834298712 1710922664 -253178593 -1749924921 -974962699 43039291 566712048 353039223 1773799344 -1648943829 162489722 -1947921449 -1653657110 -865223957 555833848 87072120 -1726679392
REM
CELL 1.54180   50.00000   50.00000   50.00000   90.00000   90.00000   90.00000
LATT -1
SFAC C  
C      1  0.5219300000000  0.4982680000000  0.3990860000000 1.0
C      1  0.5363170000000  0.5517220000000  0.4467180000000 1.0
C      1  0.4233870000000  0.4912010000000  0.5096210000000 1.0
C      1  0.5207590000000  0.5724680000000  0.4596690000000 1.0
C      1  0.4919710000000  0.5719360000000  0.4536380000000 1.0
C      1  0.4575660000000  0.4092290000000  0.4410150000000 1.0
C      1  0.5832680000000  0.5130920000000  0.5868830000000 1.0
C      1  0.5320350000000  0.4934860000000  0.4721910000000 1.0
C      1  0.5190750000000  0.4479600000000  0.5614780000000 1.0
C      1  0.5491890000000  0.4517070000000  0.4291190000000 1.0
C      1  0.4407450000000  0.5875890000000  0.5697710000000 1.0
C      1  0.4388830000000  0.5168950000000  0.3860610000000 1.0
C      1  0.5419090000000  0.5821930000000  0.5500910000000 1.0
C      1  0.5266970000000  0.6156280000000  0.5198860000000 1.0
C      1  0.5632130000000  0.4756420000000  0.4383040000000 1.0
C      1  0.5015890000000  0.4850370000000  0.5175800000000 1.0
C      1  0.4859460000000  0.6007250000000  0.4985400000000 1.0
C      1  0.4687850000000  0.5520640000000  0.5090330000000 1.0
C      1  0.5215980000000  0.5338130000000  0.5931700000000 1.0
C      1  0.4633480000000  0.5827790000000  0.5829620000000 1.0
C      1  0.4371510000000  0.4196780000000  0.4584850000000 1.0
C      1  0.5194430000000  0.5340690000000  0.4325310000000 1.0
C      1  0.5634190000000  0.4282910000000  0.4371000000000 1.0
C      1  0.5191230000000  0.3888290000000  0.5629600000000 1.0
C      1  0.4936290000000  0.4560810000000  0.5645820000000 1.0
C      1  0.5132580000000  0.6065940000000  0.4960170000000 1.0
C      1  0.5091910000000  0.3985930000000  0.5155130000000 1.0
C      1  0.4118040000000  0.4598680000000  0.4041610000000 1.0
C      1  0.4814810000000  0.4475520000000  0.4840550000000 1.0
C      1  0.5308940000000  0.5881420000000  0.4811230000000 1.0
C      1  0.4633170000000  0.4576650000000  0.4579820000000 1.0
C      1  0.5618120000000  0.5401130000000  0.4526720000000 1.0
C      1  0.4248980000000  0.4934590000000  0.4368880000000 1.0
C      1  0.4808910000000  0.4165160000000  0.4289220000000 1.0
C      1  0.5168940000000  0.6212700000000  0.5460270000000 1.0
C      1  0.5100620000000  0.5969060000000  0.5887740000000 1.0
C      1  0.5210740000000  0.4892290000000  0.6241540000000 1.0
C      1  0.5451690000000  0.5420960000000  0.5793590000000 1.0
C      1  0.5149940000000  0.5380570000000  0.5170600000000 1.0
C      1  0.4431440000000  0.5409320000000  0.5146240000000 1.0
C      1  0.4703610000000  0.4851720000000  0.4504930000000 1.0
C      1  0.5433060000000  0.5540480000000  0.5536020000000 1.0
C      1  0.5802120000000  0.4777940000000  0.4617900000000 1.0
C      1  0.5325370000000  0.4308330000000  0.4936190000000 1.0
C      1  0.4712130000000  0.5801090000000  0.5070320000000 1.0
C      1  0.5261890000000  0.4839200000000  0.5271290000000 1.0
C      1  0.4251110000000  0.4438880000000  0.4995200000000 1.0
C      1  0.5123740000000  0.4462360000000  0.4800500000000 1.0
C      1  0.5183430000000  0.3938150000000  0.6142070000000 1.0
C      1  0.5675550000000  0.4943530000000  0.5083000000000 1.0
C      1  0.4227540000000  0.4976930000000  0.3731670000000 1.0
C      1  0.4662190000000  0.5631470000000  0.4506730000000 1.0
C      1  0.5182410000000  0.3857140000000  0.4721760000000 1.0
C      1  0.4106570000000  0.5519970000000  0.4823830000000 1.0
C      1  0.4894600000000  0.5212900000000  0.4766600000000 1.0
C      1  0.4521250000000  0.4976780000000  0.4304880000000 1.0
C      1  0.4711980000000  0.4605940000000  0.5506860000000 1.0
C      1  0.5475920000000  0.5944090000000  0.5242510000000 1.0
C      1  0.4991740000000  0.5505950000000  0.5928640000000 1.0
C      1  0.4578510000000  0.5062930000000  0.4043940000000 1.0
C      1  0.5201450000000  0.4052600000000  0.5405200000000 1.0
C      1  0.5247560000000  0.5242740000000  0.4065070000000 1.0
C      1  0.4911300000000  0.3818130000000  0.4770420000000 1.0
C      1  0.4781810000000  0.4744230000000  0.5022930000000 1.0
C      1  0.5922360000000  0.4524720000000  0.4674880000000 1.0
C      1  0.5787180000000  0.5706010000000  0.4949120000000 1.0
C      1  0.5027630000000  0.4312220000000  0.4225510000000 1.0
C      1  0.5796220000000  0.5276400000000  0.4716990000000 1.0
C      1  0.4167970000000  0.5075500000000  0.4604210000000 1.0
C      1  0.5902410000000  0.4882310000000  0.5809270000000 1.0
C      1  0.5910320000000  0.5476140000000  0.4882570000000 1.0
C      1  0.4357370000000  0.5143620000000  0.5195730000000 1.0
C      1  0.4965590000000  0.4921810000000  0.4381660000000 1.0
C      1  0.4328670000000  0.4648880000000  0.5182920000000 1.0
C      1  0.4221950000000  0.5366020000000  0.4613850000000 1.0
C      1  0.5214430000000  0.4528820000000  0.4210520000000 1.0
C      1  0.5196140000000  0.4390940000000  0.6391560000000 1.0
C      1  0.4835240000000  0.3978370000000  0.5005030000000 1.0
C      1  0.5542320000000  0.5833710000000  0.4985800000000 1.0
C      1  0.5289590000000  0.4025440000000  0.4930280000000 1.0
C      1  0.5837330000000  0.4294660000000  0.4553790000000 1.0
C      1  0.4161270000000  0.4600900000000  0.4764480000000 1.0
C      1  0.5317800000000  0.4317290000000  0.5420900000000 1.0
C      1  0.4136710000000  0.4890960000000  0.4824120000000 1.0
C      1  0.5439680000000  0.4430420000000  0.5176050000000 1.0
C      1  0.5707360000000  0.5377550000000  0.5909680000000 1.0
C      1  0.5607670000000  0.5186170000000  0.5231660000000 1.0
C      1  0.4899340000000  0.5767330000000  0.5891310000000 1.0
C      1  0.4320000000000  0.5550960000000  0.4169590000000 1.0
C      1  0.4600220000000  0.4657430000000  0.5254540000000 1.0
C      1  0.4404600000000  0.4212890000000  0.4884280000000 1.0
C      1  0.5230270000000  0.4691220000000  0.4688290000000 1.0
C      1  0.5204820000000  0.4653930000000  0.6357570000000 1.0
C      1  0.4137590000000  0.5768300000000  0.5270440000000 1.0
C      1  0.5505360000000  0.4718710000000  0.5175720000000 1.0
C      1  0.5211420000000  0.5100250000000  0.6077360000000 1.0
C      1  0.4207770000000  0.5577440000000  0.5079190000000 1.0
C      1  0.4405530000000  0.5516160000000  0.4438140000000 1.0
C      1  0.4306320000000  0.5429230000000  0.3929930000000 1.0
C      1  0.5947300000000  0.4635020000000  0.5740040000000 1.0
C      1  0.5016500000000  0.5189720000000  0.4490020000000 1.0
C      1  0.4125930000000  0.4740460000000  0.3812430000000 1.0
C      1  0.5112770000000  0.4794790000000  0.4174910000000 1.0
C      1  0.4329680000000  0.4494620000000  0.4525190000000 1.0
C      1  0.5399650000000  0.5367800000000  0.5309160000000 1.0
C      1  0.5240340000000  0.6004450000000  0.5647100000000 1.0
C      1  0.5785560000000  0.4994240000000  0.4808400000000 1.0
C      1  0.4199980000000  0.4653460000000  0.4303720000000 1.0
C      1  0.5826870000000  0.5573370000000  0.6058440000000 1.0
C      1  0.5184440000000  0.3848300000000  0.5892050000000 1.0
C      1  0.4225840000000  0.5866590000000  0.5502880000000 1.0
C      1  0.4917300000000  0.5370760000000  0.5005940000000 1.0
C      1  0.5346400000000  0.5172110000000  0.4821000000000 1.0
C      1  0.5188010000000  0.4135470000000  0.6319820000000 1.0
C      1  0.4686130000000  0.4216020000000  0.4951760000000 1.0
C      1  0.5155840000000  0.6117980000000  0.6109900000000 1.0
C      1  0.4739610000000  0.4965000000000  0.4793830000000 1.0
END
