TITL C-627109-622-284 2714.96159939834 125000 -790.662345143919 0 0 132 (C1) n - 1
REM
REM in /home/nfs/bkarasulu/CARBON/AIRSS/Generating-Clusters/LCBOP/Only-C1/SD-CG/FIRE-CG
REM
REM
REM
REM
REM
REM ./C.cell (11c1c37f851c82e70ff6c80c92926a4b)
REM AIRSS Version 0.9.1 bugfix July 2018 build 013d7b7c2542+ Fri, 06 Jul 2018 19:26:36 +0100
REM compiler GCC version 9.2.1 20190827 (Red Hat 9.2.1-1)
REM options -cpp -mtune=generic -march=x86-64 -g -O0 -fpre-include=/usr/include/finclude/math-vector-fortran.h
REM seed 244260905 1028629350 763662910 -1110088579 1775098794 -814582935 -2050433469 1102724669 579436129 -1878626979 -1423268827 -888187630 1983210754 -1811357062 1331758837 -1672471858 -799199551 1329533273 -1334202418 -476143950 -123820059 63018661 -213737392 866956738 -1760118338 -1878148372 -1435994956 -894270838 -76431167 -392385460 1477365971 -1751350160 1484316572
REM
CELL 1.54180   50.00000   50.00000   50.00000   90.00000   90.00000   90.00000
LATT -1
SFAC C  
C      1  0.5014690000000  0.4998980000000  0.4499090000000 1.0
C      1  0.5012100000000  0.4674700000000  0.3989510000000 1.0
C      1  0.5983530000000  0.4872530000000  0.5220380000000 1.0
C      1  0.4053330000000  0.5484480000000  0.4821930000000 1.0
C      1  0.5237590000000  0.5666320000000  0.5230290000000 1.0
C      1  0.4627340000000  0.5494980000000  0.4933130000000 1.0
C      1  0.4328000000000  0.5372600000000  0.4355790000000 1.0
C      1  0.5171640000000  0.5667890000000  0.4495280000000 1.0
C      1  0.5734670000000  0.4399290000000  0.4640810000000 1.0
C      1  0.4347100000000  0.4660750000000  0.5183300000000 1.0
C      1  0.4218910000000  0.5118150000000  0.4279290000000 1.0
C      1  0.5499430000000  0.4228740000000  0.5168870000000 1.0
C      1  0.4878060000000  0.5412860000000  0.4791860000000 1.0
C      1  0.4700330000000  0.4179030000000  0.4750580000000 1.0
C      1  0.4782250000000  0.4194010000000  0.5241340000000 1.0
C      1  0.4797250000000  0.4335000000000  0.4261020000000 1.0
C      1  0.4025830000000  0.4818000000000  0.4743380000000 1.0
C      1  0.5485240000000  0.4821820000000  0.5160950000000 1.0
C      1  0.5028320000000  0.5092900000000  0.5724910000000 1.0
C      1  0.5659510000000  0.4774550000000  0.5943590000000 1.0
C      1  0.5707510000000  0.5388760000000  0.4528790000000 1.0
C      1  0.5089440000000  0.4138290000000  0.5665770000000 1.0
C      1  0.5915760000000  0.5397640000000  0.5151580000000 1.0
C      1  0.5756080000000  0.4396660000000  0.5150430000000 1.0
C      1  0.4839370000000  0.5530270000000  0.4180970000000 1.0
C      1  0.5902550000000  0.4598600000000  0.5311370000000 1.0
C      1  0.4960320000000  0.4115330000000  0.4663560000000 1.0
C      1  0.4987030000000  0.4993970000000  0.5052440000000 1.0
C      1  0.5401310000000  0.4860050000000  0.4169900000000 1.0
C      1  0.5454370000000  0.4610300000000  0.4309430000000 1.0
C      1  0.5623520000000  0.4865870000000  0.4685200000000 1.0
C      1  0.6008100000000  0.4508950000000  0.5550990000000 1.0
C      1  0.5257800000000  0.4123710000000  0.5360560000000 1.0
C      1  0.6128810000000  0.4917990000000  0.4976560000000 1.0
C      1  0.4654780000000  0.4858990000000  0.5830700000000 1.0
C      1  0.5342250000000  0.6012500000000  0.4943380000000 1.0
C      1  0.5226400000000  0.4455040000000  0.6004860000000 1.0
C      1  0.5148140000000  0.5530830000000  0.4759940000000 1.0
C      1  0.5240010000000  0.5738450000000  0.4972570000000 1.0
C      1  0.4967250000000  0.4550560000000  0.6060750000000 1.0
C      1  0.4267630000000  0.5527490000000  0.4606780000000 1.0
C      1  0.5485980000000  0.4252160000000  0.4630260000000 1.0
C      1  0.4771900000000  0.5112560000000  0.5835440000000 1.0
C      1  0.5669320000000  0.5803110000000  0.5215560000000 1.0
C      1  0.5456960000000  0.5237830000000  0.5598280000000 1.0
C      1  0.4439400000000  0.4477360000000  0.4998490000000 1.0
C      1  0.4777490000000  0.4895830000000  0.4404900000000 1.0
C      1  0.5219340000000  0.5060280000000  0.5497990000000 1.0
C      1  0.5575950000000  0.5088780000000  0.5156140000000 1.0
C      1  0.3946240000000  0.4848410000000  0.5345870000000 1.0
C      1  0.5202120000000  0.4891280000000  0.3970970000000 1.0
C      1  0.4129160000000  0.5043500000000  0.4827350000000 1.0
C      1  0.4572690000000  0.4914770000000  0.4593420000000 1.0
C      1  0.5434250000000  0.5090580000000  0.4330490000000 1.0
C      1  0.4750470000000  0.5040440000000  0.3954600000000 1.0
C      1  0.4066540000000  0.4555380000000  0.4705310000000 1.0
C      1  0.5727640000000  0.5138250000000  0.5585750000000 1.0
C      1  0.4716230000000  0.4600330000000  0.5945760000000 1.0
C      1  0.4956670000000  0.5758130000000  0.5778330000000 1.0
C      1  0.4209380000000  0.5486860000000  0.5531730000000 1.0
C      1  0.5242010000000  0.6064800000000  0.4687340000000 1.0
C      1  0.5305470000000  0.4363480000000  0.4415300000000 1.0
C      1  0.4763310000000  0.5659990000000  0.5156970000000 1.0
C      1  0.4757200000000  0.4783420000000  0.4117820000000 1.0
C      1  0.5077020000000  0.5550970000000  0.5633530000000 1.0
C      1  0.5396230000000  0.3999010000000  0.6011830000000 1.0
C      1  0.4206230000000  0.5219200000000  0.5430810000000 1.0
C      1  0.4723690000000  0.4907650000000  0.5064970000000 1.0
C      1  0.5282150000000  0.4781810000000  0.5367130000000 1.0
C      1  0.4231280000000  0.4857020000000  0.4205420000000 1.0
C      1  0.4727050000000  0.4154850000000  0.5702740000000 1.0
C      1  0.4603960000000  0.5345060000000  0.5834390000000 1.0
C      1  0.5673780000000  0.4645700000000  0.4506700000000 1.0
C      1  0.4861970000000  0.6004410000000  0.5731980000000 1.0
C      1  0.4456500000000  0.5248780000000  0.4986130000000 1.0
C      1  0.5004870000000  0.4555100000000  0.5004400000000 1.0
C      1  0.3965150000000  0.5146070000000  0.5276240000000 1.0
C      1  0.4419230000000  0.5155920000000  0.5264070000000 1.0
C      1  0.5414660000000  0.4788960000000  0.4881100000000 1.0
C      1  0.4892310000000  0.4434150000000  0.5416110000000 1.0
C      1  0.4716600000000  0.4354280000000  0.4995490000000 1.0
C      1  0.4508510000000  0.5670040000000  0.4704850000000 1.0
C      1  0.4046060000000  0.5616370000000  0.5321650000000 1.0
C      1  0.4321590000000  0.4585950000000  0.4163520000000 1.0
C      1  0.5041440000000  0.4051350000000  0.5163600000000 1.0
C      1  0.4142240000000  0.4387620000000  0.4105340000000 1.0
C      1  0.4888550000000  0.5997280000000  0.4770540000000 1.0
C      1  0.4805890000000  0.6162290000000  0.5522990000000 1.0
C      1  0.6053910000000  0.5067320000000  0.4761540000000 1.0
C      1  0.5791910000000  0.5115920000000  0.4655170000000 1.0
C      1  0.5132260000000  0.4050870000000  0.4887900000000 1.0
C      1  0.5471910000000  0.5682110000000  0.5397560000000 1.0
C      1  0.5003250000000  0.5506330000000  0.5328970000000 1.0
C      1  0.5399670000000  0.4151050000000  0.4883420000000 1.0
C      1  0.5657890000000  0.5638960000000  0.4686410000000 1.0
C      1  0.5260550000000  0.5110710000000  0.4554590000000 1.0
C      1  0.4150850000000  0.4625320000000  0.5402300000000 1.0
C      1  0.5241560000000  0.4191560000000  0.5894980000000 1.0
C      1  0.5081630000000  0.4592400000000  0.5290850000000 1.0
C      1  0.5870250000000  0.4376740000000  0.4884780000000 1.0
C      1  0.4567070000000  0.5017560000000  0.4849960000000 1.0
C      1  0.4408370000000  0.5507250000000  0.5733220000000 1.0
C      1  0.4640970000000  0.4049240000000  0.5455690000000 1.0
C      1  0.5787190000000  0.4955980000000  0.5792190000000 1.0
C      1  0.5127200000000  0.4786030000000  0.4891870000000 1.0
C      1  0.5389280000000  0.5845950000000  0.4541560000000 1.0
C      1  0.4603640000000  0.4532610000000  0.4168330000000 1.0
C      1  0.4353790000000  0.4560240000000  0.5624040000000 1.0
C      1  0.4732600000000  0.5834040000000  0.4581950000000 1.0
C      1  0.5373030000000  0.5251060000000  0.5058000000000 1.0
C      1  0.3954340000000  0.5417020000000  0.5102880000000 1.0
C      1  0.4434660000000  0.4186360000000  0.4647830000000 1.0
C      1  0.5782790000000  0.5617790000000  0.5019630000000 1.0
C      1  0.5352370000000  0.5474180000000  0.4102630000000 1.0
C      1  0.4536390000000  0.4884190000000  0.5295460000000 1.0
C      1  0.5548910000000  0.5348340000000  0.4278200000000 1.0
C      1  0.5031700000000  0.4261810000000  0.4420640000000 1.0
C      1  0.5310120000000  0.5283890000000  0.4779580000000 1.0
C      1  0.5028820000000  0.5138690000000  0.3937200000000 1.0
C      1  0.4564130000000  0.4387940000000  0.5793330000000 1.0
C      1  0.5072300000000  0.5401060000000  0.4046360000000 1.0
C      1  0.4276410000000  0.4386100000000  0.4776080000000 1.0
C      1  0.4563660000000  0.5450770000000  0.4202370000000 1.0
C      1  0.5380660000000  0.5514830000000  0.5620920000000 1.0
C      1  0.4812820000000  0.5945450000000  0.5057850000000 1.0
C      1  0.4912830000000  0.5713290000000  0.4385070000000 1.0
C      1  0.5573560000000  0.6047690000000  0.5099520000000 1.0
C      1  0.4794360000000  0.6145820000000  0.5255810000000 1.0
C      1  0.5109560000000  0.5213360000000  0.5231720000000 1.0
C      1  0.4525650000000  0.4804380000000  0.5585850000000 1.0
C      1  0.5455620000000  0.4617410000000  0.6015400000000 1.0
C      1  0.5833270000000  0.5135200000000  0.5299020000000 1.0
END
