TITL C-627112-676-266 1.38875861035989e-05 125000 -432.70794549412 0 0 73 (C1) n - 1
REM
REM in /home/nfs/bkarasulu/CARBON/AIRSS/Generating-Clusters/LCBOP/Only-C1/SD-CG/FIRE-CG
REM
REM
REM
REM
REM
REM ./C.cell (11c1c37f851c82e70ff6c80c92926a4b)
REM AIRSS Version 0.9.1 bugfix July 2018 build 013d7b7c2542+ Fri, 06 Jul 2018 19:26:36 +0100
REM compiler GCC version 9.2.1 20190827 (Red Hat 9.2.1-1)
REM options -cpp -mtune=generic -march=x86-64 -g -O0 -fpre-include=/usr/include/finclude/math-vector-fortran.h
REM seed -2053990237 -2072693962 1227741338 1800273195 1016501383 1999574928 1367347624 -1944205665 -1863772365 -1957565335 -1623572796 1278790478 245743044 -953659808 1333128020 386581554 1885502889 351016291 -1229909005 1905709290 280111174 -1524210426 -2084307796 345593432 -243414199 1729269077 1820612015 1159432018 2052001408 -458947229 -654186965 -1534921802 -443072560
REM
CELL 1.54180   50.00000   50.00000   50.00000   90.00000   90.00000   90.00000
LATT -1
SFAC C  
C      1  0.3955880000000  0.4932760000000  0.5207210000000 1.0
C      1  0.5487270000000  0.5389160000000  0.5655350000000 1.0
C      1  0.5884530000000  0.5431080000000  0.4894050000000 1.0
C      1  0.5017310000000  0.4874470000000  0.5270210000000 1.0
C      1  0.4889140000000  0.4371930000000  0.4204440000000 1.0
C      1  0.5096170000000  0.4827430000000  0.4161880000000 1.0
C      1  0.4047220000000  0.4663620000000  0.5207000000000 1.0
C      1  0.5176490000000  0.6004520000000  0.4580720000000 1.0
C      1  0.4573110000000  0.4307710000000  0.5460480000000 1.0
C      1  0.4138040000000  0.5139170000000  0.5149460000000 1.0
C      1  0.4627820000000  0.4783230000000  0.4125460000000 1.0
C      1  0.5530970000000  0.5035380000000  0.4772020000000 1.0
C      1  0.4736910000000  0.4670430000000  0.4758060000000 1.0
C      1  0.4617030000000  0.4425660000000  0.4834960000000 1.0
C      1  0.4560890000000  0.5026760000000  0.4218260000000 1.0
C      1  0.4127490000000  0.4534320000000  0.4970350000000 1.0
C      1  0.5343280000000  0.4918620000000  0.5726300000000 1.0
C      1  0.4570630000000  0.5631700000000  0.4771380000000 1.0
C      1  0.4918890000000  0.5618300000000  0.5286590000000 1.0
C      1  0.4974800000000  0.5877330000000  0.5227870000000 1.0
C      1  0.4628830000000  0.4907460000000  0.4843910000000 1.0
C      1  0.4894720000000  0.4668050000000  0.5443550000000 1.0
C      1  0.5434170000000  0.4287870000000  0.4949420000000 1.0
C      1  0.4709420000000  0.5250190000000  0.5497020000000 1.0
C      1  0.5759080000000  0.4710230000000  0.4456130000000 1.0
C      1  0.5459670000000  0.4791300000000  0.4949350000000 1.0
C      1  0.5694680000000  0.5609370000000  0.4999150000000 1.0
C      1  0.4806630000000  0.5612700000000  0.4619320000000 1.0
C      1  0.4340030000000  0.4414230000000  0.4861840000000 1.0
C      1  0.4867740000000  0.5361100000000  0.4501570000000 1.0
C      1  0.4876010000000  0.4647130000000  0.4135080000000 1.0
C      1  0.5781890000000  0.5170710000000  0.4871120000000 1.0
C      1  0.4878500000000  0.4734090000000  0.5722820000000 1.0
C      1  0.4662880000000  0.5234720000000  0.4352030000000 1.0
C      1  0.4902310000000  0.4174350000000  0.4388520000000 1.0
C      1  0.5293140000000  0.5228810000000  0.4758150000000 1.0
C      1  0.5008890000000  0.5381450000000  0.5142340000000 1.0
C      1  0.5209250000000  0.4558490000000  0.4551490000000 1.0
C      1  0.4320680000000  0.4371200000000  0.5520310000000 1.0
C      1  0.4813890000000  0.4223620000000  0.4890040000000 1.0
C      1  0.6141850000000  0.5503510000000  0.4820770000000 1.0
C      1  0.3693990000000  0.4989750000000  0.5261780000000 1.0
C      1  0.5120180000000  0.5222940000000  0.4524240000000 1.0
C      1  0.5750020000000  0.4517040000000  0.4645290000000 1.0
C      1  0.5480360000000  0.5507820000000  0.5417290000000 1.0
C      1  0.4900030000000  0.4098430000000  0.4649350000000 1.0
C      1  0.5568020000000  0.4525340000000  0.4861820000000 1.0
C      1  0.5251980000000  0.5385550000000  0.4998540000000 1.0
C      1  0.5416640000000  0.5183420000000  0.5826840000000 1.0
C      1  0.5109820000000  0.4969120000000  0.6109870000000 1.0
C      1  0.4957040000000  0.4268430000000  0.5138940000000 1.0
C      1  0.4994840000000  0.4662310000000  0.4656130000000 1.0
C      1  0.4848570000000  0.5131310000000  0.5232120000000 1.0
C      1  0.4755670000000  0.5530360000000  0.5501830000000 1.0
C      1  0.6383290000000  0.5571870000000  0.4750390000000 1.0
C      1  0.4811370000000  0.4407510000000  0.5350390000000 1.0
C      1  0.4638150000000  0.4863720000000  0.5795390000000 1.0
C      1  0.5323400000000  0.4525540000000  0.5316890000000 1.0
C      1  0.5394560000000  0.6154150000000  0.4598270000000 1.0
C      1  0.5171290000000  0.5041580000000  0.4308790000000 1.0
C      1  0.4976510000000  0.5830880000000  0.4585540000000 1.0
C      1  0.4399550000000  0.5503810000000  0.4932430000000 1.0
C      1  0.4569700000000  0.5098660000000  0.5683620000000 1.0
C      1  0.5110480000000  0.4806920000000  0.5866370000000 1.0
C      1  0.4610180000000  0.5091960000000  0.5048960000000 1.0
C      1  0.5280780000000  0.5187570000000  0.6083910000000 1.0
C      1  0.5615230000000  0.6290640000000  0.4623480000000 1.0
C      1  0.4375980000000  0.5254150000000  0.5058490000000 1.0
C      1  0.4117910000000  0.4528140000000  0.5443370000000 1.0
C      1  0.5465220000000  0.5522760000000  0.5136650000000 1.0
C      1  0.5283420000000  0.4783590000000  0.5182430000000 1.0
C      1  0.5625920000000  0.4942530000000  0.4496640000000 1.0
C      1  0.5241760000000  0.4298060000000  0.5157980000000 1.0
END
