TITL C-627108-131-1768 2427.97678142306 125000 -1050.83793951362 0 0 171 (C1) n - 1
REM
REM in /home/nfs/bkarasulu/CARBON/AIRSS/Generating-Clusters/LCBOP/Only-C1/SD-CG/FIRE-CG
REM
REM
REM
REM
REM
REM ./C.cell (11c1c37f851c82e70ff6c80c92926a4b)
REM AIRSS Version 0.9.1 bugfix July 2018 build 013d7b7c2542+ Fri, 06 Jul 2018 19:26:36 +0100
REM compiler GCC version 9.2.1 20190827 (Red Hat 9.2.1-1)
REM options -cpp -mtune=generic -march=x86-64 -g -O0 -fpre-include=/usr/include/finclude/math-vector-fortran.h
REM seed -1176241167 1786121093 -1161264073 55037890 -752817959 -1003366458 1480082573 1655660330 344220823 -504392372 1613003451 -2120963395 811785394 -1648225528 -184504131 -1469366039 -1688904123 399418648 -1960512271 1978699406 1268177504 1113765042 1511005714 1848492362 -2137200624 690795841 -2133877215 -331112491 905343861 -2105869325 165657124 -1397641314 1857310682
REM
CELL 1.54180   50.00000   50.00000   50.00000   90.00000   90.00000   90.00000
LATT -1
SFAC C  
C      1  0.4153080000000  0.4414430000000  0.4466440000000 1.0
C      1  0.5056010000000  0.4152890000000  0.4288100000000 1.0
C      1  0.4627390000000  0.6002330000000  0.5494170000000 1.0
C      1  0.5652180000000  0.5072440000000  0.4230110000000 1.0
C      1  0.3882600000000  0.5088950000000  0.5237720000000 1.0
C      1  0.5064900000000  0.4448070000000  0.6218210000000 1.0
C      1  0.5265390000000  0.4633650000000  0.4546370000000 1.0
C      1  0.4835910000000  0.5226530000000  0.4199160000000 1.0
C      1  0.4637360000000  0.4095350000000  0.5206090000000 1.0
C      1  0.4779650000000  0.4758260000000  0.4475670000000 1.0
C      1  0.3955810000000  0.4621890000000  0.6006050000000 1.0
C      1  0.5235470000000  0.3973540000000  0.4421970000000 1.0
C      1  0.4191630000000  0.4735470000000  0.5257070000000 1.0
C      1  0.4195120000000  0.4204100000000  0.5361680000000 1.0
C      1  0.4447110000000  0.5520720000000  0.4498340000000 1.0
C      1  0.4851980000000  0.4389770000000  0.6039180000000 1.0
C      1  0.4410900000000  0.5324750000000  0.5306870000000 1.0
C      1  0.5979440000000  0.5190030000000  0.4545750000000 1.0
C      1  0.5405710000000  0.4550840000000  0.5486580000000 1.0
C      1  0.4263420000000  0.5420840000000  0.5532410000000 1.0
C      1  0.4511600000000  0.3922420000000  0.5630620000000 1.0
C      1  0.3962320000000  0.4757790000000  0.4164240000000 1.0
C      1  0.5288210000000  0.4591890000000  0.6238830000000 1.0
C      1  0.5346220000000  0.4393610000000  0.5712190000000 1.0
C      1  0.5170320000000  0.4354330000000  0.4097490000000 1.0
C      1  0.6164190000000  0.5779500000000  0.5111130000000 1.0
C      1  0.5671240000000  0.5003050000000  0.5750700000000 1.0
C      1  0.4775140000000  0.5229600000000  0.5617040000000 1.0
C      1  0.5407120000000  0.5647790000000  0.5609280000000 1.0
C      1  0.5684520000000  0.5890050000000  0.5193840000000 1.0
C      1  0.4720250000000  0.5199620000000  0.6244230000000 1.0
C      1  0.4147710000000  0.4111180000000  0.3645180000000 1.0
C      1  0.4928610000000  0.5940600000000  0.5075870000000 1.0
C      1  0.4931530000000  0.5004270000000  0.5711500000000 1.0
C      1  0.4613760000000  0.4565450000000  0.6081450000000 1.0
C      1  0.4128910000000  0.4377200000000  0.4750620000000 1.0
C      1  0.4110850000000  0.4969850000000  0.5691470000000 1.0
C      1  0.4989540000000  0.5565520000000  0.6005560000000 1.0
C      1  0.5354630000000  0.6080410000000  0.4926220000000 1.0
C      1  0.5018180000000  0.5030500000000  0.5054050000000 1.0
C      1  0.4753500000000  0.5472960000000  0.6141060000000 1.0
C      1  0.4910930000000  0.4559060000000  0.5393620000000 1.0
C      1  0.5445450000000  0.4423790000000  0.4483950000000 1.0
C      1  0.5528640000000  0.6054080000000  0.3973370000000 1.0
C      1  0.4985460000000  0.6058340000000  0.4469460000000 1.0
C      1  0.5942520000000  0.5511420000000  0.4202270000000 1.0
C      1  0.4374760000000  0.5890710000000  0.5395540000000 1.0
C      1  0.4305480000000  0.5694820000000  0.5597350000000 1.0
C      1  0.5814800000000  0.5999360000000  0.3535850000000 1.0
C      1  0.6176290000000  0.4994440000000  0.4565340000000 1.0
C      1  0.5874530000000  0.5250300000000  0.4285370000000 1.0
C      1  0.6092100000000  0.4732310000000  0.4626050000000 1.0
C      1  0.4495760000000  0.5530430000000  0.6020400000000 1.0
C      1  0.5706950000000  0.4441630000000  0.4588950000000 1.0
C      1  0.5670850000000  0.4575500000000  0.5402670000000 1.0
C      1  0.4318240000000  0.5911350000000  0.5117440000000 1.0
C      1  0.5067860000000  0.4628450000000  0.4123060000000 1.0
C      1  0.5038340000000  0.5478030000000  0.5289150000000 1.0
C      1  0.5426610000000  0.4951450000000  0.5886320000000 1.0
C      1  0.4888160000000  0.5225210000000  0.5194310000000 1.0
C      1  0.5870620000000  0.4637830000000  0.4453990000000 1.0
C      1  0.6131580000000  0.4663370000000  0.4904570000000 1.0
C      1  0.4226390000000  0.5348780000000  0.4579070000000 1.0
C      1  0.5450920000000  0.4377750000000  0.4019820000000 1.0
C      1  0.5903280000000  0.4734600000000  0.5393230000000 1.0
C      1  0.5178700000000  0.5099420000000  0.5855210000000 1.0
C      1  0.5356000000000  0.5311080000000  0.4542170000000 1.0
C      1  0.5604110000000  0.4761190000000  0.4902830000000 1.0
C      1  0.5194480000000  0.5361660000000  0.5993630000000 1.0
C      1  0.4781510000000  0.4174980000000  0.4407400000000 1.0
C      1  0.5181910000000  0.4631660000000  0.5333060000000 1.0
C      1  0.5179000000000  0.4162480000000  0.5678180000000 1.0
C      1  0.5036420000000  0.4684840000000  0.4398710000000 1.0
C      1  0.4627100000000  0.5064150000000  0.4079130000000 1.0
C      1  0.4141810000000  0.5329930000000  0.4857030000000 1.0
C      1  0.4979610000000  0.5066980000000  0.4781440000000 1.0
C      1  0.4592630000000  0.4477970000000  0.4983480000000 1.0
C      1  0.4722270000000  0.3984020000000  0.5785230000000 1.0
C      1  0.6115250000000  0.5738090000000  0.5375330000000 1.0
C      1  0.4597160000000  0.4357050000000  0.4265280000000 1.0
C      1  0.5417390000000  0.5408360000000  0.6151220000000 1.0
C      1  0.5125870000000  0.5290690000000  0.4698340000000 1.0
C      1  0.5377420000000  0.5179930000000  0.4288050000000 1.0
C      1  0.5273400000000  0.6020570000000  0.4451710000000 1.0
C      1  0.4423650000000  0.4030900000000  0.5386630000000 1.0
C      1  0.5686970000000  0.5665830000000  0.5671450000000 1.0
C      1  0.5408560000000  0.4822610000000  0.3850730000000 1.0
C      1  0.4185020000000  0.4449540000000  0.5217990000000 1.0
C      1  0.5193320000000  0.4856810000000  0.5173900000000 1.0
C      1  0.4490800000000  0.5062540000000  0.6131190000000 1.0
C      1  0.4818170000000  0.4744770000000  0.5603790000000 1.0
C      1  0.4305580000000  0.4172580000000  0.3843330000000 1.0
C      1  0.4177890000000  0.4933430000000  0.4225380000000 1.0
C      1  0.5630300000000  0.5720850000000  0.4671080000000 1.0
C      1  0.5157750000000  0.4867010000000  0.3985190000000 1.0
C      1  0.5723570000000  0.4779250000000  0.4222750000000 1.0
C      1  0.5153670000000  0.3715730000000  0.4822560000000 1.0
C      1  0.4983010000000  0.5804040000000  0.5820270000000 1.0
C      1  0.5430420000000  0.4770450000000  0.6101810000000 1.0
C      1  0.4733780000000  0.3954300000000  0.4956900000000 1.0
C      1  0.5882990000000  0.4936130000000  0.5593770000000 1.0
C      1  0.4512410000000  0.4936230000000  0.4849150000000 1.0
C      1  0.5360270000000  0.4787860000000  0.4755540000000 1.0
C      1  0.3839780000000  0.4416930000000  0.4787790000000 1.0
C      1  0.5127560000000  0.4013830000000  0.5191920000000 1.0
C      1  0.5548390000000  0.5405510000000  0.5230350000000 1.0
C      1  0.5459690000000  0.6055260000000  0.5193210000000 1.0
C      1  0.4454510000000  0.4247300000000  0.4049280000000 1.0
C      1  0.3921900000000  0.4549060000000  0.4347340000000 1.0
C      1  0.4806320000000  0.6055970000000  0.5294450000000 1.0
C      1  0.4988400000000  0.3825740000000  0.5023910000000 1.0
C      1  0.5123970000000  0.5119510000000  0.4142990000000 1.0
C      1  0.4989830000000  0.5660110000000  0.5042340000000 1.0
C      1  0.4743000000000  0.4942930000000  0.4683430000000 1.0
C      1  0.5156180000000  0.4245900000000  0.5027980000000 1.0
C      1  0.4348700000000  0.5281480000000  0.5987730000000 1.0
C      1  0.4312930000000  0.4419620000000  0.4956530000000 1.0
C      1  0.4477230000000  0.5735560000000  0.5831320000000 1.0
C      1  0.5639770000000  0.5149350000000  0.5187800000000 1.0
C      1  0.4708810000000  0.4036590000000  0.4666970000000 1.0
C      1  0.5292010000000  0.4039350000000  0.5424200000000 1.0
C      1  0.4903630000000  0.5482500000000  0.5562740000000 1.0
C      1  0.5304090000000  0.6065530000000  0.5443570000000 1.0
C      1  0.3808700000000  0.4789700000000  0.3941230000000 1.0
C      1  0.4887990000000  0.5620440000000  0.4533390000000 1.0
C      1  0.5555320000000  0.4115320000000  0.5292830000000 1.0
C      1  0.4137730000000  0.5158680000000  0.4390460000000 1.0
C      1  0.4388780000000  0.4464180000000  0.5685020000000 1.0
C      1  0.5912040000000  0.5783130000000  0.4628810000000 1.0
C      1  0.5012190000000  0.5540460000000  0.4775440000000 1.0
C      1  0.5699760000000  0.5625680000000  0.5150090000000 1.0
C      1  0.5224970000000  0.5871940000000  0.5655090000000 1.0
C      1  0.4368300000000  0.5895560000000  0.4851090000000 1.0
C      1  0.5436310000000  0.5941800000000  0.4683370000000 1.0
C      1  0.5941060000000  0.5697670000000  0.5580200000000 1.0
C      1  0.4446870000000  0.4859240000000  0.4165260000000 1.0
C      1  0.5575850000000  0.4640210000000  0.4007180000000 1.0
C      1  0.4208170000000  0.5235200000000  0.5743450000000 1.0
C      1  0.5078780000000  0.6125820000000  0.4929710000000 1.0
C      1  0.3918240000000  0.5207600000000  0.4991680000000 1.0
C      1  0.4031770000000  0.4912870000000  0.5413950000000 1.0
C      1  0.4339330000000  0.5396550000000  0.5047370000000 1.0
C      1  0.4355010000000  0.4871460000000  0.5058360000000 1.0
C      1  0.5336580000000  0.3872410000000  0.4667800000000 1.0
C      1  0.5398930000000  0.6056110000000  0.4204280000000 1.0
C      1  0.5479230000000  0.4929190000000  0.3610580000000 1.0
C      1  0.4652460000000  0.5189620000000  0.5357060000000 1.0
C      1  0.5686820000000  0.4466710000000  0.4884700000000 1.0
C      1  0.4720840000000  0.5430320000000  0.4388880000000 1.0
C      1  0.5670650000000  0.6030480000000  0.3750820000000 1.0
C      1  0.5549170000000  0.3997740000000  0.4814350000000 1.0
C      1  0.4718690000000  0.4382050000000  0.5230920000000 1.0
C      1  0.5327770000000  0.5479770000000  0.5384430000000 1.0
C      1  0.5995990000000  0.5724510000000  0.4363050000000 1.0
C      1  0.5780770000000  0.5226200000000  0.4745930000000 1.0
C      1  0.4923080000000  0.4177790000000  0.5836100000000 1.0
C      1  0.6078830000000  0.4701430000000  0.5169630000000 1.0
C      1  0.3722840000000  0.4518040000000  0.4556290000000 1.0
C      1  0.4711890000000  0.5894920000000  0.5751640000000 1.0
C      1  0.4158930000000  0.4784250000000  0.5916040000000 1.0
C      1  0.4489990000000  0.5806910000000  0.4607720000000 1.0
C      1  0.5042630000000  0.4392960000000  0.4841560000000 1.0
C      1  0.4552990000000  0.4664530000000  0.5650930000000 1.0
C      1  0.5581070000000  0.5430230000000  0.4670740000000 1.0
C      1  0.6087440000000  0.5807540000000  0.4852420000000 1.0
C      1  0.4578290000000  0.4646040000000  0.4308400000000 1.0
C      1  0.4419130000000  0.4793050000000  0.6063230000000 1.0
C      1  0.4769330000000  0.5883020000000  0.4531780000000 1.0
C      1  0.5624620000000  0.4199850000000  0.5013370000000 1.0
C      1  0.5714520000000  0.5026730000000  0.4947750000000 1.0
C      1  0.4796530000000  0.4484730000000  0.4797280000000 1.0
END
