TITL C-627110-360-987 -1885.44698632978 125000 -772.671456547897 0 0 127 (C1) n - 1
REM
REM in /home/nfs/bkarasulu/CARBON/AIRSS/Generating-Clusters/LCBOP/Only-C1/SD-CG/FIRE-CG
REM
REM
REM
REM
REM
REM ./C.cell (11c1c37f851c82e70ff6c80c92926a4b)
REM AIRSS Version 0.9.1 bugfix July 2018 build 013d7b7c2542+ Fri, 06 Jul 2018 19:26:36 +0100
REM compiler GCC version 9.2.1 20190827 (Red Hat 9.2.1-1)
REM options -cpp -mtune=generic -march=x86-64 -g -O0 -fpre-include=/usr/include/finclude/math-vector-fortran.h
REM seed -109543513 -149141911 1792963798 185121403 1429345642 1957673713 770944927 -1741486105 438328242 1213249603 805797369 1723105274 -798595615 1801457254 97395628 165381312 1656241912 157600121 -1717655152 -1328719844 28878782 -2033758221 123295592 -155918293 207471193 1042112308 1710702300 -430758025 -695016734 702778982 985389169 2021948162 589364355
REM
CELL 1.54180   50.00000   50.00000   50.00000   90.00000   90.00000   90.00000
LATT -1
SFAC C  
C      1  0.5133550000000  0.4657460000000  0.4484240000000 1.0
C      1  0.5420900000000  0.5572260000000  0.5566070000000 1.0
C      1  0.4389840000000  0.4718930000000  0.4860490000000 1.0
C      1  0.5228260000000  0.3872990000000  0.4515380000000 1.0
C      1  0.4312990000000  0.5207380000000  0.5619910000000 1.0
C      1  0.4288430000000  0.4454400000000  0.4956890000000 1.0
C      1  0.5548660000000  0.4498850000000  0.5363640000000 1.0
C      1  0.4807520000000  0.5083860000000  0.3866860000000 1.0
C      1  0.4369910000000  0.5066850000000  0.5359150000000 1.0
C      1  0.5730980000000  0.5362950000000  0.4527090000000 1.0
C      1  0.5838200000000  0.5240240000000  0.5818430000000 1.0
C      1  0.5989170000000  0.4794160000000  0.5412040000000 1.0
C      1  0.4439230000000  0.4765740000000  0.5429550000000 1.0
C      1  0.4066520000000  0.4341340000000  0.4839640000000 1.0
C      1  0.4416520000000  0.4316610000000  0.5187370000000 1.0
C      1  0.4815480000000  0.5869980000000  0.5618070000000 1.0
C      1  0.5117560000000  0.6536510000000  0.5590360000000 1.0
C      1  0.4410410000000  0.5481390000000  0.4283920000000 1.0
C      1  0.5057350000000  0.5152060000000  0.3978450000000 1.0
C      1  0.5566690000000  0.4461690000000  0.4175410000000 1.0
C      1  0.4880560000000  0.4025560000000  0.5393680000000 1.0
C      1  0.5069390000000  0.4517280000000  0.5365770000000 1.0
C      1  0.5592980000000  0.5222870000000  0.5974760000000 1.0
C      1  0.4561520000000  0.4057720000000  0.5239920000000 1.0
C      1  0.4459100000000  0.5606180000000  0.4747300000000 1.0
C      1  0.5248070000000  0.4961440000000  0.4055130000000 1.0
C      1  0.5250400000000  0.4080230000000  0.4308750000000 1.0
C      1  0.4308530000000  0.5746480000000  0.5526480000000 1.0
C      1  0.5846940000000  0.4892350000000  0.4327230000000 1.0
C      1  0.4856410000000  0.5601630000000  0.5694010000000 1.0
C      1  0.5010080000000  0.4235900000000  0.4278220000000 1.0
C      1  0.5266830000000  0.4741110000000  0.4980700000000 1.0
C      1  0.5004060000000  0.4487910000000  0.6073200000000 1.0
C      1  0.5057790000000  0.5999130000000  0.5530500000000 1.0
C      1  0.4551020000000  0.5148060000000  0.3912160000000 1.0
C      1  0.5711450000000  0.5187440000000  0.5557600000000 1.0
C      1  0.4537500000000  0.5915620000000  0.5567070000000 1.0
C      1  0.5440350000000  0.5792480000000  0.4611610000000 1.0
C      1  0.5009760000000  0.5193560000000  0.5451770000000 1.0
C      1  0.4573050000000  0.5714550000000  0.4245370000000 1.0
C      1  0.5624260000000  0.5412840000000  0.5415960000000 1.0
C      1  0.4565470000000  0.4527460000000  0.5311570000000 1.0
C      1  0.5383410000000  0.3967470000000  0.4747140000000 1.0
C      1  0.5630790000000  0.5580560000000  0.4686110000000 1.0
C      1  0.4608100000000  0.3856100000000  0.4771730000000 1.0
C      1  0.5577290000000  0.4152820000000  0.4626930000000 1.0
C      1  0.5740910000000  0.5402240000000  0.5153580000000 1.0
C      1  0.5130660000000  0.5264200000000  0.5985940000000 1.0
C      1  0.5035030000000  0.4116680000000  0.5644100000000 1.0
C      1  0.5715090000000  0.5077970000000  0.4500950000000 1.0
C      1  0.5037900000000  0.5572280000000  0.4327900000000 1.0
C      1  0.4779720000000  0.3664850000000  0.4656770000000 1.0
C      1  0.4742000000000  0.4986510000000  0.4467490000000 1.0
C      1  0.4401400000000  0.5022230000000  0.5823170000000 1.0
C      1  0.4868850000000  0.4377290000000  0.4958740000000 1.0
C      1  0.5585030000000  0.4920020000000  0.5604880000000 1.0
C      1  0.5069940000000  0.3933620000000  0.5189760000000 1.0
C      1  0.4936540000000  0.6037360000000  0.4430000000000 1.0
C      1  0.5264690000000  0.3942550000000  0.5002360000000 1.0
C      1  0.5138840000000  0.5202660000000  0.5189620000000 1.0
C      1  0.5098140000000  0.5444880000000  0.5055000000000 1.0
C      1  0.6025530000000  0.4960380000000  0.5183110000000 1.0
C      1  0.4384340000000  0.4564200000000  0.4210350000000 1.0
C      1  0.4784630000000  0.5985380000000  0.4866280000000 1.0
C      1  0.4602900000000  0.5142870000000  0.4898420000000 1.0
C      1  0.4291120000000  0.5486960000000  0.5645160000000 1.0
C      1  0.4679130000000  0.5725400000000  0.4889330000000 1.0
C      1  0.4806780000000  0.4321830000000  0.4697760000000 1.0
C      1  0.4837740000000  0.5800810000000  0.4299920000000 1.0
C      1  0.4978080000000  0.4418400000000  0.4500930000000 1.0
C      1  0.5311860000000  0.4752350000000  0.4696750000000 1.0
C      1  0.5499350000000  0.4952120000000  0.4630410000000 1.0
C      1  0.4839650000000  0.4876360000000  0.5152180000000 1.0
C      1  0.4540130000000  0.4797970000000  0.5712960000000 1.0
C      1  0.4837230000000  0.4453860000000  0.5222380000000 1.0
C      1  0.5585710000000  0.5513230000000  0.4954800000000 1.0
C      1  0.5047350000000  0.5024330000000  0.6091050000000 1.0
C      1  0.4558910000000  0.4390570000000  0.4102620000000 1.0
C      1  0.5169170000000  0.4729910000000  0.4204970000000 1.0
C      1  0.5713440000000  0.4710500000000  0.5459670000000 1.0
C      1  0.5300450000000  0.5866640000000  0.5099220000000 1.0
C      1  0.5293150000000  0.5715300000000  0.4384680000000 1.0
C      1  0.4832310000000  0.5402890000000  0.5503590000000 1.0
C      1  0.4987460000000  0.4353570000000  0.5817170000000 1.0
C      1  0.5312540000000  0.4570790000000  0.5214020000000 1.0
C      1  0.4623640000000  0.4112770000000  0.4652070000000 1.0
C      1  0.5324970000000  0.4092810000000  0.5606680000000 1.0
C      1  0.4997760000000  0.4572350000000  0.5634230000000 1.0
C      1  0.5525110000000  0.4920280000000  0.3984640000000 1.0
C      1  0.4345780000000  0.5414460000000  0.4556670000000 1.0
C      1  0.4198180000000  0.5170480000000  0.4650790000000 1.0
C      1  0.3969080000000  0.5653550000000  0.5144800000000 1.0
C      1  0.4789230000000  0.4248890000000  0.4102770000000 1.0
C      1  0.4759500000000  0.5193320000000  0.4652040000000 1.0
C      1  0.5090080000000  0.6274070000000  0.5566830000000 1.0
C      1  0.5270850000000  0.5846010000000  0.5403920000000 1.0
C      1  0.5022840000000  0.3684960000000  0.4543170000000 1.0
C      1  0.4933270000000  0.5400710000000  0.4559980000000 1.0
C      1  0.4274280000000  0.4737670000000  0.4383640000000 1.0
C      1  0.4870810000000  0.4949560000000  0.5434970000000 1.0
C      1  0.5025030000000  0.4755480000000  0.6137850000000 1.0
C      1  0.5277940000000  0.5969360000000  0.4813170000000 1.0
C      1  0.4675060000000  0.5444030000000  0.5267180000000 1.0
C      1  0.5072670000000  0.5409260000000  0.4086040000000 1.0
C      1  0.4396910000000  0.5296320000000  0.4073310000000 1.0
C      1  0.5521720000000  0.4249090000000  0.5501210000000 1.0
C      1  0.5301630000000  0.4514800000000  0.4061710000000 1.0
C      1  0.6131190000000  0.4880260000000  0.5649360000000 1.0
C      1  0.5365160000000  0.5399660000000  0.5872580000000 1.0
C      1  0.6076260000000  0.5083470000000  0.5826470000000 1.0
C      1  0.5507190000000  0.4943720000000  0.5886910000000 1.0
C      1  0.4821450000000  0.4789890000000  0.5660490000000 1.0
C      1  0.5011790000000  0.6050590000000  0.4707940000000 1.0
C      1  0.5100360000000  0.4956430000000  0.5053150000000 1.0
C      1  0.3984100000000  0.5244810000000  0.4824660000000 1.0
C      1  0.4501010000000  0.5244170000000  0.5160610000000 1.0
C      1  0.5144390000000  0.6794900000000  0.5612320000000 1.0
C      1  0.4832040000000  0.5558890000000  0.5060600000000 1.0
C      1  0.4621230000000  0.4860140000000  0.4966290000000 1.0
C      1  0.5329980000000  0.5588400000000  0.5035580000000 1.0
C      1  0.3912680000000  0.5442060000000  0.4991460000000 1.0
C      1  0.5696880000000  0.4734100000000  0.4140770000000 1.0
C      1  0.5937130000000  0.5203320000000  0.5104720000000 1.0
C      1  0.4265900000000  0.4875770000000  0.4633840000000 1.0
C      1  0.4523150000000  0.3857640000000  0.5041610000000 1.0
C      1  0.4119890000000  0.5787430000000  0.5321000000000 1.0
C      1  0.5514880000000  0.4231730000000  0.4350370000000 1.0
END
