TITL C-627113-6568-247 0.00875573476999144 125000 -445.318839893828 0 0 76 (C1) n - 1
REM
REM in /home/nfs/bkarasulu/CARBON/AIRSS/Generating-Clusters/LCBOP/Only-C1/SD-CG/FIRE-CG
REM
REM
REM
REM
REM
REM ./C.cell (11c1c37f851c82e70ff6c80c92926a4b)
REM AIRSS Version 0.9.1 bugfix July 2018 build 013d7b7c2542+ Fri, 06 Jul 2018 19:26:36 +0100
REM compiler GCC version 9.2.1 20190827 (Red Hat 9.2.1-1)
REM options -cpp -mtune=generic -march=x86-64 -g -O0 -fpre-include=/usr/include/finclude/math-vector-fortran.h
REM seed 1640752844 -214508056 1685191313 -1432684576 212608807 383447845 -1611721936 943909830 -50322785 759155338 -1928868300 -1649542250 9322215 556231489 -1627736408 1586946374 -734366137 1119336985 1868810517 -1309543052 599053690 -1610238262 -608194158 479472817 -2099794988 -1034095487 -1707912146 1376285915 -704157633 290432170 134621057 -60093977 1892050834
REM
CELL 1.54180   50.00000   50.00000   50.00000   90.00000   90.00000   90.00000
LATT -1
SFAC C  
C      1  0.4538360000000  0.4332330000000  0.4754220000000 1.0
C      1  0.5752250000000  0.4323910000000  0.4853890000000 1.0
C      1  0.4201190000000  0.5715700000000  0.5131970000000 1.0
C      1  0.4714890000000  0.5663030000000  0.4597030000000 1.0
C      1  0.5386160000000  0.5015000000000  0.4850150000000 1.0
C      1  0.4563710000000  0.4847000000000  0.5778790000000 1.0
C      1  0.5534650000000  0.5496900000000  0.4825790000000 1.0
C      1  0.5018440000000  0.4364100000000  0.4720100000000 1.0
C      1  0.5087820000000  0.5691520000000  0.5017700000000 1.0
C      1  0.4449410000000  0.4977690000000  0.4395420000000 1.0
C      1  0.4518740000000  0.5352760000000  0.5047420000000 1.0
C      1  0.4236210000000  0.4991750000000  0.5224800000000 1.0
C      1  0.4667060000000  0.5313340000000  0.5789990000000 1.0
C      1  0.4913740000000  0.4680990000000  0.3795130000000 1.0
C      1  0.5182230000000  0.5022000000000  0.4395030000000 1.0
C      1  0.4367310000000  0.4495620000000  0.4584280000000 1.0
C      1  0.5724220000000  0.4539200000000  0.5294160000000 1.0
C      1  0.5177340000000  0.4989040000000  0.5061340000000 1.0
C      1  0.4942570000000  0.5679720000000  0.5268380000000 1.0
C      1  0.4669250000000  0.5742970000000  0.5266740000000 1.0
C      1  0.5554620000000  0.4686660000000  0.4523470000000 1.0
C      1  0.4919030000000  0.4526910000000  0.5413820000000 1.0
C      1  0.4027260000000  0.4830220000000  0.5204960000000 1.0
C      1  0.4688580000000  0.5136990000000  0.4334920000000 1.0
C      1  0.4968370000000  0.4968660000000  0.5265870000000 1.0
C      1  0.3476840000000  0.4283730000000  0.5052620000000 1.0
C      1  0.5687380000000  0.4760430000000  0.5742960000000 1.0
C      1  0.5655110000000  0.5244110000000  0.5185530000000 1.0
C      1  0.3654950000000  0.4466220000000  0.5106830000000 1.0
C      1  0.5381870000000  0.4900930000000  0.4574670000000 1.0
C      1  0.4927760000000  0.4836700000000  0.4003600000000 1.0
C      1  0.5026640000000  0.4640710000000  0.4646690000000 1.0
C      1  0.4729810000000  0.5312050000000  0.4870380000000 1.0
C      1  0.4620530000000  0.4779810000000  0.4831580000000 1.0
C      1  0.5694980000000  0.5641850000000  0.4652410000000 1.0
C      1  0.5861380000000  0.5773360000000  0.4500950000000 1.0
C      1  0.4849170000000  0.4433320000000  0.5154280000000 1.0
C      1  0.4224370000000  0.5024620000000  0.4243860000000 1.0
C      1  0.5115040000000  0.5260450000000  0.4545090000000 1.0
C      1  0.4920650000000  0.5157440000000  0.4737990000000 1.0
C      1  0.6129500000000  0.3939350000000  0.4833190000000 1.0
C      1  0.5064300000000  0.5536870000000  0.5486600000000 1.0
C      1  0.5686840000000  0.4528320000000  0.5575450000000 1.0
C      1  0.4878370000000  0.4867520000000  0.4746710000000 1.0
C      1  0.3837220000000  0.4650980000000  0.5160600000000 1.0
C      1  0.5364350000000  0.5600500000000  0.5042760000000 1.0
C      1  0.4476660000000  0.5130040000000  0.5211980000000 1.0
C      1  0.5946960000000  0.4125190000000  0.4840780000000 1.0
C      1  0.5172930000000  0.4915710000000  0.5677870000000 1.0
C      1  0.4779730000000  0.4223530000000  0.4641060000000 1.0
C      1  0.5748240000000  0.5034410000000  0.5342480000000 1.0
C      1  0.4966370000000  0.5736340000000  0.4747800000000 1.0
C      1  0.5470790000000  0.5448250000000  0.5279720000000 1.0
C      1  0.4934980000000  0.4991750000000  0.4235600000000 1.0
C      1  0.5220380000000  0.5498860000000  0.4440850000000 1.0
C      1  0.5334890000000  0.4302390000000  0.5098610000000 1.0
C      1  0.4451860000000  0.5610570000000  0.5146040000000 1.0
C      1  0.4435310000000  0.4777390000000  0.4601210000000 1.0
C      1  0.5607770000000  0.4372440000000  0.5096310000000 1.0
C      1  0.4622330000000  0.5751360000000  0.6076820000000 1.0
C      1  0.5830850000000  0.4792530000000  0.5219420000000 1.0
C      1  0.5582780000000  0.5218190000000  0.4904100000000 1.0
C      1  0.4705160000000  0.5064960000000  0.5365970000000 1.0
C      1  0.5037780000000  0.4775710000000  0.5473360000000 1.0
C      1  0.5365480000000  0.5123670000000  0.5634280000000 1.0
C      1  0.4642550000000  0.5530370000000  0.5940040000000 1.0
C      1  0.4624950000000  0.4517930000000  0.4980040000000 1.0
C      1  0.4653940000000  0.5071850000000  0.5649840000000 1.0
C      1  0.4688230000000  0.5423750000000  0.4420710000000 1.0
C      1  0.5689190000000  0.4483390000000  0.4631450000000 1.0
C      1  0.5629720000000  0.5007100000000  0.5603510000000 1.0
C      1  0.5074670000000  0.4331310000000  0.5000300000000 1.0
C      1  0.5301440000000  0.5379280000000  0.5500580000000 1.0
C      1  0.4506660000000  0.5844750000000  0.4598180000000 1.0
C      1  0.5741800000000  0.4750650000000  0.6009930000000 1.0
C      1  0.5165070000000  0.5743080000000  0.4541040000000 1.0
END
