TITL C-627106-156-120 0.0171898873780142 125000 -663.305236559668 0 0 110 (C1) n - 1
REM
REM in /home/nfs/bkarasulu/CARBON/AIRSS/Generating-Clusters/LCBOP/Only-C1/SD-CG/FIRE-CG
REM
REM
REM
REM
REM
REM ./C.cell (11c1c37f851c82e70ff6c80c92926a4b)
REM AIRSS Version 0.9.1 bugfix July 2018 build 013d7b7c2542+ Fri, 06 Jul 2018 19:26:36 +0100
REM compiler GCC version 9.2.1 20190827 (Red Hat 9.2.1-1)
REM options -cpp -mtune=generic -march=x86-64 -g -O0 -fpre-include=/usr/include/finclude/math-vector-fortran.h
REM seed -2056845609 1061175621 -211984338 -1098735761 -167566010 -398550736 1327205795 1814852162 -982994940 -1045522776 1238239394 -150329879 -1998595706 -1376730566 -1412564467 -381375280 1378587874 760522119 -138607581 -1777391141 1129919325 938701365 1315599362 1188420447 -838597000 2132924391 -180378531 -205833714 -1714233694 1588568791 -1800091330 -2128093312 1749919915
REM
CELL 1.54180   50.00000   50.00000   50.00000   90.00000   90.00000   90.00000
LATT -1
SFAC C  
C      1  0.4360530000000  0.4385710000000  0.5166760000000 1.0
C      1  0.5742220000000  0.4876770000000  0.4349450000000 1.0
C      1  0.4791120000000  0.5613680000000  0.3537930000000 1.0
C      1  0.5295820000000  0.4736660000000  0.4286700000000 1.0
C      1  0.4881720000000  0.5072760000000  0.4623660000000 1.0
C      1  0.3959730000000  0.5418350000000  0.6027720000000 1.0
C      1  0.5030250000000  0.5191300000000  0.5766480000000 1.0
C      1  0.4503360000000  0.5162720000000  0.5270810000000 1.0
C      1  0.4830400000000  0.5345300000000  0.4006320000000 1.0
C      1  0.4256990000000  0.4403890000000  0.5429170000000 1.0
C      1  0.5245350000000  0.5359570000000  0.5164770000000 1.0
C      1  0.5554960000000  0.4503270000000  0.5773100000000 1.0
C      1  0.4896900000000  0.4978730000000  0.5880600000000 1.0
C      1  0.4810710000000  0.5483360000000  0.3762760000000 1.0
C      1  0.5900530000000  0.5255870000000  0.4775880000000 1.0
C      1  0.4490980000000  0.4622670000000  0.5084510000000 1.0
C      1  0.4379820000000  0.4507760000000  0.4561170000000 1.0
C      1  0.5646580000000  0.5742490000000  0.5384800000000 1.0
C      1  0.5022620000000  0.4527710000000  0.5761030000000 1.0
C      1  0.5320160000000  0.4022670000000  0.5364810000000 1.0
C      1  0.5464980000000  0.5453260000000  0.4259930000000 1.0
C      1  0.5622370000000  0.5113670000000  0.5401260000000 1.0
C      1  0.4533110000000  0.5080770000000  0.4306270000000 1.0
C      1  0.4438700000000  0.5547460000000  0.4266120000000 1.0
C      1  0.4472770000000  0.5064070000000  0.5004020000000 1.0
C      1  0.4833150000000  0.3910080000000  0.4774140000000 1.0
C      1  0.4946510000000  0.4017770000000  0.4519810000000 1.0
C      1  0.4777190000000  0.4671740000000  0.5115390000000 1.0
C      1  0.5285630000000  0.4419280000000  0.5699480000000 1.0
C      1  0.4826400000000  0.6030290000000  0.5135550000000 1.0
C      1  0.5267180000000  0.4209570000000  0.4946340000000 1.0
C      1  0.5007730000000  0.3771440000000  0.4972750000000 1.0
C      1  0.5421040000000  0.5751060000000  0.4690460000000 1.0
C      1  0.4473160000000  0.4139770000000  0.5078890000000 1.0
C      1  0.4353700000000  0.4817890000000  0.4932380000000 1.0
C      1  0.5120520000000  0.5197330000000  0.4735020000000 1.0
C      1  0.4373110000000  0.4548570000000  0.5624620000000 1.0
C      1  0.4551900000000  0.3876430000000  0.5487270000000 1.0
C      1  0.5485030000000  0.4945950000000  0.4233850000000 1.0
C      1  0.5180210000000  0.5801240000000  0.5360550000000 1.0
C      1  0.4638830000000  0.4034050000000  0.5283700000000 1.0
C      1  0.5404140000000  0.5117320000000  0.4738140000000 1.0
C      1  0.5436230000000  0.5666970000000  0.4420310000000 1.0
C      1  0.4814530000000  0.4733770000000  0.5765840000000 1.0
C      1  0.5429340000000  0.5921200000000  0.5397850000000 1.0
C      1  0.5643680000000  0.5547310000000  0.5602650000000 1.0
C      1  0.5863880000000  0.4749030000000  0.4586700000000 1.0
C      1  0.4268450000000  0.5147460000000  0.5692990000000 1.0
C      1  0.5222290000000  0.4055430000000  0.4472560000000 1.0
C      1  0.4671070000000  0.5118890000000  0.4811800000000 1.0
C      1  0.4420020000000  0.5702330000000  0.4728000000000 1.0
C      1  0.4312150000000  0.4776770000000  0.4647020000000 1.0
C      1  0.5085030000000  0.4665090000000  0.4119740000000 1.0
C      1  0.4303420000000  0.5541350000000  0.4520130000000 1.0
C      1  0.4795580000000  0.5473310000000  0.5029800000000 1.0
C      1  0.5243250000000  0.4800310000000  0.5373130000000 1.0
C      1  0.4965450000000  0.5371580000000  0.5561850000000 1.0
C      1  0.5159830000000  0.5508880000000  0.5383450000000 1.0
C      1  0.4111870000000  0.5280680000000  0.5859930000000 1.0
C      1  0.5316480000000  0.5189590000000  0.5754060000000 1.0
C      1  0.4726750000000  0.5526210000000  0.5527070000000 1.0
C      1  0.5358710000000  0.5206510000000  0.4169540000000 1.0
C      1  0.5015690000000  0.4594000000000  0.4684420000000 1.0
C      1  0.4664290000000  0.5600910000000  0.4819970000000 1.0
C      1  0.5834540000000  0.4577310000000  0.5340580000000 1.0
C      1  0.4554940000000  0.6038930000000  0.5049060000000 1.0
C      1  0.6110670000000  0.4846300000000  0.4679600000000 1.0
C      1  0.5657540000000  0.4633290000000  0.4799000000000 1.0
C      1  0.5455810000000  0.4179270000000  0.4526730000000 1.0
C      1  0.5604570000000  0.4356150000000  0.4666180000000 1.0
C      1  0.5020720000000  0.4284930000000  0.5042450000000 1.0
C      1  0.4454340000000  0.5019490000000  0.5522130000000 1.0
C      1  0.4918010000000  0.4514460000000  0.4930690000000 1.0
C      1  0.5705070000000  0.5676420000000  0.5111410000000 1.0
C      1  0.4186870000000  0.5279190000000  0.4568490000000 1.0
C      1  0.5329620000000  0.4309720000000  0.5426810000000 1.0
C      1  0.5771480000000  0.4546860000000  0.5607640000000 1.0
C      1  0.5405020000000  0.4991610000000  0.5549780000000 1.0
C      1  0.4572350000000  0.4079530000000  0.4814670000000 1.0
C      1  0.5129800000000  0.5697280000000  0.5799500000000 1.0
C      1  0.5485870000000  0.5216480000000  0.5176700000000 1.0
C      1  0.4903600000000  0.4110200000000  0.5239600000000 1.0
C      1  0.4589100000000  0.5327200000000  0.4167010000000 1.0
C      1  0.3810450000000  0.5554210000000  0.6192710000000 1.0
C      1  0.5052260000000  0.5355800000000  0.4963950000000 1.0
C      1  0.5385360000000  0.4560500000000  0.5265730000000 1.0
C      1  0.4557590000000  0.4763000000000  0.5630140000000 1.0
C      1  0.4307610000000  0.5028440000000  0.4484180000000 1.0
C      1  0.4636090000000  0.5420110000000  0.5273700000000 1.0
C      1  0.4527380000000  0.4262800000000  0.4581140000000 1.0
C      1  0.4773500000000  0.4951300000000  0.4382210000000 1.0
C      1  0.4741900000000  0.4184320000000  0.4400530000000 1.0
C      1  0.5241270000000  0.4701510000000  0.4564270000000 1.0
C      1  0.5429850000000  0.4829000000000  0.4737080000000 1.0
C      1  0.4964680000000  0.4813490000000  0.5286090000000 1.0
C      1  0.4843640000000  0.4747810000000  0.4201630000000 1.0
C      1  0.5228940000000  0.5934870000000  0.4785670000000 1.0
C      1  0.5780720000000  0.5302640000000  0.5539930000000 1.0
C      1  0.5394100000000  0.5492380000000  0.5762390000000 1.0
C      1  0.6118240000000  0.5100550000000  0.4768950000000 1.0
C      1  0.4354510000000  0.5945440000000  0.4864960000000 1.0
C      1  0.5645370000000  0.4592330000000  0.5120660000000 1.0
C      1  0.5097180000000  0.3890820000000  0.5228760000000 1.0
C      1  0.4926270000000  0.5932170000000  0.5387980000000 1.0
C      1  0.4826990000000  0.5784250000000  0.5615550000000 1.0
C      1  0.5581420000000  0.5592100000000  0.4866530000000 1.0
C      1  0.4120120000000  0.6079030000000  0.4825060000000 1.0
C      1  0.5025970000000  0.6038860000000  0.4928230000000 1.0
C      1  0.5087480000000  0.5233210000000  0.4071980000000 1.0
C      1  0.5625000000000  0.5316650000000  0.4778750000000 1.0
END
