TITL C-627110-360-117 -1.11577871159743e-06 125000 -1209.96610069554 0 0 198 (C1) n - 1
REM
REM in /home/nfs/bkarasulu/CARBON/AIRSS/Generating-Clusters/LCBOP/Only-C1/SD-CG/FIRE-CG
REM
REM
REM
REM
REM
REM ./C.cell (11c1c37f851c82e70ff6c80c92926a4b)
REM AIRSS Version 0.9.1 bugfix July 2018 build 013d7b7c2542+ Fri, 06 Jul 2018 19:26:36 +0100
REM compiler GCC version 9.2.1 20190827 (Red Hat 9.2.1-1)
REM options -cpp -mtune=generic -march=x86-64 -g -O0 -fpre-include=/usr/include/finclude/math-vector-fortran.h
REM seed -1476196808 -590550869 376755218 -1286860954 -573031217 -1754633614 322158727 -528847406 1788116149 523686303 -401680485 806701226 947842561 2136834535 -1214790994 307099491 -1121738681 -761269986 -1666043853 871981372 -1098094731 1320998142 -84533842 592875528 1016412151 293888271 -48327636 -1112581324 -617983343 -678442905 1675471278 -602495208 1482210475
REM
CELL 1.54180   50.00000   50.00000   50.00000   90.00000   90.00000   90.00000
LATT -1
SFAC C  
C      1  0.5133170000000  0.4470850000000  0.4669370000000 1.0
C      1  0.4703020000000  0.4708310000000  0.5133580000000 1.0
C      1  0.5473700000000  0.3971880000000  0.4811540000000 1.0
C      1  0.4427790000000  0.4978480000000  0.6185730000000 1.0
C      1  0.4102480000000  0.5178190000000  0.4484010000000 1.0
C      1  0.4592060000000  0.4555350000000  0.4117190000000 1.0
C      1  0.5124870000000  0.4213450000000  0.5332950000000 1.0
C      1  0.5902980000000  0.5380300000000  0.4413220000000 1.0
C      1  0.4965220000000  0.4284450000000  0.6101510000000 1.0
C      1  0.6223640000000  0.5034060000000  0.5169120000000 1.0
C      1  0.4660750000000  0.5916660000000  0.4350180000000 1.0
C      1  0.4660720000000  0.4230520000000  0.5246530000000 1.0
C      1  0.4541140000000  0.5210100000000  0.4875050000000 1.0
C      1  0.5622340000000  0.4531770000000  0.4891210000000 1.0
C      1  0.4783320000000  0.5081830000000  0.4450950000000 1.0
C      1  0.4770320000000  0.5590910000000  0.5457590000000 1.0
C      1  0.4891970000000  0.5758730000000  0.4333230000000 1.0
C      1  0.5695060000000  0.4840300000000  0.4605400000000 1.0
C      1  0.4558920000000  0.4648390000000  0.4630840000000 1.0
C      1  0.4287790000000  0.4129370000000  0.5509430000000 1.0
C      1  0.5795240000000  0.4350190000000  0.4755980000000 1.0
C      1  0.5665960000000  0.5182840000000  0.5003590000000 1.0
C      1  0.4339470000000  0.4815340000000  0.4541970000000 1.0
C      1  0.5034780000000  0.5574170000000  0.5340780000000 1.0
C      1  0.4779290000000  0.4515730000000  0.6156610000000 1.0
C      1  0.4129230000000  0.5018510000000  0.4220210000000 1.0
C      1  0.4677980000000  0.5831290000000  0.5593750000000 1.0
C      1  0.5329430000000  0.4547450000000  0.4871540000000 1.0
C      1  0.4966240000000  0.6058770000000  0.4979950000000 1.0
C      1  0.5171940000000  0.4214660000000  0.5893930000000 1.0
C      1  0.4058850000000  0.5755130000000  0.4699860000000 1.0
C      1  0.4435200000000  0.4388330000000  0.4712050000000 1.0
C      1  0.4390480000000  0.5102210000000  0.4106120000000 1.0
C      1  0.5690360000000  0.4365180000000  0.4161810000000 1.0
C      1  0.5603680000000  0.5512620000000  0.5791830000000 1.0
C      1  0.5131230000000  0.5607490000000  0.5920170000000 1.0
C      1  0.3925620000000  0.5706410000000  0.5333070000000 1.0
C      1  0.4326760000000  0.6015260000000  0.5110610000000 1.0
C      1  0.4749690000000  0.4964890000000  0.5823110000000 1.0
C      1  0.5042360000000  0.5054560000000  0.4850620000000 1.0
C      1  0.6264700000000  0.5068610000000  0.5449680000000 1.0
C      1  0.5955230000000  0.4763670000000  0.4515430000000 1.0
C      1  0.6202150000000  0.4849420000000  0.4401040000000 1.0
C      1  0.5221760000000  0.4949430000000  0.6045730000000 1.0
C      1  0.5109460000000  0.4942230000000  0.5124850000000 1.0
C      1  0.5145530000000  0.4981390000000  0.3848410000000 1.0
C      1  0.4663380000000  0.5254440000000  0.3474380000000 1.0
C      1  0.4150840000000  0.4442820000000  0.4657650000000 1.0
C      1  0.4414510000000  0.4331890000000  0.4208420000000 1.0
C      1  0.4807730000000  0.5435160000000  0.3903480000000 1.0
C      1  0.4679840000000  0.4541600000000  0.5612250000000 1.0
C      1  0.4892010000000  0.5443010000000  0.5983710000000 1.0
C      1  0.4227380000000  0.6038030000000  0.4174380000000 1.0
C      1  0.4674190000000  0.5112440000000  0.5372300000000 1.0
C      1  0.4555290000000  0.5219550000000  0.4325840000000 1.0
C      1  0.4824930000000  0.5239740000000  0.5795670000000 1.0
C      1  0.4160470000000  0.4458130000000  0.4347530000000 1.0
C      1  0.4476590000000  0.6177820000000  0.6144670000000 1.0
C      1  0.4919520000000  0.6003970000000  0.5570620000000 1.0
C      1  0.5379050000000  0.5819980000000  0.5521920000000 1.0
C      1  0.4844580000000  0.3964850000000  0.4293410000000 1.0
C      1  0.6403150000000  0.5168520000000  0.4747080000000 1.0
C      1  0.4282580000000  0.5935980000000  0.4646730000000 1.0
C      1  0.6179250000000  0.4920250000000  0.4129020000000 1.0
C      1  0.6071480000000  0.5493820000000  0.4897070000000 1.0
C      1  0.6394290000000  0.4982510000000  0.4554980000000 1.0
C      1  0.4909640000000  0.4134860000000  0.5179410000000 1.0
C      1  0.4796200000000  0.3525530000000  0.4879620000000 1.0
C      1  0.3842430000000  0.4817730000000  0.5357040000000 1.0
C      1  0.5156960000000  0.5931710000000  0.4790000000000 1.0
C      1  0.5159670000000  0.5852260000000  0.5738690000000 1.0
C      1  0.5662140000000  0.5294490000000  0.4544700000000 1.0
C      1  0.5780510000000  0.4368570000000  0.5936680000000 1.0
C      1  0.3961910000000  0.4357010000000  0.5210250000000 1.0
C      1  0.6239320000000  0.4581800000000  0.4885490000000 1.0
C      1  0.4365050000000  0.5741160000000  0.5176830000000 1.0
C      1  0.5697350000000  0.4585100000000  0.3972490000000 1.0
C      1  0.4480660000000  0.4927160000000  0.5745920000000 1.0
C      1  0.5344210000000  0.5185400000000  0.4224180000000 1.0
C      1  0.4024730000000  0.4145270000000  0.5028590000000 1.0
C      1  0.5628620000000  0.4587030000000  0.3693570000000 1.0
C      1  0.5695800000000  0.3886740000000  0.4215820000000 1.0
C      1  0.4104440000000  0.6131920000000  0.5249220000000 1.0
C      1  0.4007980000000  0.4711530000000  0.4852340000000 1.0
C      1  0.5390800000000  0.4738300000000  0.5670820000000 1.0
C      1  0.4764860000000  0.5052950000000  0.4756220000000 1.0
C      1  0.5176630000000  0.4685650000000  0.4471990000000 1.0
C      1  0.5661810000000  0.4133840000000  0.4632960000000 1.0
C      1  0.3822230000000  0.5281430000000  0.4874990000000 1.0
C      1  0.5933920000000  0.5036560000000  0.4054470000000 1.0
C      1  0.5205650000000  0.5798550000000  0.5291930000000 1.0
C      1  0.4693460000000  0.5460240000000  0.6191900000000 1.0
C      1  0.5676520000000  0.4133740000000  0.4338530000000 1.0
C      1  0.4082150000000  0.5142990000000  0.5724210000000 1.0
C      1  0.5078930000000  0.3887640000000  0.4420450000000 1.0
C      1  0.4711880000000  0.6129580000000  0.4870770000000 1.0
C      1  0.5709220000000  0.4858250000000  0.4065620000000 1.0
C      1  0.3945090000000  0.4717170000000  0.5607350000000 1.0
C      1  0.4920440000000  0.4253200000000  0.4718450000000 1.0
C      1  0.3789720000000  0.5508000000000  0.5730390000000 1.0
C      1  0.4963560000000  0.4850630000000  0.4021710000000 1.0
C      1  0.4590240000000  0.4718120000000  0.6212320000000 1.0
C      1  0.5982270000000  0.4609110000000  0.5264700000000 1.0
C      1  0.4942940000000  0.4832390000000  0.4333560000000 1.0
C      1  0.3949000000000  0.5720070000000  0.5624470000000 1.0
C      1  0.5414880000000  0.5800800000000  0.4887320000000 1.0
C      1  0.4410620000000  0.4461630000000  0.5706140000000 1.0
C      1  0.5613000000000  0.5649650000000  0.5539410000000 1.0
C      1  0.5697870000000  0.5466470000000  0.3977220000000 1.0
C      1  0.5772130000000  0.5545430000000  0.5310310000000 1.0
C      1  0.5018960000000  0.6023850000000  0.5274370000000 1.0
C      1  0.4273450000000  0.5014820000000  0.5928130000000 1.0
C      1  0.6042990000000  0.4390120000000  0.5447750000000 1.0
C      1  0.5684100000000  0.4158340000000  0.5275990000000 1.0
C      1  0.5212150000000  0.4661560000000  0.5110460000000 1.0
C      1  0.5377070000000  0.5447660000000  0.5952950000000 1.0
C      1  0.4431610000000  0.4072510000000  0.5276380000000 1.0
C      1  0.4685480000000  0.4770740000000  0.4855250000000 1.0
C      1  0.4673220000000  0.5236450000000  0.3747140000000 1.0
C      1  0.3916620000000  0.4638870000000  0.5125410000000 1.0
C      1  0.4721000000000  0.4627170000000  0.4373320000000 1.0
C      1  0.6075950000000  0.4393180000000  0.4774550000000 1.0
C      1  0.5657860000000  0.5725210000000  0.4098740000000 1.0
C      1  0.4136960000000  0.4519150000000  0.5653120000000 1.0
C      1  0.4544670000000  0.5017440000000  0.3885780000000 1.0
C      1  0.4688640000000  0.4769910000000  0.3936920000000 1.0
C      1  0.5943920000000  0.4583270000000  0.5954890000000 1.0
C      1  0.5480580000000  0.4938590000000  0.4209820000000 1.0
C      1  0.5682600000000  0.4180850000000  0.5745230000000 1.0
C      1  0.3738760000000  0.5095510000000  0.5381660000000 1.0
C      1  0.4669610000000  0.4501710000000  0.5322000000000 1.0
C      1  0.5168080000000  0.5338000000000  0.5413480000000 1.0
C      1  0.5891950000000  0.5311060000000  0.4130190000000 1.0
C      1  0.5262150000000  0.5166810000000  0.5224030000000 1.0
C      1  0.5166190000000  0.4764190000000  0.5833270000000 1.0
C      1  0.4063920000000  0.4296210000000  0.5476720000000 1.0
C      1  0.5531540000000  0.4842230000000  0.3604620000000 1.0
C      1  0.4496770000000  0.5922910000000  0.6047500000000 1.0
C      1  0.6101550000000  0.4780990000000  0.5861660000000 1.0
C      1  0.4157370000000  0.4751850000000  0.4320980000000 1.0
C      1  0.5341050000000  0.5190930000000  0.6069120000000 1.0
C      1  0.5602500000000  0.4880410000000  0.5595070000000 1.0
C      1  0.4193840000000  0.5291310000000  0.5215630000000 1.0
C      1  0.5529340000000  0.5312230000000  0.3794880000000 1.0
C      1  0.5301440000000  0.3997830000000  0.5421060000000 1.0
C      1  0.5406630000000  0.5296580000000  0.5023650000000 1.0
C      1  0.5075900000000  0.5749350000000  0.4552630000000 1.0
C      1  0.5549340000000  0.4421660000000  0.5307000000000 1.0
C      1  0.4275100000000  0.5171760000000  0.4965790000000 1.0
C      1  0.5401630000000  0.5352890000000  0.4438140000000 1.0
C      1  0.5489640000000  0.3974460000000  0.5178030000000 1.0
C      1  0.4345780000000  0.5347210000000  0.4478630000000 1.0
C      1  0.4570980000000  0.5710570000000  0.6214420000000 1.0
C      1  0.4151420000000  0.5566430000000  0.5226320000000 1.0
C      1  0.3693950000000  0.5226080000000  0.5128170000000 1.0
C      1  0.5232140000000  0.5504600000000  0.4600230000000 1.0
C      1  0.4890990000000  0.4722200000000  0.5750160000000 1.0
C      1  0.4732240000000  0.5329230000000  0.5541860000000 1.0
C      1  0.5266860000000  0.4458770000000  0.5304490000000 1.0
C      1  0.6011080000000  0.5571970000000  0.4606970000000 1.0
C      1  0.5267630000000  0.3871190000000  0.4622970000000 1.0
C      1  0.5717190000000  0.4595680000000  0.5157320000000 1.0
C      1  0.4259670000000  0.4007040000000  0.5057930000000 1.0
C      1  0.5389750000000  0.4098380000000  0.5709750000000 1.0
C      1  0.4938140000000  0.4081720000000  0.6293310000000 1.0
C      1  0.6171850000000  0.4752810000000  0.5103130000000 1.0
C      1  0.5392230000000  0.5062540000000  0.3724800000000 1.0
C      1  0.6217710000000  0.4952630000000  0.5689400000000 1.0
C      1  0.4447080000000  0.5868480000000  0.5769800000000 1.0
C      1  0.5334660000000  0.5516910000000  0.4870560000000 1.0
C      1  0.6232530000000  0.5248650000000  0.4961630000000 1.0
C      1  0.4434420000000  0.6067780000000  0.4858010000000 1.0
C      1  0.4902520000000  0.5589530000000  0.4103230000000 1.0
C      1  0.4146180000000  0.6159970000000  0.5531890000000 1.0
C      1  0.4386650000000  0.5965110000000  0.4383750000000 1.0
C      1  0.3815310000000  0.5233670000000  0.5646930000000 1.0
C      1  0.4441300000000  0.4993990000000  0.5477810000000 1.0
C      1  0.5702030000000  0.5823980000000  0.4868620000000 1.0
C      1  0.5773000000000  0.5253960000000  0.5265800000000 1.0
C      1  0.5447490000000  0.4787000000000  0.4449200000000 1.0
C      1  0.5740070000000  0.5071840000000  0.5474170000000 1.0
C      1  0.5653230000000  0.4370910000000  0.3529810000000 1.0
C      1  0.5822660000000  0.5805850000000  0.4598570000000 1.0
C      1  0.4941610000000  0.4043200000000  0.4919360000000 1.0
C      1  0.3873420000000  0.5961220000000  0.5212790000000 1.0
C      1  0.5711430000000  0.5850840000000  0.4336980000000 1.0
C      1  0.4640270000000  0.4214240000000  0.4620850000000 1.0
C      1  0.4882040000000  0.3771750000000  0.4878290000000 1.0
C      1  0.5855460000000  0.4171890000000  0.5504810000000 1.0
C      1  0.3889530000000  0.5550900000000  0.4772920000000 1.0
C      1  0.4556640000000  0.5222050000000  0.6276450000000 1.0
C      1  0.5871120000000  0.5663540000000  0.5060040000000 1.0
C      1  0.5698080000000  0.5090940000000  0.4740590000000 1.0
C      1  0.4840020000000  0.4933140000000  0.5244810000000 1.0
C      1  0.4036260000000  0.5067850000000  0.4783660000000 1.0
C      1  0.4606280000000  0.4129140000000  0.4343700000000 1.0
C      1  0.4171490000000  0.5912820000000  0.5684790000000 1.0
C      1  0.4213080000000  0.5147360000000  0.5455490000000 1.0
END
