TITL C-627106-156-136 96.8083579848295 125000 -906.330528067578 0 0 149 (C1) n - 1
REM
REM in /home/nfs/bkarasulu/CARBON/AIRSS/Generating-Clusters/LCBOP/Only-C1/SD-CG/FIRE-CG
REM
REM
REM
REM
REM
REM ./C.cell (11c1c37f851c82e70ff6c80c92926a4b)
REM AIRSS Version 0.9.1 bugfix July 2018 build 013d7b7c2542+ Fri, 06 Jul 2018 19:26:36 +0100
REM compiler GCC version 9.2.1 20190827 (Red Hat 9.2.1-1)
REM options -cpp -mtune=generic -march=x86-64 -g -O0 -fpre-include=/usr/include/finclude/math-vector-fortran.h
REM seed -2131464527 1625538067 1201108360 -412319679 2106166128 948471507 -127979948 -675890564 754448054 -1803012682 -1065822399 -576088517 -642449039 1292939490 -1968383214 -1714517450 1812546091 -646894828 -1093786701 -1726812181 -1914647672 1947930135 62748704 -919301121 -967568129 1006615856 1105960519 -1898945826 33004160 2020460391 328173128 2028441096 -680414397
REM
CELL 1.54180   50.00000   50.00000   50.00000   90.00000   90.00000   90.00000
LATT -1
SFAC C  
C      1  0.4295630000000  0.5255100000000  0.4085940000000 1.0
C      1  0.5054890000000  0.3766410000000  0.5155110000000 1.0
C      1  0.3694050000000  0.4095760000000  0.5061800000000 1.0
C      1  0.4549770000000  0.3893950000000  0.5432080000000 1.0
C      1  0.4217420000000  0.4747550000000  0.4023310000000 1.0
C      1  0.5840570000000  0.5056960000000  0.5658260000000 1.0
C      1  0.6005890000000  0.5298460000000  0.5593310000000 1.0
C      1  0.4932120000000  0.5104740000000  0.6115280000000 1.0
C      1  0.4908470000000  0.5010130000000  0.4801640000000 1.0
C      1  0.4871360000000  0.4741830000000  0.4123420000000 1.0
C      1  0.4917500000000  0.5797270000000  0.5750170000000 1.0
C      1  0.4577520000000  0.4181910000000  0.4019620000000 1.0
C      1  0.5391110000000  0.4426370000000  0.3872820000000 1.0
C      1  0.5217920000000  0.4654300000000  0.5570280000000 1.0
C      1  0.4534620000000  0.4875960000000  0.5519270000000 1.0
C      1  0.4942310000000  0.5081790000000  0.4511370000000 1.0
C      1  0.4083820000000  0.5051820000000  0.5492260000000 1.0
C      1  0.4651830000000  0.5288050000000  0.3799310000000 1.0
C      1  0.4044240000000  0.4450040000000  0.4844930000000 1.0
C      1  0.5485100000000  0.5572270000000  0.4243940000000 1.0
C      1  0.4650830000000  0.4616760000000  0.5038550000000 1.0
C      1  0.5005360000000  0.5172350000000  0.5827140000000 1.0
C      1  0.4965960000000  0.5034350000000  0.5265630000000 1.0
C      1  0.5137800000000  0.4474100000000  0.3791400000000 1.0
C      1  0.5574290000000  0.5169050000000  0.5650140000000 1.0
C      1  0.5457080000000  0.5243110000000  0.5895000000000 1.0
C      1  0.3859070000000  0.5323750000000  0.4383660000000 1.0
C      1  0.3904430000000  0.5126460000000  0.5277120000000 1.0
C      1  0.4487810000000  0.4004490000000  0.5196570000000 1.0
C      1  0.4469500000000  0.5615520000000  0.5750920000000 1.0
C      1  0.5899590000000  0.4484230000000  0.4930560000000 1.0
C      1  0.5198100000000  0.4327850000000  0.5180040000000 1.0
C      1  0.3740500000000  0.5096270000000  0.4826180000000 1.0
C      1  0.6051920000000  0.5725280000000  0.4953210000000 1.0
C      1  0.5179820000000  0.5054470000000  0.6255170000000 1.0
C      1  0.4052640000000  0.5227540000000  0.5729310000000 1.0
C      1  0.3857440000000  0.4268250000000  0.4954720000000 1.0
C      1  0.3888110000000  0.4971790000000  0.5031630000000 1.0
C      1  0.4624080000000  0.5878810000000  0.6135270000000 1.0
C      1  0.4778090000000  0.4856970000000  0.5384130000000 1.0
C      1  0.5579720000000  0.4061300000000  0.5043980000000 1.0
C      1  0.3733290000000  0.5231150000000  0.4597950000000 1.0
C      1  0.4352580000000  0.5056510000000  0.5407920000000 1.0
C      1  0.4453020000000  0.5320070000000  0.5363980000000 1.0
C      1  0.5254320000000  0.3891040000000  0.5608710000000 1.0
C      1  0.5001270000000  0.3817060000000  0.4878440000000 1.0
C      1  0.5574310000000  0.5658110000000  0.5148450000000 1.0
C      1  0.4003240000000  0.5494750000000  0.5602000000000 1.0
C      1  0.4840990000000  0.5299900000000  0.5620630000000 1.0
C      1  0.4953950000000  0.5931380000000  0.4479880000000 1.0
C      1  0.4723570000000  0.4042630000000  0.4509270000000 1.0
C      1  0.5142880000000  0.4362700000000  0.4911150000000 1.0
C      1  0.4583220000000  0.5398220000000  0.5609820000000 1.0
C      1  0.5446990000000  0.4206160000000  0.5244210000000 1.0
C      1  0.5734680000000  0.5213980000000  0.4444740000000 1.0
C      1  0.4623210000000  0.5648180000000  0.4155670000000 1.0
C      1  0.5589880000000  0.4136520000000  0.4769200000000 1.0
C      1  0.5027050000000  0.5494580000000  0.5205350000000 1.0
C      1  0.4812690000000  0.4602420000000  0.5275490000000 1.0
C      1  0.5311660000000  0.5334130000000  0.4651650000000 1.0
C      1  0.5427240000000  0.5037420000000  0.3930170000000 1.0
C      1  0.4115110000000  0.6119790000000  0.5391620000000 1.0
C      1  0.4906800000000  0.5975100000000  0.5023190000000 1.0
C      1  0.4452580000000  0.5530380000000  0.5173880000000 1.0
C      1  0.5409990000000  0.4473280000000  0.4364230000000 1.0
C      1  0.6790130000000  0.5285760000000  0.5783280000000 1.0
C      1  0.5434120000000  0.4083140000000  0.5681260000000 1.0
C      1  0.4731930000000  0.5934920000000  0.5257060000000 1.0
C      1  0.4321330000000  0.4994880000000  0.3949390000000 1.0
C      1  0.4611040000000  0.4375740000000  0.4893680000000 1.0
C      1  0.5552500000000  0.4594800000000  0.4596300000000 1.0
C      1  0.5389290000000  0.5810330000000  0.4970490000000 1.0
C      1  0.4405140000000  0.4194390000000  0.4460200000000 1.0
C      1  0.4736690000000  0.4456490000000  0.4638250000000 1.0
C      1  0.6536070000000  0.5289080000000  0.5724960000000 1.0
C      1  0.4179840000000  0.5177500000000  0.5974730000000 1.0
C      1  0.5711020000000  0.4394370000000  0.4734050000000 1.0
C      1  0.4225390000000  0.4326880000000  0.4650950000000 1.0
C      1  0.5487580000000  0.4561460000000  0.4101660000000 1.0
C      1  0.5227810000000  0.5947040000000  0.4402500000000 1.0
C      1  0.4605340000000  0.4103510000000  0.4964340000000 1.0
C      1  0.5042890000000  0.3804000000000  0.5439070000000 1.0
C      1  0.5529050000000  0.4682990000000  0.5208480000000 1.0
C      1  0.5930730000000  0.5779960000000  0.4710540000000 1.0
C      1  0.5121010000000  0.5291700000000  0.4439830000000 1.0
C      1  0.6278070000000  0.5292760000000  0.5664940000000 1.0
C      1  0.4760830000000  0.3945550000000  0.4781010000000 1.0
C      1  0.4952580000000  0.4147960000000  0.4331090000000 1.0
C      1  0.5090420000000  0.4970530000000  0.5018340000000 1.0
C      1  0.3858310000000  0.5412440000000  0.5350670000000 1.0
C      1  0.4966630000000  0.5290020000000  0.5367360000000 1.0
C      1  0.5533590000000  0.4288810000000  0.5509450000000 1.0
C      1  0.5260810000000  0.5243320000000  0.3970770000000 1.0
C      1  0.4474490000000  0.5809110000000  0.5247760000000 1.0
C      1  0.5549000000000  0.4829480000000  0.4046120000000 1.0
C      1  0.5616660000000  0.5673200000000  0.5438060000000 1.0
C      1  0.5551250000000  0.6278410000000  0.4865200000000 1.0
C      1  0.5429090000000  0.5100130000000  0.6143610000000 1.0
C      1  0.5537270000000  0.4883280000000  0.4764720000000 1.0
C      1  0.5012720000000  0.4434240000000  0.4692130000000 1.0
C      1  0.5333820000000  0.4820540000000  0.5005010000000 1.0
C      1  0.4534040000000  0.5041270000000  0.3757890000000 1.0
C      1  0.5901180000000  0.5552180000000  0.5457610000000 1.0
C      1  0.4017650000000  0.4721630000000  0.4950480000000 1.0
C      1  0.5775950000000  0.4952320000000  0.4959830000000 1.0
C      1  0.4669250000000  0.4843840000000  0.4837160000000 1.0
C      1  0.5689470000000  0.5430420000000  0.5026780000000 1.0
C      1  0.5373970000000  0.5773610000000  0.5569420000000 1.0
C      1  0.4365470000000  0.4265260000000  0.4186030000000 1.0
C      1  0.4258180000000  0.5890210000000  0.5421630000000 1.0
C      1  0.4654750000000  0.4719030000000  0.4564720000000 1.0
C      1  0.5379170000000  0.4035850000000  0.4597050000000 1.0
C      1  0.5800440000000  0.4695940000000  0.5090050000000 1.0
C      1  0.4659210000000  0.5108010000000  0.6182130000000 1.0
C      1  0.5721990000000  0.5415980000000  0.4265240000000 1.0
C      1  0.4910010000000  0.5936190000000  0.5495890000000 1.0
C      1  0.4931160000000  0.4504380000000  0.3979760000000 1.0
C      1  0.5681160000000  0.5881240000000  0.4599070000000 1.0
C      1  0.4221480000000  0.4493620000000  0.4106650000000 1.0
C      1  0.5242860000000  0.5407330000000  0.4199150000000 1.0
C      1  0.5249520000000  0.4215280000000  0.4403000000000 1.0
C      1  0.5289090000000  0.5575720000000  0.4795950000000 1.0
C      1  0.5218640000000  0.5394460000000  0.5855330000000 1.0
C      1  0.6149520000000  0.4379660000000  0.4957480000000 1.0
C      1  0.4213390000000  0.5696920000000  0.5631880000000 1.0
C      1  0.5179010000000  0.5947960000000  0.5120090000000 1.0
C      1  0.5681850000000  0.5171970000000  0.5128140000000 1.0
C      1  0.4398540000000  0.5137170000000  0.6125230000000 1.0
C      1  0.4841210000000  0.4257170000000  0.4085140000000 1.0
C      1  0.5194050000000  0.5944220000000  0.5404710000000 1.0
C      1  0.5058040000000  0.4492400000000  0.5369010000000 1.0
C      1  0.4779540000000  0.3809060000000  0.5541830000000 1.0
C      1  0.5520630000000  0.5159720000000  0.5368480000000 1.0
C      1  0.5525190000000  0.4601720000000  0.5513740000000 1.0
C      1  0.4805090000000  0.4868460000000  0.4366460000000 1.0
C      1  0.4067750000000  0.5336010000000  0.4221100000000 1.0
C      1  0.4667990000000  0.5769570000000  0.5889360000000 1.0
C      1  0.4767910000000  0.5817950000000  0.4301380000000 1.0
C      1  0.5184110000000  0.5662300000000  0.5771450000000 1.0
C      1  0.5773200000000  0.4766230000000  0.5635210000000 1.0
C      1  0.5485380000000  0.5819920000000  0.4385510000000 1.0
C      1  0.6057580000000  0.5650730000000  0.5219700000000 1.0
C      1  0.5221890000000  0.3824050000000  0.4700410000000 1.0
C      1  0.5122630000000  0.4885180000000  0.5720810000000 1.0
C      1  0.5540490000000  0.6011610000000  0.4811630000000 1.0
C      1  0.4871620000000  0.5988820000000  0.4745370000000 1.0
C      1  0.4524300000000  0.5427890000000  0.4018570000000 1.0
C      1  0.5523820000000  0.5143010000000  0.4620670000000 1.0
C      1  0.4473380000000  0.4708980000000  0.5726510000000 1.0
END
