TITL C-627111-6168-1826 0.00814562582928761 125000 -96.021785129263 0 0 18 (C1) n - 1
REM
REM in /home/nfs/bkarasulu/CARBON/AIRSS/Generating-Clusters/LCBOP/Only-C1/SD-CG/FIRE-CG
REM
REM
REM
REM
REM
REM ./C.cell (11c1c37f851c82e70ff6c80c92926a4b)
REM AIRSS Version 0.9.1 bugfix July 2018 build 013d7b7c2542+ Fri, 06 Jul 2018 19:26:36 +0100
REM compiler GCC version 9.2.1 20190827 (Red Hat 9.2.1-1)
REM options -cpp -mtune=generic -march=x86-64 -g -O0 -fpre-include=/usr/include/finclude/math-vector-fortran.h
REM seed -997569022 -1735482555 1471235292 976786910 677564490 -842507132 -1305101146 -1860680517 -847018680 -925256485 -302928887 2122090254 1024842185 -1955620678 9228908 1219485510 110146443 411746742 884257641 -1031335365 13250872 2056004574 1036801858 844942987 365348299 1022724248 2114348753 -1053166292 -255561421 -1036687379 -261394409 996435092 1481129346
REM
CELL 1.54180   50.00000   50.00000   50.00000   90.00000   90.00000   90.00000
LATT -1
SFAC C  
C      1  0.5396460000000  0.4320180000000  0.5165140000000 1.0
C      1  0.4755920000000  0.5074160000000  0.4369180000000 1.0
C      1  0.5070070000000  0.5171490000000  0.5222090000000 1.0
C      1  0.4828190000000  0.5139260000000  0.5367960000000 1.0
C      1  0.5029430000000  0.5050110000000  0.4751920000000 1.0
C      1  0.4593260000000  0.5252380000000  0.5267200000000 1.0
C      1  0.5274100000000  0.4761510000000  0.5055020000000 1.0
C      1  0.5630280000000  0.4456450000000  0.5098930000000 1.0
C      1  0.5180360000000  0.4496270000000  0.5141010000000 1.0
C      1  0.5125480000000  0.4993070000000  0.5007810000000 1.0
C      1  0.4382090000000  0.5353100000000  0.5142890000000 1.0
C      1  0.4178380000000  0.5449440000000  0.5011830000000 1.0
C      1  0.4826200000000  0.4998160000000  0.5602320000000 1.0
C      1  0.5564410000000  0.4720080000000  0.5032270000000 1.0
C      1  0.4773350000000  0.4972920000000  0.4629420000000 1.0
C      1  0.4989400000000  0.5215300000000  0.4312650000000 1.0
C      1  0.5245810000000  0.5371340000000  0.5285740000000 1.0
C      1  0.5156800000000  0.5204780000000  0.4536600000000 1.0
END
