TITL C-627112-676-79 -986915.274123952 125000 -986.826782355518 0 0 162 (C1) n - 1
REM
REM in /home/nfs/bkarasulu/CARBON/AIRSS/Generating-Clusters/LCBOP/Only-C1/SD-CG/FIRE-CG
REM
REM
REM
REM
REM
REM ./C.cell (11c1c37f851c82e70ff6c80c92926a4b)
REM AIRSS Version 0.9.1 bugfix July 2018 build 013d7b7c2542+ Fri, 06 Jul 2018 19:26:36 +0100
REM compiler GCC version 9.2.1 20190827 (Red Hat 9.2.1-1)
REM options -cpp -mtune=generic -march=x86-64 -g -O0 -fpre-include=/usr/include/finclude/math-vector-fortran.h
REM seed -86923154 1134857674 -1590199638 996131091 1655739828 2000162765 486449408 341282690 1250585332 613137975 485062395 -98580090 936946457 1608695689 -1939691450 -390490364 568969010 2015912780 1445195039 1436441661 -492925493 -1318458609 648697271 1129565077 -2078402251 1911956492 -582345960 1050848823 1260293838 -856101812 2112391827 1149949225 -1055125758
REM
CELL 1.54180   50.00000   50.00000   50.00000   90.00000   90.00000   90.00000
LATT -1
SFAC C  
C      1  0.4449440000000  0.5174050000000  0.5047610000000 1.0
C      1  0.4910700000000  0.3784550000000  0.4720610000000 1.0
C      1  0.5640160000000  0.5110600000000  0.5042220000000 1.0
C      1  0.4355730000000  0.5837310000000  0.3932800000000 1.0
C      1  0.3918800000000  0.5116220000000  0.5269860000000 1.0
C      1  0.6535410000000  0.4451220000000  0.5425190000000 1.0
C      1  0.5924200000000  0.5582940000000  0.4583830000000 1.0
C      1  0.5029190000000  0.4229100000000  0.4009190000000 1.0
C      1  0.4442600000000  0.4637980000000  0.3850680000000 1.0
C      1  0.6293100000000  0.4343750000000  0.5356590000000 1.0
C      1  0.4695330000000  0.6157220000000  0.4963510000000 1.0
C      1  0.5114040000000  0.4573950000000  0.5324860000000 1.0
C      1  0.3952790000000  0.5089350000000  0.4504390000000 1.0
C      1  0.6050670000000  0.4628310000000  0.5043940000000 1.0
C      1  0.4255000000000  0.4016950000000  0.4855390000000 1.0
C      1  0.3964040000000  0.5322210000000  0.5461850000000 1.0
C      1  0.3953050000000  0.5010530000000  0.4775650000000 1.0
C      1  0.4867510000000  0.4323620000000  0.3813200000000 1.0
C      1  0.6261270000000  0.4073830000000  0.5321730000000 1.0
C      1  0.4377190000000  0.4548310000000  0.5464250000000 1.0
C      1  0.4098140000000  0.5505730000000  0.5052130000000 1.0
C      1  0.5270410000000  0.4110870000000  0.4747950000000 1.0
C      1  0.4983980000000  0.4706530000000  0.6162090000000 1.0
C      1  0.5613290000000  0.4919660000000  0.5243710000000 1.0
C      1  0.5894470000000  0.5504990000000  0.5024980000000 1.0
C      1  0.4380600000000  0.5134370000000  0.5901850000000 1.0
C      1  0.5302240000000  0.5792990000000  0.5764680000000 1.0
C      1  0.3971010000000  0.5219920000000  0.4993620000000 1.0
C      1  0.4909370000000  0.4287130000000  0.5795680000000 1.0
C      1  0.4441850000000  0.4996870000000  0.5293420000000 1.0
C      1  0.3881240000000  0.4669240000000  0.5106840000000 1.0
C      1  0.5249430000000  0.4221140000000  0.4466160000000 1.0
C      1  0.3969760000000  0.5037420000000  0.4008320000000 1.0
C      1  0.5615700000000  0.5408200000000  0.4988660000000 1.0
C      1  0.5148950000000  0.5336700000000  0.5645380000000 1.0
C      1  0.4361710000000  0.4516450000000  0.5038290000000 1.0
C      1  0.5039320000000  0.6104240000000  0.5433820000000 1.0
C      1  0.5718790000000  0.4966960000000  0.5776060000000 1.0
C      1  0.5113760000000  0.5047950000000  0.5670860000000 1.0
C      1  0.4050530000000  0.4463880000000  0.4686390000000 1.0
C      1  0.4585110000000  0.5412760000000  0.5153540000000 1.0
C      1  0.5673410000000  0.4777810000000  0.4508480000000 1.0
C      1  0.5182890000000  0.4392420000000  0.5838510000000 1.0
C      1  0.4261040000000  0.4798560000000  0.5384430000000 1.0
C      1  0.6066670000000  0.4517360000000  0.5319000000000 1.0
C      1  0.5049880000000  0.3913710000000  0.5161230000000 1.0
C      1  0.5201650000000  0.4738850000000  0.4663820000000 1.0
C      1  0.4929220000000  0.4934410000000  0.5081280000000 1.0
C      1  0.5096350000000  0.3925720000000  0.4878770000000 1.0
C      1  0.4536000000000  0.5058920000000  0.4794230000000 1.0
C      1  0.5074110000000  0.5712550000000  0.4126950000000 1.0
C      1  0.4806400000000  0.5793160000000  0.4087500000000 1.0
C      1  0.4740310000000  0.6049460000000  0.5451070000000 1.0
C      1  0.4490060000000  0.4233570000000  0.4473330000000 1.0
C      1  0.4817760000000  0.5665110000000  0.4803670000000 1.0
C      1  0.4326720000000  0.4450970000000  0.4583440000000 1.0
C      1  0.5135650000000  0.5093690000000  0.5070280000000 1.0
C      1  0.5078250000000  0.5255030000000  0.6165160000000 1.0
C      1  0.5288320000000  0.5658790000000  0.3951040000000 1.0
C      1  0.4748040000000  0.4624740000000  0.4789740000000 1.0
C      1  0.4656900000000  0.3803690000000  0.4639280000000 1.0
C      1  0.5508550000000  0.4396380000000  0.5110140000000 1.0
C      1  0.4906310000000  0.5464570000000  0.5572360000000 1.0
C      1  0.4696010000000  0.4467970000000  0.5909690000000 1.0
C      1  0.5927890000000  0.4710320000000  0.4594550000000 1.0
C      1  0.4326430000000  0.3970350000000  0.5136210000000 1.0
C      1  0.5462820000000  0.5526430000000  0.5208980000000 1.0
C      1  0.5907380000000  0.4749560000000  0.5757120000000 1.0
C      1  0.4760360000000  0.4351030000000  0.5177130000000 1.0
C      1  0.5626800000000  0.6269070000000  0.5246470000000 1.0
C      1  0.5461640000000  0.6118640000000  0.5079960000000 1.0
C      1  0.5429060000000  0.4309160000000  0.5721660000000 1.0
C      1  0.4982290000000  0.6092520000000  0.4929710000000 1.0
C      1  0.5008960000000  0.4243000000000  0.4295710000000 1.0
C      1  0.5607750000000  0.5976850000000  0.4861630000000 1.0
C      1  0.5522950000000  0.4357480000000  0.4423960000000 1.0
C      1  0.4784220000000  0.5650400000000  0.5748480000000 1.0
C      1  0.4620350000000  0.5009480000000  0.6030680000000 1.0
C      1  0.5652470000000  0.5017870000000  0.5502800000000 1.0
C      1  0.4213350000000  0.4319080000000  0.5489260000000 1.0
C      1  0.4177720000000  0.5691700000000  0.4844460000000 1.0
C      1  0.5892710000000  0.4535570000000  0.5561330000000 1.0
C      1  0.4452760000000  0.3995290000000  0.4636410000000 1.0
C      1  0.5027900000000  0.4439050000000  0.5085720000000 1.0
C      1  0.4415770000000  0.5788860000000  0.4405170000000 1.0
C      1  0.4598030000000  0.5823070000000  0.5592880000000 1.0
C      1  0.4171300000000  0.4101460000000  0.5335800000000 1.0
C      1  0.3944890000000  0.4711750000000  0.4827980000000 1.0
C      1  0.5409410000000  0.5178540000000  0.4591280000000 1.0
C      1  0.4889390000000  0.4661020000000  0.5481520000000 1.0
C      1  0.4695120000000  0.4619570000000  0.4268240000000 1.0
C      1  0.5099610000000  0.5345670000000  0.4970030000000 1.0
C      1  0.5674920000000  0.4355670000000  0.5617620000000 1.0
C      1  0.4609510000000  0.6180170000000  0.5234210000000 1.0
C      1  0.4023480000000  0.4190390000000  0.4796260000000 1.0
C      1  0.4742080000000  0.4885970000000  0.4889740000000 1.0
C      1  0.5463640000000  0.5437720000000  0.4721210000000 1.0
C      1  0.5195720000000  0.5546380000000  0.5139810000000 1.0
C      1  0.5127330000000  0.5620190000000  0.4384730000000 1.0
C      1  0.5275690000000  0.4881020000000  0.5835050000000 1.0
C      1  0.4464070000000  0.4720730000000  0.4122120000000 1.0
C      1  0.4397690000000  0.5420480000000  0.5827110000000 1.0
C      1  0.4664460000000  0.5075540000000  0.5459480000000 1.0
C      1  0.5005630000000  0.5378350000000  0.4476780000000 1.0
C      1  0.5461930000000  0.4894010000000  0.4654780000000 1.0
C      1  0.4930210000000  0.5411580000000  0.4747860000000 1.0
C      1  0.5259450000000  0.5717660000000  0.4626370000000 1.0
C      1  0.3988800000000  0.4841530000000  0.5305370000000 1.0
C      1  0.5350590000000  0.5201970000000  0.6137290000000 1.0
C      1  0.4780590000000  0.4854040000000  0.4411330000000 1.0
C      1  0.6019470000000  0.5471520000000  0.5285280000000 1.0
C      1  0.6196810000000  0.4906310000000  0.4917000000000 1.0
C      1  0.4028920000000  0.4912500000000  0.3777420000000 1.0
C      1  0.4086300000000  0.5039140000000  0.4264110000000 1.0
C      1  0.5499030000000  0.4231720000000  0.4882180000000 1.0
C      1  0.5169490000000  0.6131650000000  0.5152560000000 1.0
C      1  0.4866260000000  0.4071090000000  0.5606700000000 1.0
C      1  0.4727970000000  0.5344290000000  0.5392510000000 1.0
C      1  0.6238150000000  0.5177490000000  0.4977700000000 1.0
C      1  0.4350440000000  0.4940920000000  0.4286020000000 1.0
C      1  0.4492410000000  0.6075210000000  0.4782040000000 1.0
C      1  0.4528090000000  0.5805790000000  0.4144390000000 1.0
C      1  0.4736380000000  0.4344510000000  0.4354420000000 1.0
C      1  0.6152820000000  0.4866270000000  0.4638090000000 1.0
C      1  0.4877670000000  0.4926220000000  0.5563470000000 1.0
C      1  0.4577170000000  0.3878870000000  0.5238630000000 1.0
C      1  0.5848120000000  0.5455290000000  0.4335270000000 1.0
C      1  0.5595760000000  0.4797730000000  0.4067100000000 1.0
C      1  0.5846610000000  0.5524760000000  0.5499580000000 1.0
C      1  0.4225510000000  0.4742680000000  0.3706430000000 1.0
C      1  0.5693050000000  0.4320180000000  0.4684360000000 1.0
C      1  0.5690450000000  0.5343200000000  0.4119540000000 1.0
C      1  0.4344730000000  0.5625420000000  0.5579540000000 1.0
C      1  0.5198790000000  0.6016900000000  0.5654280000000 1.0
C      1  0.5580900000000  0.4613250000000  0.4286340000000 1.0
C      1  0.4654320000000  0.4507630000000  0.5403410000000 1.0
C      1  0.4144130000000  0.5537260000000  0.5366580000000 1.0
C      1  0.6235650000000  0.5288770000000  0.5241440000000 1.0
C      1  0.5025730000000  0.5715000000000  0.5251450000000 1.0
C      1  0.5031670000000  0.4555360000000  0.4821010000000 1.0
C      1  0.4663560000000  0.5493940000000  0.5959580000000 1.0
C      1  0.4625050000000  0.5642760000000  0.5003720000000 1.0
C      1  0.4538780000000  0.5011200000000  0.4501880000000 1.0
C      1  0.5910120000000  0.4494900000000  0.4792020000000 1.0
C      1  0.4717090000000  0.4730980000000  0.6052530000000 1.0
C      1  0.5185290000000  0.4649850000000  0.5969210000000 1.0
C      1  0.5565370000000  0.5528390000000  0.5473600000000 1.0
C      1  0.5035100000000  0.5859460000000  0.4772230000000 1.0
C      1  0.4343030000000  0.5857090000000  0.4671920000000 1.0
C      1  0.6057060000000  0.5431040000000  0.4803710000000 1.0
C      1  0.5161900000000  0.5154140000000  0.4439570000000 1.0
C      1  0.5518780000000  0.5520090000000  0.3976360000000 1.0
C      1  0.5365060000000  0.5530150000000  0.5672990000000 1.0
C      1  0.5497500000000  0.5023640000000  0.5956060000000 1.0
C      1  0.4490270000000  0.4528100000000  0.4802070000000 1.0
C      1  0.4798070000000  0.5256550000000  0.6083680000000 1.0
C      1  0.4835990000000  0.3934320000000  0.5351810000000 1.0
C      1  0.5774120000000  0.5828920000000  0.4689960000000 1.0
C      1  0.5046710000000  0.4897890000000  0.4470290000000 1.0
C      1  0.5550130000000  0.4650470000000  0.5190140000000 1.0
C      1  0.4646700000000  0.4466760000000  0.3754530000000 1.0
C      1  0.5666060000000  0.5062790000000  0.4055870000000 1.0
END
