TITL C-627107-135-592 1316.83362037492 125000 -413.983765453281 0 0 69 (C1) n - 1
REM
REM in /home/nfs/bkarasulu/CARBON/AIRSS/Generating-Clusters/LCBOP/Only-C1/SD-CG/FIRE-CG
REM
REM
REM
REM
REM
REM ./C.cell (11c1c37f851c82e70ff6c80c92926a4b)
REM AIRSS Version 0.9.1 bugfix July 2018 build 013d7b7c2542+ Fri, 06 Jul 2018 19:26:36 +0100
REM compiler GCC version 9.2.1 20190827 (Red Hat 9.2.1-1)
REM options -cpp -mtune=generic -march=x86-64 -g -O0 -fpre-include=/usr/include/finclude/math-vector-fortran.h
REM seed 898682122 834826792 1541877851 92664281 -1458152017 -1540178713 -1637627321 -1693606967 961314316 -967330443 912996864 -202206403 -1742688776 1467166955 -136946141 -1379122855 -1234175266 1246798887 1648893168 2041474930 -1996931308 936234520 1701378584 1910203546 -1928030292 -1152647784 1562148942 1988486065 2031457321 566608080 -1581009977 85883092 -1608804760
REM
CELL 1.54180   50.00000   50.00000   50.00000   90.00000   90.00000   90.00000
LATT -1
SFAC C  
C      1  0.4852650000000  0.4454150000000  0.5335480000000 1.0
C      1  0.4801330000000  0.5168490000000  0.5142960000000 1.0
C      1  0.4467310000000  0.5878210000000  0.4852080000000 1.0
C      1  0.5317290000000  0.4349060000000  0.5203990000000 1.0
C      1  0.4471800000000  0.5387180000000  0.4087240000000 1.0
C      1  0.5264420000000  0.5349820000000  0.4883650000000 1.0
C      1  0.5797320000000  0.4544500000000  0.5034440000000 1.0
C      1  0.4404560000000  0.4720370000000  0.5652050000000 1.0
C      1  0.5266140000000  0.5492430000000  0.4644710000000 1.0
C      1  0.6037080000000  0.5246780000000  0.5209490000000 1.0
C      1  0.4294100000000  0.5745520000000  0.5006380000000 1.0
C      1  0.4375270000000  0.5085130000000  0.4228630000000 1.0
C      1  0.4949010000000  0.4943610000000  0.5245260000000 1.0
C      1  0.4960170000000  0.4847080000000  0.4361000000000 1.0
C      1  0.4941090000000  0.4406990000000  0.4841620000000 1.0
C      1  0.5387030000000  0.5397150000000  0.5343310000000 1.0
C      1  0.5179740000000  0.4852690000000  0.4200240000000 1.0
C      1  0.5543660000000  0.4554790000000  0.5823630000000 1.0
C      1  0.5844080000000  0.4797400000000  0.5155800000000 1.0
C      1  0.4626250000000  0.5883750000000  0.4636470000000 1.0
C      1  0.4338870000000  0.5050760000000  0.4974110000000 1.0
C      1  0.4256010000000  0.4841500000000  0.4801560000000 1.0
C      1  0.4577320000000  0.4561720000000  0.4552510000000 1.0
C      1  0.4259750000000  0.4844850000000  0.4305540000000 1.0
C      1  0.5289070000000  0.4283600000000  0.5485100000000 1.0
C      1  0.4612640000000  0.5129220000000  0.4939160000000 1.0
C      1  0.4778930000000  0.4631260000000  0.4366000000000 1.0
C      1  0.5888900000000  0.5447830000000  0.5303560000000 1.0
C      1  0.4937700000000  0.5684750000000  0.4278620000000 1.0
C      1  0.5219240000000  0.4860880000000  0.6016530000000 1.0
C      1  0.5374300000000  0.5114440000000  0.5405140000000 1.0
C      1  0.4694190000000  0.5492480000000  0.5661960000000 1.0
C      1  0.5161110000000  0.5622930000000  0.4436720000000 1.0
C      1  0.5057110000000  0.4417160000000  0.5097060000000 1.0
C      1  0.4173950000000  0.5251580000000  0.5081140000000 1.0
C      1  0.4905290000000  0.5588880000000  0.4010600000000 1.0
C      1  0.4663110000000  0.4409610000000  0.4774730000000 1.0
C      1  0.4823890000000  0.4746080000000  0.5406470000000 1.0
C      1  0.5008170000000  0.4303730000000  0.5549180000000 1.0
C      1  0.4960620000000  0.4923870000000  0.5999970000000 1.0
C      1  0.5999150000000  0.4211210000000  0.4732960000000 1.0
C      1  0.5483270000000  0.4338300000000  0.5677570000000 1.0
C      1  0.4788350000000  0.5566290000000  0.5422330000000 1.0
C      1  0.4659340000000  0.4818920000000  0.5629500000000 1.0
C      1  0.4071490000000  0.4720170000000  0.4151250000000 1.0
C      1  0.4677120000000  0.5176460000000  0.4667840000000 1.0
C      1  0.5231300000000  0.4971690000000  0.5197940000000 1.0
C      1  0.4679180000000  0.5271660000000  0.5811460000000 1.0
C      1  0.6219620000000  0.4637800000000  0.4821490000000 1.0
C      1  0.4912350000000  0.5428060000000  0.5212440000000 1.0
C      1  0.4342490000000  0.4727260000000  0.4555490000000 1.0
C      1  0.6050950000000  0.4987170000000  0.5110120000000 1.0
C      1  0.4688450000000  0.5449480000000  0.3918020000000 1.0
C      1  0.5300770000000  0.5066880000000  0.4931500000000 1.0
C      1  0.4755670000000  0.5002110000000  0.5826150000000 1.0
C      1  0.4686580000000  0.5725750000000  0.4413240000000 1.0
C      1  0.6247570000000  0.4883280000000  0.4934500000000 1.0
C      1  0.5437210000000  0.4813470000000  0.5846360000000 1.0
C      1  0.5473500000000  0.4994800000000  0.5635360000000 1.0
C      1  0.4502130000000  0.4326540000000  0.4992460000000 1.0
C      1  0.5561410000000  0.4403690000000  0.5083010000000 1.0
C      1  0.4477670000000  0.5290020000000  0.4510740000000 1.0
C      1  0.4893820000000  0.5056690000000  0.4536260000000 1.0
C      1  0.6005370000000  0.4453920000000  0.4857180000000 1.0
C      1  0.4592520000000  0.4335250000000  0.5249090000000 1.0
C      1  0.4499120000000  0.5524640000000  0.4351080000000 1.0
C      1  0.5189700000000  0.5466210000000  0.5140900000000 1.0
C      1  0.4175570000000  0.5519830000000  0.5086880000000 1.0
C      1  0.5637900000000  0.5520190000000  0.5362800000000 1.0
END
