TITL C-627111-6168-1457 -1.05187682158145e-06 125000 -327.329771270139 0 0 55 (C1) n - 1
REM
REM in /home/nfs/bkarasulu/CARBON/AIRSS/Generating-Clusters/LCBOP/Only-C1/SD-CG/FIRE-CG
REM
REM
REM
REM
REM
REM ./C.cell (11c1c37f851c82e70ff6c80c92926a4b)
REM AIRSS Version 0.9.1 bugfix July 2018 build 013d7b7c2542+ Fri, 06 Jul 2018 19:26:36 +0100
REM compiler GCC version 9.2.1 20190827 (Red Hat 9.2.1-1)
REM options -cpp -mtune=generic -march=x86-64 -g -O0 -fpre-include=/usr/include/finclude/math-vector-fortran.h
REM seed 1381347430 -1046017790 591270362 406663712 1987637688 -1865087231 -725772248 -915934947 -645788286 -1549682849 -1613991395 -1655140086 -853056027 1267891166 -574500964 1996525034 1969715235 -778847887 -985859361 -207746032 1328084931 -1193156212 557998015 1720585769 589799883 -1756578197 -318024900 -1544696845 1229622683 -79643460 776879756 -777696457 -891184857
REM
CELL 1.54180   50.00000   50.00000   50.00000   90.00000   90.00000   90.00000
LATT -1
SFAC C  
C      1  0.4540160000000  0.5644340000000  0.4843010000000 1.0
C      1  0.4814370000000  0.4433510000000  0.4314300000000 1.0
C      1  0.4803800000000  0.4487680000000  0.4857620000000 1.0
C      1  0.5087540000000  0.5027530000000  0.5093230000000 1.0
C      1  0.5017060000000  0.5295090000000  0.5193530000000 1.0
C      1  0.5378990000000  0.4834580000000  0.4342120000000 1.0
C      1  0.5612280000000  0.4896090000000  0.4783230000000 1.0
C      1  0.5230130000000  0.4347680000000  0.5104700000000 1.0
C      1  0.5020600000000  0.4961610000000  0.4818220000000 1.0
C      1  0.4416160000000  0.4653280000000  0.5135510000000 1.0
C      1  0.5493250000000  0.5450030000000  0.5199960000000 1.0
C      1  0.5577400000000  0.4939760000000  0.4516770000000 1.0
C      1  0.4460040000000  0.5230880000000  0.5566230000000 1.0
C      1  0.5007030000000  0.4293070000000  0.5514650000000 1.0
C      1  0.4548750000000  0.5207890000000  0.4610030000000 1.0
C      1  0.5564290000000  0.5494720000000  0.4915320000000 1.0
C      1  0.4900530000000  0.4809900000000  0.5781970000000 1.0
C      1  0.5410720000000  0.4427140000000  0.4640320000000 1.0
C      1  0.5207670000000  0.5508900000000  0.5198680000000 1.0
C      1  0.5003100000000  0.4587750000000  0.4457420000000 1.0
C      1  0.4299970000000  0.5227910000000  0.5066580000000 1.0
C      1  0.5396440000000  0.4908440000000  0.5456140000000 1.0
C      1  0.5411960000000  0.5155900000000  0.5593230000000 1.0
C      1  0.4901010000000  0.5038550000000  0.4237320000000 1.0
C      1  0.4317740000000  0.5233110000000  0.5337140000000 1.0
C      1  0.5319070000000  0.4882400000000  0.5187700000000 1.0
C      1  0.5573260000000  0.5344200000000  0.5448520000000 1.0
C      1  0.4758950000000  0.5402900000000  0.5205140000000 1.0
C      1  0.4675030000000  0.5073820000000  0.4387360000000 1.0
C      1  0.5404320000000  0.4478850000000  0.4922550000000 1.0
C      1  0.5090810000000  0.5497380000000  0.5813280000000 1.0
C      1  0.5122730000000  0.5166360000000  0.4649930000000 1.0
C      1  0.4924400000000  0.5077220000000  0.5736390000000 1.0
C      1  0.4890400000000  0.5555150000000  0.4524120000000 1.0
C      1  0.4800510000000  0.4386480000000  0.5335690000000 1.0
C      1  0.5251570000000  0.4268260000000  0.5383440000000 1.0
C      1  0.5319990000000  0.5594520000000  0.4770470000000 1.0
C      1  0.4549430000000  0.4511280000000  0.5322930000000 1.0
C      1  0.4618040000000  0.4301890000000  0.4448450000000 1.0
C      1  0.4814630000000  0.5516820000000  0.5796930000000 1.0
C      1  0.5168830000000  0.4984820000000  0.4210960000000 1.0
C      1  0.4612180000000  0.4328760000000  0.4718870000000 1.0
C      1  0.5478540000000  0.4750670000000  0.4989150000000 1.0
C      1  0.4632010000000  0.5487650000000  0.4627750000000 1.0
C      1  0.5283980000000  0.4577270000000  0.4431740000000 1.0
C      1  0.4405170000000  0.4809640000000  0.4914940000000 1.0
C      1  0.4940750000000  0.4391600000000  0.5078510000000 1.0
C      1  0.4611580000000  0.5601640000000  0.5099130000000 1.0
C      1  0.5181450000000  0.5230660000000  0.5743020000000 1.0
C      1  0.4695480000000  0.5264100000000  0.5715970000000 1.0
C      1  0.5812550000000  0.5471000000000  0.4806980000000 1.0
C      1  0.5171720000000  0.5713040000000  0.4995330000000 1.0
C      1  0.4407780000000  0.5085050000000  0.4840290000000 1.0
C      1  0.5141330000000  0.5444530000000  0.4603410000000 1.0
C      1  0.4922510000000  0.4706720000000  0.4713820000000 1.0
END
