TITL C-627107-135-403 2.86047574971141e-05 125000 -259.860334986544 0 0 44 (C1) n - 1
REM
REM in /home/nfs/bkarasulu/CARBON/AIRSS/Generating-Clusters/LCBOP/Only-C1/SD-CG/FIRE-CG
REM
REM
REM
REM
REM
REM ./C.cell (11c1c37f851c82e70ff6c80c92926a4b)
REM AIRSS Version 0.9.1 bugfix July 2018 build 013d7b7c2542+ Fri, 06 Jul 2018 19:26:36 +0100
REM compiler GCC version 9.2.1 20190827 (Red Hat 9.2.1-1)
REM options -cpp -mtune=generic -march=x86-64 -g -O0 -fpre-include=/usr/include/finclude/math-vector-fortran.h
REM seed -84811316 967425663 -779179067 -799824525 -1397548212 -1125208257 -1705176271 -1913113068 -167032957 -1564105537 -1594349095 795831109 -602033245 1641899532 778098389 -690043774 391388670 -946171662 2222423 476689006 508709049 -924297464 1764529131 -522228011 1344945189 -565551746 868990404 1147889548 452330566 2016835594 -522530801 -1462350628 -1242141379
REM
CELL 1.54180   50.00000   50.00000   50.00000   90.00000   90.00000   90.00000
LATT -1
SFAC C  
C      1  0.4686270000000  0.5436400000000  0.5005420000000 1.0
C      1  0.4860740000000  0.5438980000000  0.4302180000000 1.0
C      1  0.4836750000000  0.5561070000000  0.4792290000000 1.0
C      1  0.4577660000000  0.4907930000000  0.4528650000000 1.0
C      1  0.4926040000000  0.4569640000000  0.5000490000000 1.0
C      1  0.4994790000000  0.5547240000000  0.3805860000000 1.0
C      1  0.4797390000000  0.4786460000000  0.5936490000000 1.0
C      1  0.5618130000000  0.4446210000000  0.5398110000000 1.0
C      1  0.5286890000000  0.4868510000000  0.3924130000000 1.0
C      1  0.5479380000000  0.5960460000000  0.5427200000000 1.0
C      1  0.4691420000000  0.4407580000000  0.4977610000000 1.0
C      1  0.5530740000000  0.4669120000000  0.5518960000000 1.0
C      1  0.4637120000000  0.4240830000000  0.5469570000000 1.0
C      1  0.5259390000000  0.4732920000000  0.4383900000000 1.0
C      1  0.5111660000000  0.4881980000000  0.5328610000000 1.0
C      1  0.5555230000000  0.5383710000000  0.4361480000000 1.0
C      1  0.4913170000000  0.5256400000000  0.5824940000000 1.0
C      1  0.4511790000000  0.4651700000000  0.4569050000000 1.0
C      1  0.4530540000000  0.5037390000000  0.5634200000000 1.0
C      1  0.4667190000000  0.5137230000000  0.4658880000000 1.0
C      1  0.4774550000000  0.4525920000000  0.5881050000000 1.0
C      1  0.5538440000000  0.4313620000000  0.5179370000000 1.0
C      1  0.4505490000000  0.4979550000000  0.5374840000000 1.0
C      1  0.4633680000000  0.5160430000000  0.4947790000000 1.0
C      1  0.5204140000000  0.4592540000000  0.4601460000000 1.0
C      1  0.5626140000000  0.5615140000000  0.4458300000000 1.0
C      1  0.5154920000000  0.5621390000000  0.5529910000000 1.0
C      1  0.4617390000000  0.4261470000000  0.5204280000000 1.0
C      1  0.4706040000000  0.4333280000000  0.5709860000000 1.0
C      1  0.5357650000000  0.4338780000000  0.4984680000000 1.0
C      1  0.4904990000000  0.4808590000000  0.5154080000000 1.0
C      1  0.5187210000000  0.5804090000000  0.5079640000000 1.0
C      1  0.5161770000000  0.4495770000000  0.4859950000000 1.0
C      1  0.5039580000000  0.5734730000000  0.4868570000000 1.0
C      1  0.4538030000000  0.4452520000000  0.4746780000000 1.0
C      1  0.5328440000000  0.4838980000000  0.5477180000000 1.0
C      1  0.4666620000000  0.4966200000000  0.5145950000000 1.0
C      1  0.5275550000000  0.5796770000000  0.5346200000000 1.0
C      1  0.4795980000000  0.5381330000000  0.4565080000000 1.0
C      1  0.5048700000000  0.5453040000000  0.5706600000000 1.0
C      1  0.5464980000000  0.5152960000000  0.4267600000000 1.0
C      1  0.5336740000000  0.4917340000000  0.4188520000000 1.0
C      1  0.4921420000000  0.5496960000000  0.4050900000000 1.0
C      1  0.4739250000000  0.5036780000000  0.5823380000000 1.0
END
