TITL C-627106-156-402 0.000771803386307843 125000 -203.629639399615 0 0 34 (C1) n - 1
REM
REM in /home/nfs/bkarasulu/CARBON/AIRSS/Generating-Clusters/LCBOP/Only-C1/SD-CG/FIRE-CG
REM
REM
REM
REM
REM
REM ./C.cell (11c1c37f851c82e70ff6c80c92926a4b)
REM AIRSS Version 0.9.1 bugfix July 2018 build 013d7b7c2542+ Fri, 06 Jul 2018 19:26:36 +0100
REM compiler GCC version 9.2.1 20190827 (Red Hat 9.2.1-1)
REM options -cpp -mtune=generic -march=x86-64 -g -O0 -fpre-include=/usr/include/finclude/math-vector-fortran.h
REM seed -647865999 -313812751 1045210967 -323857303 -641803550 -1593438155 -164539786 1958482209 -1169145018 -1659212667 1063626930 1837021885 -1250492702 -467095823 -1444028844 1288905941 454496211 -50153236 -1677553896 -1285160097 -472191971 605075916 1826121317 -847619599 2000200722 471258585 1671051266 379650084 -59213260 1100417455 177507283 -1414039761 9116318
REM
CELL 1.54180   50.00000   50.00000   50.00000   90.00000   90.00000   90.00000
LATT -1
SFAC C  
C      1  0.5103120000000  0.5046310000000  0.5297810000000 1.0
C      1  0.4588580000000  0.5601680000000  0.4808170000000 1.0
C      1  0.4617990000000  0.5549840000000  0.4529290000000 1.0
C      1  0.5210910000000  0.5407520000000  0.4765300000000 1.0
C      1  0.5204430000000  0.4900480000000  0.5512390000000 1.0
C      1  0.5468960000000  0.4274100000000  0.5915320000000 1.0
C      1  0.5180250000000  0.5497070000000  0.5031830000000 1.0
C      1  0.5575830000000  0.4224950000000  0.6168130000000 1.0
C      1  0.5302420000000  0.4736820000000  0.5696490000000 1.0
C      1  0.4972750000000  0.5007160000000  0.4660420000000 1.0
C      1  0.5675710000000  0.4179130000000  0.6404450000000 1.0
C      1  0.5434440000000  0.4066360000000  0.5731140000000 1.0
C      1  0.5011800000000  0.5721430000000  0.5059990000000 1.0
C      1  0.4339360000000  0.5576310000000  0.4098180000000 1.0
C      1  0.5201680000000  0.5302350000000  0.5232990000000 1.0
C      1  0.4956080000000  0.5474260000000  0.4156590000000 1.0
C      1  0.4429700000000  0.5428140000000  0.4962150000000 1.0
C      1  0.4513990000000  0.5511410000000  0.3903280000000 1.0
C      1  0.4995310000000  0.4555700000000  0.4849620000000 1.0
C      1  0.4861140000000  0.5431860000000  0.4424370000000 1.0
C      1  0.5220120000000  0.5531350000000  0.4111300000000 1.0
C      1  0.4775910000000  0.5463250000000  0.3940250000000 1.0
C      1  0.5025460000000  0.5275620000000  0.4597860000000 1.0
C      1  0.4397570000000  0.5594870000000  0.4359820000000 1.0
C      1  0.5064200000000  0.4305340000000  0.4903210000000 1.0
C      1  0.4628130000000  0.5021090000000  0.5182790000000 1.0
C      1  0.4450570000000  0.5206840000000  0.5110160000000 1.0
C      1  0.4893380000000  0.4943240000000  0.5133300000000 1.0
C      1  0.5393390000000  0.4532630000000  0.5839190000000 1.0
C      1  0.5361630000000  0.3963380000000  0.5497600000000 1.0
C      1  0.5262770000000  0.3975430000000  0.5251500000000 1.0
C      1  0.4771930000000  0.5765690000000  0.4945850000000 1.0
C      1  0.5157310000000  0.4098900000000  0.5041510000000 1.0
C      1  0.4953170000000  0.4829490000000  0.4877740000000 1.0
END
