TITL C-627109-622-1876 0.00500213750966903 125000 -966.933190423168 0 0 158 (C1) n - 1
REM
REM in /home/nfs/bkarasulu/CARBON/AIRSS/Generating-Clusters/LCBOP/Only-C1/SD-CG/FIRE-CG
REM
REM
REM
REM
REM
REM ./C.cell (11c1c37f851c82e70ff6c80c92926a4b)
REM AIRSS Version 0.9.1 bugfix July 2018 build 013d7b7c2542+ Fri, 06 Jul 2018 19:26:36 +0100
REM compiler GCC version 9.2.1 20190827 (Red Hat 9.2.1-1)
REM options -cpp -mtune=generic -march=x86-64 -g -O0 -fpre-include=/usr/include/finclude/math-vector-fortran.h
REM seed 723214921 1531193918 -1653469201 -929507956 -707767989 -511308303 -316252568 380922397 1977362364 -849253309 1821336591 -1139189862 -959599776 -2002692960 2102126963 -970221814 207124176 571332453 1487045566 1249053756 2013640794 749257233 -1916082652 1782960023 -1108842464 -1851570001 -841616880 349043032 652645813 1949240583 51891447 1319420557 -621407764
REM
CELL 1.54180   50.00000   50.00000   50.00000   90.00000   90.00000   90.00000
LATT -1
SFAC C  
C      1  0.5512450000000  0.5181340000000  0.4626480000000 1.0
C      1  0.5633470000000  0.4519450000000  0.4513290000000 1.0
C      1  0.5673970000000  0.5816360000000  0.4649730000000 1.0
C      1  0.4785640000000  0.5300310000000  0.4293610000000 1.0
C      1  0.4082910000000  0.4413560000000  0.4892390000000 1.0
C      1  0.4780270000000  0.4355390000000  0.6581830000000 1.0
C      1  0.4058020000000  0.5431620000000  0.4445990000000 1.0
C      1  0.5165300000000  0.4530940000000  0.6270240000000 1.0
C      1  0.4357220000000  0.4739040000000  0.5554980000000 1.0
C      1  0.5440560000000  0.5675270000000  0.4720140000000 1.0
C      1  0.4942520000000  0.3872090000000  0.4573120000000 1.0
C      1  0.4646530000000  0.5787370000000  0.5328120000000 1.0
C      1  0.5434090000000  0.5762180000000  0.5932340000000 1.0
C      1  0.5292710000000  0.4594920000000  0.4173780000000 1.0
C      1  0.4781990000000  0.4313060000000  0.4415470000000 1.0
C      1  0.5299400000000  0.5219170000000  0.5112110000000 1.0
C      1  0.4891130000000  0.4143910000000  0.4623670000000 1.0
C      1  0.4632730000000  0.3946690000000  0.5424190000000 1.0
C      1  0.4411750000000  0.5291420000000  0.3992580000000 1.0
C      1  0.3911700000000  0.5541150000000  0.5658040000000 1.0
C      1  0.4647140000000  0.5851760000000  0.4449650000000 1.0
C      1  0.4935100000000  0.4969020000000  0.4649350000000 1.0
C      1  0.5052740000000  0.5790920000000  0.4172350000000 1.0
C      1  0.4196260000000  0.4119170000000  0.5367020000000 1.0
C      1  0.5756480000000  0.5849030000000  0.5151960000000 1.0
C      1  0.5186650000000  0.5097250000000  0.5602270000000 1.0
C      1  0.5243530000000  0.5109060000000  0.6201340000000 1.0
C      1  0.4758640000000  0.5139200000000  0.5435110000000 1.0
C      1  0.4061380000000  0.4369780000000  0.5381090000000 1.0
C      1  0.5878890000000  0.5074040000000  0.5472590000000 1.0
C      1  0.4467350000000  0.5213490000000  0.5962060000000 1.0
C      1  0.5231380000000  0.4320350000000  0.5688440000000 1.0
C      1  0.4368380000000  0.5003500000000  0.5126590000000 1.0
C      1  0.4814770000000  0.4432810000000  0.5007850000000 1.0
C      1  0.5050350000000  0.5550420000000  0.4905010000000 1.0
C      1  0.5351350000000  0.5419960000000  0.4589010000000 1.0
C      1  0.6020710000000  0.5454830000000  0.5085490000000 1.0
C      1  0.4617050000000  0.5335790000000  0.4763170000000 1.0
C      1  0.4165530000000  0.4645960000000  0.4735720000000 1.0
C      1  0.5272920000000  0.5733020000000  0.4952430000000 1.0
C      1  0.4155400000000  0.4545350000000  0.5579150000000 1.0
C      1  0.3831430000000  0.5425750000000  0.4294250000000 1.0
C      1  0.4062510000000  0.5115680000000  0.5477390000000 1.0
C      1  0.6018950000000  0.4676530000000  0.4775090000000 1.0
C      1  0.5071290000000  0.5422620000000  0.4653370000000 1.0
C      1  0.5965340000000  0.4920380000000  0.5262010000000 1.0
C      1  0.4255820000000  0.5812320000000  0.4715560000000 1.0
C      1  0.4626240000000  0.5530260000000  0.5214080000000 1.0
C      1  0.5412400000000  0.4464810000000  0.4919520000000 1.0
C      1  0.5298240000000  0.5937950000000  0.5743620000000 1.0
C      1  0.6118030000000  0.4740810000000  0.4103520000000 1.0
C      1  0.5232520000000  0.5370410000000  0.6097140000000 1.0
C      1  0.4294360000000  0.4971490000000  0.5399620000000 1.0
C      1  0.4362240000000  0.5411240000000  0.5788790000000 1.0
C      1  0.5015130000000  0.4873080000000  0.4915540000000 1.0
C      1  0.5742590000000  0.5786860000000  0.4377470000000 1.0
C      1  0.4332850000000  0.4040440000000  0.6098870000000 1.0
C      1  0.4357110000000  0.4028730000000  0.5839670000000 1.0
C      1  0.4552720000000  0.5426380000000  0.4192830000000 1.0
C      1  0.4184770000000  0.4152610000000  0.4881950000000 1.0
C      1  0.5041750000000  0.4899620000000  0.5715100000000 1.0
C      1  0.5493380000000  0.6066930000000  0.5567030000000 1.0
C      1  0.3960220000000  0.4498770000000  0.5146280000000 1.0
C      1  0.5058270000000  0.5956480000000  0.5326080000000 1.0
C      1  0.4392580000000  0.4034490000000  0.5565170000000 1.0
C      1  0.4893190000000  0.4012820000000  0.5494090000000 1.0
C      1  0.5671030000000  0.5281420000000  0.5903870000000 1.0
C      1  0.5939550000000  0.4940840000000  0.4016680000000 1.0
C      1  0.5346200000000  0.5560330000000  0.5456160000000 1.0
C      1  0.5064010000000  0.5444060000000  0.5877210000000 1.0
C      1  0.4113180000000  0.5353160000000  0.5641080000000 1.0
C      1  0.4804620000000  0.5971640000000  0.5174180000000 1.0
C      1  0.5751650000000  0.5544020000000  0.5204020000000 1.0
C      1  0.5056770000000  0.5367680000000  0.5119980000000 1.0
C      1  0.4109490000000  0.5687300000000  0.4927880000000 1.0
C      1  0.5459880000000  0.4632750000000  0.4695460000000 1.0
C      1  0.5011260000000  0.5920630000000  0.5624750000000 1.0
C      1  0.5681620000000  0.4402470000000  0.5835770000000 1.0
C      1  0.4828910000000  0.5346110000000  0.5279010000000 1.0
C      1  0.4198540000000  0.5425840000000  0.4999700000000 1.0
C      1  0.4974670000000  0.4440410000000  0.6430380000000 1.0
C      1  0.5565980000000  0.5331850000000  0.5053100000000 1.0
C      1  0.5457580000000  0.5182000000000  0.4052110000000 1.0
C      1  0.4902960000000  0.4784220000000  0.4430710000000 1.0
C      1  0.5137280000000  0.4149470000000  0.5477760000000 1.0
C      1  0.4902750000000  0.5940030000000  0.4357550000000 1.0
C      1  0.4539370000000  0.3895120000000  0.5154590000000 1.0
C      1  0.4488580000000  0.5448040000000  0.4988390000000 1.0
C      1  0.5703160000000  0.4357390000000  0.5281320000000 1.0
C      1  0.4688910000000  0.4584140000000  0.4469740000000 1.0
C      1  0.5239130000000  0.4239960000000  0.4982270000000 1.0
C      1  0.5015250000000  0.5297340000000  0.4130310000000 1.0
C      1  0.4720620000000  0.5798450000000  0.5617240000000 1.0
C      1  0.4731330000000  0.6047770000000  0.4906770000000 1.0
C      1  0.3888020000000  0.4784380000000  0.5133870000000 1.0
C      1  0.3833550000000  0.4984300000000  0.5344550000000 1.0
C      1  0.4382330000000  0.4802230000000  0.3821580000000 1.0
C      1  0.5426530000000  0.4908490000000  0.6111600000000 1.0
C      1  0.5033500000000  0.4116900000000  0.4026290000000 1.0
C      1  0.4808470000000  0.4247850000000  0.4134750000000 1.0
C      1  0.5646930000000  0.5647060000000  0.4166670000000 1.0
C      1  0.5301740000000  0.4115150000000  0.5242280000000 1.0
C      1  0.4008430000000  0.4869900000000  0.4876130000000 1.0
C      1  0.5720960000000  0.4168600000000  0.3937670000000 1.0
C      1  0.5338110000000  0.4636240000000  0.6075360000000 1.0
C      1  0.4162780000000  0.5132110000000  0.4900860000000 1.0
C      1  0.5714610000000  0.5235700000000  0.4816250000000 1.0
C      1  0.5986870000000  0.5304630000000  0.4855500000000 1.0
C      1  0.5802190000000  0.5923820000000  0.4878450000000 1.0
C      1  0.4470210000000  0.5665500000000  0.4318870000000 1.0
C      1  0.5426090000000  0.4911020000000  0.4638460000000 1.0
C      1  0.5409470000000  0.4780830000000  0.5245320000000 1.0
C      1  0.4567150000000  0.4836610000000  0.5042690000000 1.0
C      1  0.5254720000000  0.3940770000000  0.4023750000000 1.0
C      1  0.5548040000000  0.4557270000000  0.5156510000000 1.0
C      1  0.4923430000000  0.6205750000000  0.4765000000000 1.0
C      1  0.5504300000000  0.4010180000000  0.3913980000000 1.0
C      1  0.5190420000000  0.5066330000000  0.4112750000000 1.0
C      1  0.4530410000000  0.5646280000000  0.5767430000000 1.0
C      1  0.5772070000000  0.4388900000000  0.4101950000000 1.0
C      1  0.4141670000000  0.5208150000000  0.4599930000000 1.0
C      1  0.5009880000000  0.6150710000000  0.4513680000000 1.0
C      1  0.5633060000000  0.5498570000000  0.5473080000000 1.0
C      1  0.5227520000000  0.3720460000000  0.4197950000000 1.0
C      1  0.5085300000000  0.3701050000000  0.4425130000000 1.0
C      1  0.5444490000000  0.5475450000000  0.4071540000000 1.0
C      1  0.5666350000000  0.6021980000000  0.5362100000000 1.0
C      1  0.5995340000000  0.4526020000000  0.4243880000000 1.0
C      1  0.4283730000000  0.4016100000000  0.5104610000000 1.0
C      1  0.5413380000000  0.4459300000000  0.5860230000000 1.0
C      1  0.5917810000000  0.4905700000000  0.6103330000000 1.0
C      1  0.5582880000000  0.4112870000000  0.5299490000000 1.0
C      1  0.5177070000000  0.5383390000000  0.5618800000000 1.0
C      1  0.5110590000000  0.4808380000000  0.4219620000000 1.0
C      1  0.5920180000000  0.4564330000000  0.4529440000000 1.0
C      1  0.6015900000000  0.4792300000000  0.5024050000000 1.0
C      1  0.4839980000000  0.5250850000000  0.4585680000000 1.0
C      1  0.4357190000000  0.5062940000000  0.3867500000000 1.0
C      1  0.5262800000000  0.5769100000000  0.5242280000000 1.0
C      1  0.5698090000000  0.5051790000000  0.3998680000000 1.0
C      1  0.4222550000000  0.5663020000000  0.4463290000000 1.0
C      1  0.4809260000000  0.4709460000000  0.5023080000000 1.0
C      1  0.4606870000000  0.4690630000000  0.5670670000000 1.0
C      1  0.5746680000000  0.5285130000000  0.5624990000000 1.0
C      1  0.4786490000000  0.4844540000000  0.5820850000000 1.0
C      1  0.5489210000000  0.5489830000000  0.6015120000000 1.0
C      1  0.4976980000000  0.4248820000000  0.4874470000000 1.0
C      1  0.4618220000000  0.4357940000000  0.3959440000000 1.0
C      1  0.4474360000000  0.4554870000000  0.3853550000000 1.0
C      1  0.4657590000000  0.5027040000000  0.5994010000000 1.0
C      1  0.4535050000000  0.5926120000000  0.4722360000000 1.0
C      1  0.5163460000000  0.5545570000000  0.4094160000000 1.0
C      1  0.5679960000000  0.5023220000000  0.6037190000000 1.0
C      1  0.5241090000000  0.4944200000000  0.5089080000000 1.0
C      1  0.6386280000000  0.4751370000000  0.4057280000000 1.0
C      1  0.5536810000000  0.4479670000000  0.4247780000000 1.0
C      1  0.3575440000000  0.5043880000000  0.5415730000000 1.0
C      1  0.4414580000000  0.4636570000000  0.4575650000000 1.0
END
