TITL C-627109-622-653 0.366828288912776 125000 -165.101337892272 0 0 30 (C1) n - 1
REM
REM in /home/nfs/bkarasulu/CARBON/AIRSS/Generating-Clusters/LCBOP/Only-C1/SD-CG/FIRE-CG
REM
REM
REM
REM
REM
REM ./C.cell (11c1c37f851c82e70ff6c80c92926a4b)
REM AIRSS Version 0.9.1 bugfix July 2018 build 013d7b7c2542+ Fri, 06 Jul 2018 19:26:36 +0100
REM compiler GCC version 9.2.1 20190827 (Red Hat 9.2.1-1)
REM options -cpp -mtune=generic -march=x86-64 -g -O0 -fpre-include=/usr/include/finclude/math-vector-fortran.h
REM seed 1315552164 -1420878840 387774976 274849954 1237226895 -2137419859 -763728211 533242242 -1384911166 1410600886 1569350262 -1146250078 -727387863 -1660969923 1527759478 -1671886458 -566415954 1551284496 -313374838 1167570860 1821888658 348551701 -473313370 -292734088 457255101 1939636059 990498937 -1994418206 1601087048 1298491600 258482425 -429486358 1380765309
REM
CELL 1.54180   50.00000   50.00000   50.00000   90.00000   90.00000   90.00000
LATT -1
SFAC C  
C      1  0.5294850000000  0.6061130000000  0.5235610000000 1.0
C      1  0.5345790000000  0.5278540000000  0.5037460000000 1.0
C      1  0.4882140000000  0.4027350000000  0.4948510000000 1.0
C      1  0.5274080000000  0.6317010000000  0.5300870000000 1.0
C      1  0.3923230000000  0.4393380000000  0.4517300000000 1.0
C      1  0.5392960000000  0.6684480000000  0.5583650000000 1.0
C      1  0.5252120000000  0.6587420000000  0.5369840000000 1.0
C      1  0.4908200000000  0.4519490000000  0.5045220000000 1.0
C      1  0.5315610000000  0.5805150000000  0.5170330000000 1.0
C      1  0.5180520000000  0.4667880000000  0.5417740000000 1.0
C      1  0.5090040000000  0.6751930000000  0.5222730000000 1.0
C      1  0.5010950000000  0.4737480000000  0.5201170000000 1.0
C      1  0.4457580000000  0.4409480000000  0.4439440000000 1.0
C      1  0.4562600000000  0.4467740000000  0.4193630000000 1.0
C      1  0.4711620000000  0.4098380000000  0.4734020000000 1.0
C      1  0.5586420000000  0.5137820000000  0.5054380000000 1.0
C      1  0.4946800000000  0.3767100000000  0.4999380000000 1.0
C      1  0.4734370000000  0.4556810000000  0.4825860000000 1.0
C      1  0.5335210000000  0.5549170000000  0.5105200000000 1.0
C      1  0.5153700000000  0.4207270000000  0.5329220000000 1.0
C      1  0.4950140000000  0.5007110000000  0.5141600000000 1.0
C      1  0.4180590000000  0.4401840000000  0.4477150000000 1.0
C      1  0.5037260000000  0.5147950000000  0.4682220000000 1.0
C      1  0.5801400000000  0.4992000000000  0.5075150000000 1.0
C      1  0.4627540000000  0.4356810000000  0.4657880000000 1.0
C      1  0.4981580000000  0.4243300000000  0.5107140000000 1.0
C      1  0.4740890000000  0.5133440000000  0.5264550000000 1.0
C      1  0.5248880000000  0.4412690000000  0.5478190000000 1.0
C      1  0.5110240000000  0.5145100000000  0.4951690000000 1.0
C      1  0.4962670000000  0.5134740000000  0.4432870000000 1.0
END
