TITL C-627110-360-931 5.93750979251035e-07 125000 -387.131312971001 0 0 64 (C1) n - 1
REM
REM in /home/nfs/bkarasulu/CARBON/AIRSS/Generating-Clusters/LCBOP/Only-C1/SD-CG/FIRE-CG
REM
REM
REM
REM
REM
REM ./C.cell (11c1c37f851c82e70ff6c80c92926a4b)
REM AIRSS Version 0.9.1 bugfix July 2018 build 013d7b7c2542+ Fri, 06 Jul 2018 19:26:36 +0100
REM compiler GCC version 9.2.1 20190827 (Red Hat 9.2.1-1)
REM options -cpp -mtune=generic -march=x86-64 -g -O0 -fpre-include=/usr/include/finclude/math-vector-fortran.h
REM seed 212864193 -1203013813 -93152435 -1687052777 -157379564 566402307 1713390650 1907616505 2010616086 -735728685 1904717986 -321262483 -1191660564 1903121611 1697915921 1929918953 -540071273 -1524272122 -1323624669 1191413524 -871604428 293661400 -1048750225 1028361733 2070381811 2070263889 -840748243 863304324 852653124 -510817026 -931209058 1101994662 -908383899
REM
CELL 1.54180   50.00000   50.00000   50.00000   90.00000   90.00000   90.00000
LATT -1
SFAC C  
C      1  0.4963700000000  0.5194400000000  0.4628460000000 1.0
C      1  0.4873340000000  0.5322790000000  0.4195520000000 1.0
C      1  0.4601770000000  0.5616480000000  0.5004370000000 1.0
C      1  0.4994970000000  0.6010460000000  0.4845900000000 1.0
C      1  0.4476420000000  0.5327150000000  0.5647300000000 1.0
C      1  0.5544380000000  0.4924850000000  0.5593730000000 1.0
C      1  0.4802360000000  0.4996820000000  0.5315970000000 1.0
C      1  0.5298900000000  0.4344540000000  0.5194500000000 1.0
C      1  0.4666730000000  0.5299870000000  0.4632090000000 1.0
C      1  0.4232320000000  0.4272630000000  0.5315410000000 1.0
C      1  0.4782700000000  0.5163570000000  0.5076920000000 1.0
C      1  0.5029080000000  0.5841360000000  0.5075110000000 1.0
C      1  0.5480760000000  0.6004010000000  0.4814570000000 1.0
C      1  0.4602640000000  0.5341670000000  0.4918150000000 1.0
C      1  0.4660150000000  0.4444010000000  0.5732610000000 1.0
C      1  0.5348470000000  0.4595440000000  0.5117000000000 1.0
C      1  0.5872060000000  0.4838370000000  0.5178850000000 1.0
C      1  0.5024560000000  0.5188360000000  0.4916130000000 1.0
C      1  0.4731230000000  0.6008050000000  0.4742950000000 1.0
C      1  0.4314530000000  0.5482970000000  0.5803870000000 1.0
C      1  0.5245710000000  0.4694840000000  0.4182730000000 1.0
C      1  0.4812870000000  0.5687560000000  0.5187270000000 1.0
C      1  0.4542100000000  0.5827820000000  0.4822240000000 1.0
C      1  0.5369340000000  0.5309180000000  0.4360110000000 1.0
C      1  0.4123060000000  0.4964150000000  0.5546550000000 1.0
C      1  0.4580170000000  0.4894830000000  0.5455180000000 1.0
C      1  0.4677240000000  0.4044520000000  0.5242480000000 1.0
C      1  0.5398360000000  0.4166810000000  0.4606470000000 1.0
C      1  0.5070120000000  0.4724790000000  0.4738950000000 1.0
C      1  0.4077160000000  0.4468020000000  0.5412670000000 1.0
C      1  0.4907340000000  0.5059740000000  0.4083070000000 1.0
C      1  0.5044040000000  0.4945890000000  0.5464960000000 1.0
C      1  0.5472330000000  0.4627350000000  0.4341170000000 1.0
C      1  0.5758100000000  0.4869980000000  0.5417910000000 1.0
C      1  0.5332340000000  0.5221660000000  0.5263430000000 1.0
C      1  0.4444010000000  0.4179360000000  0.5156210000000 1.0
C      1  0.5179620000000  0.4116610000000  0.5078590000000 1.0
C      1  0.4925360000000  0.5515630000000  0.5396180000000 1.0
C      1  0.4739800000000  0.5416910000000  0.5583430000000 1.0
C      1  0.5238600000000  0.6098390000000  0.4732070000000 1.0
C      1  0.5625840000000  0.4848220000000  0.4446010000000 1.0
C      1  0.4025800000000  0.4719300000000  0.5490590000000 1.0
C      1  0.5886100000000  0.4816530000000  0.4913480000000 1.0
C      1  0.5002570000000  0.4909120000000  0.4533020000000 1.0
C      1  0.5483410000000  0.4367920000000  0.4451490000000 1.0
C      1  0.4382100000000  0.5075360000000  0.5548160000000 1.0
C      1  0.5027460000000  0.4859730000000  0.4249510000000 1.0
C      1  0.5093090000000  0.5351080000000  0.4397070000000 1.0
C      1  0.5311820000000  0.5036520000000  0.5480710000000 1.0
C      1  0.4463810000000  0.4278040000000  0.4893140000000 1.0
C      1  0.5804530000000  0.4811660000000  0.4659770000000 1.0
C      1  0.5563000000000  0.4872400000000  0.5860920000000 1.0
C      1  0.5506850000000  0.5821110000000  0.5015090000000 1.0
C      1  0.5260970000000  0.4800590000000  0.4947610000000 1.0
C      1  0.4898590000000  0.4505370000000  0.4752860000000 1.0
C      1  0.5283570000000  0.5716990000000  0.5151390000000 1.0
C      1  0.4631470000000  0.5371780000000  0.4352750000000 1.0
C      1  0.5552860000000  0.5113160000000  0.4374740000000 1.0
C      1  0.5262770000000  0.5083560000000  0.5018340000000 1.0
C      1  0.4659710000000  0.4389850000000  0.4751430000000 1.0
C      1  0.5215890000000  0.5483220000000  0.5311810000000 1.0
C      1  0.4602290000000  0.4640840000000  0.5571540000000 1.0
C      1  0.5277570000000  0.4057510000000  0.4819880000000 1.0
C      1  0.4939170000000  0.4018250000000  0.5187620000000 1.0
END
