TITL C-627110-360-991 -1.07001615782147e-08 125000 -34.6420363079041 0 0 7 (C2v) n - 1
REM
REM in /home/nfs/bkarasulu/CARBON/AIRSS/Generating-Clusters/LCBOP/Only-C1/SD-CG/FIRE-CG
REM
REM
REM
REM
REM
REM ./C.cell (11c1c37f851c82e70ff6c80c92926a4b)
REM AIRSS Version 0.9.1 bugfix July 2018 build 013d7b7c2542+ Fri, 06 Jul 2018 19:26:36 +0100
REM compiler GCC version 9.2.1 20190827 (Red Hat 9.2.1-1)
REM options -cpp -mtune=generic -march=x86-64 -g -O0 -fpre-include=/usr/include/finclude/math-vector-fortran.h
REM seed -1749836843 -485129698 823405095 1609071323 -96272841 -320076570 -42052958 2017326066 -688839622 1527202915 -1698403960 -1160307393 -1235810235 -331809315 1346081830 -1508137672 1417273961 -2095690893 -1952231235 1479603869 890806216 -130403963 673340484 1432458735 -881081510 -1755081732 -1158906460 -601819089 -698714131 -1845247624 -1035265942 -733300223 -1998266948
REM
CELL 1.54180   50.00000   50.00000   50.00000   90.00000   90.00000   90.00000
LATT -1
SFAC C  
C      1  0.5044780000000  0.4967970000000  0.4464220000000 1.0
C      1  0.5024030000000  0.5019590000000  0.4939650000000 1.0
C      1  0.5123190000000  0.5100430000000  0.4690670000000 1.0
C      1  0.4930200000000  0.4943100000000  0.5175260000000 1.0
C      1  0.5297530000000  0.5311080000000  0.4676280000000 1.0
C      1  0.4743960000000  0.4791270000000  0.5642900000000 1.0
C      1  0.4836310000000  0.4866560000000  0.5411020000000 1.0
END
