TITL C-627111-6168-476 -6.95171223717612e-07 125000 -198.030780151703 0 0 34 (C1) n - 1
REM
REM in /home/nfs/bkarasulu/CARBON/AIRSS/Generating-Clusters/LCBOP/Only-C1/SD-CG/FIRE-CG
REM
REM
REM
REM
REM
REM ./C.cell (11c1c37f851c82e70ff6c80c92926a4b)
REM AIRSS Version 0.9.1 bugfix July 2018 build 013d7b7c2542+ Fri, 06 Jul 2018 19:26:36 +0100
REM compiler GCC version 9.2.1 20190827 (Red Hat 9.2.1-1)
REM options -cpp -mtune=generic -march=x86-64 -g -O0 -fpre-include=/usr/include/finclude/math-vector-fortran.h
REM seed -645894075 -1757794593 -1631025394 -452973770 -808373569 -117689252 -25917260 1396611870 -524282585 1639679660 -1195295541 2020714988 -2116616591 2083011945 1726970607 2632104 73292676 425265553 1077611428 -1825987174 153772476 42424910 918321811 -438083670 -20692256 1717923515 -1999144524 -1243362965 -873917735 -364472274 1964438928 190876249 -880077453
REM
CELL 1.54180   50.00000   50.00000   50.00000   90.00000   90.00000   90.00000
LATT -1
SFAC C  
C      1  0.5250360000000  0.4719310000000  0.4884590000000 1.0
C      1  0.5171900000000  0.5862060000000  0.5120140000000 1.0
C      1  0.4939740000000  0.4541110000000  0.5219060000000 1.0
C      1  0.5660220000000  0.5230210000000  0.4643430000000 1.0
C      1  0.4974830000000  0.5361630000000  0.4183790000000 1.0
C      1  0.4645240000000  0.5163980000000  0.5327530000000 1.0
C      1  0.5121680000000  0.4801710000000  0.5653060000000 1.0
C      1  0.4492890000000  0.4707500000000  0.3981560000000 1.0
C      1  0.5253550000000  0.5506710000000  0.4802100000000 1.0
C      1  0.4622110000000  0.5217650000000  0.4479780000000 1.0
C      1  0.4795410000000  0.5148570000000  0.5548920000000 1.0
C      1  0.5300070000000  0.5426780000000  0.5281130000000 1.0
C      1  0.4665740000000  0.5076280000000  0.5076330000000 1.0
C      1  0.5386930000000  0.4681950000000  0.6111910000000 1.0
C      1  0.5035490000000  0.4601690000000  0.5474460000000 1.0
C      1  0.5504240000000  0.5440740000000  0.4694160000000 1.0
C      1  0.4631190000000  0.4775460000000  0.4692230000000 1.0
C      1  0.5000710000000  0.4725460000000  0.5007470000000 1.0
C      1  0.5064550000000  0.5072190000000  0.5584770000000 1.0
C      1  0.5515160000000  0.4627060000000  0.6332150000000 1.0
C      1  0.5256740000000  0.4738090000000  0.5888100000000 1.0
C      1  0.5254380000000  0.5243960000000  0.5469590000000 1.0
C      1  0.4875310000000  0.5341680000000  0.4438450000000 1.0
C      1  0.4583000000000  0.4337220000000  0.4934320000000 1.0
C      1  0.5240720000000  0.5602100000000  0.5069720000000 1.0
C      1  0.4597000000000  0.4933650000000  0.4460420000000 1.0
C      1  0.5023840000000  0.5444550000000  0.4653500000000 1.0
C      1  0.5648240000000  0.4965340000000  0.4675040000000 1.0
C      1  0.4749300000000  0.4345000000000  0.5147540000000 1.0
C      1  0.4534370000000  0.4512970000000  0.4734670000000 1.0
C      1  0.4541500000000  0.4815520000000  0.4213680000000 1.0
C      1  0.4780130000000  0.4880660000000  0.4911920000000 1.0
C      1  0.4401540000000  0.5370850000000  0.4534220000000 1.0
C      1  0.5481920000000  0.4780360000000  0.4770270000000 1.0
END
