TITL C-627109-622-976 2.59102412189636 125000 -439.553732992693 0 0 76 (C1) n - 1
REM
REM in /home/nfs/bkarasulu/CARBON/AIRSS/Generating-Clusters/LCBOP/Only-C1/SD-CG/FIRE-CG
REM
REM
REM
REM
REM
REM ./C.cell (11c1c37f851c82e70ff6c80c92926a4b)
REM AIRSS Version 0.9.1 bugfix July 2018 build 013d7b7c2542+ Fri, 06 Jul 2018 19:26:36 +0100
REM compiler GCC version 9.2.1 20190827 (Red Hat 9.2.1-1)
REM options -cpp -mtune=generic -march=x86-64 -g -O0 -fpre-include=/usr/include/finclude/math-vector-fortran.h
REM seed 862701269 1490401792 980391494 -734202459 1347272658 1712722189 -4682500 -501465653 -938544807 950357213 814120688 -16443609 -2072236663 146764653 706451845 1465003893 -1727504883 1656397406 479733383 -1010708085 -77119190 -1580446657 1385260227 282271989 -1898270469 -451721112 -1929908247 -1852624829 1134586686 585162078 -1003191940 -1452557928 -2143238583
REM
CELL 1.54180   50.00000   50.00000   50.00000   90.00000   90.00000   90.00000
LATT -1
SFAC C  
C      1  0.5598140000000  0.5328380000000  0.5584540000000 1.0
C      1  0.5429100000000  0.5526630000000  0.5462350000000 1.0
C      1  0.4700490000000  0.5701020000000  0.5423960000000 1.0
C      1  0.5568900000000  0.4943380000000  0.4804180000000 1.0
C      1  0.4753250000000  0.4310660000000  0.4645860000000 1.0
C      1  0.5814530000000  0.4873800000000  0.4419660000000 1.0
C      1  0.5733780000000  0.4662450000000  0.5223770000000 1.0
C      1  0.5159620000000  0.5564060000000  0.5559550000000 1.0
C      1  0.4542260000000  0.4990680000000  0.4523820000000 1.0
C      1  0.5204030000000  0.4580620000000  0.4096280000000 1.0
C      1  0.4850290000000  0.5364670000000  0.4962770000000 1.0
C      1  0.5505420000000  0.4318190000000  0.4990960000000 1.0
C      1  0.5437210000000  0.4596560000000  0.4518440000000 1.0
C      1  0.5057540000000  0.5080790000000  0.4359730000000 1.0
C      1  0.5290990000000  0.4178440000000  0.4332290000000 1.0
C      1  0.4458990000000  0.4713680000000  0.4590090000000 1.0
C      1  0.5553750000000  0.4440740000000  0.5249020000000 1.0
C      1  0.5567590000000  0.4474230000000  0.4758820000000 1.0
C      1  0.5941010000000  0.5251190000000  0.5026020000000 1.0
C      1  0.4282670000000  0.5436630000000  0.4693420000000 1.0
C      1  0.4163970000000  0.4527410000000  0.4986740000000 1.0
C      1  0.5162540000000  0.4963140000000  0.5665440000000 1.0
C      1  0.5363740000000  0.4403570000000  0.5454860000000 1.0
C      1  0.5627000000000  0.5471490000000  0.4736320000000 1.0
C      1  0.4794880000000  0.5231960000000  0.5598910000000 1.0
C      1  0.5538670000000  0.5674870000000  0.4933280000000 1.0
C      1  0.4779850000000  0.4632640000000  0.5264590000000 1.0
C      1  0.4668680000000  0.4898270000000  0.5242660000000 1.0
C      1  0.5515210000000  0.5643770000000  0.5214140000000 1.0
C      1  0.5235110000000  0.5669400000000  0.4563160000000 1.0
C      1  0.5955550000000  0.4747160000000  0.4633900000000 1.0
C      1  0.4872910000000  0.5514450000000  0.5566420000000 1.0
C      1  0.4808920000000  0.5877610000000  0.4716590000000 1.0
C      1  0.3989160000000  0.4040500000000  0.4815160000000 1.0
C      1  0.5755660000000  0.4911320000000  0.5371620000000 1.0
C      1  0.5116540000000  0.4435890000000  0.5557800000000 1.0
C      1  0.5367940000000  0.5832510000000  0.4767880000000 1.0
C      1  0.5741180000000  0.5121530000000  0.5173980000000 1.0
C      1  0.4733190000000  0.5922030000000  0.4971770000000 1.0
C      1  0.4317290000000  0.5165410000000  0.4625730000000 1.0
C      1  0.4269870000000  0.4626140000000  0.5521960000000 1.0
C      1  0.5054440000000  0.5516260000000  0.5054150000000 1.0
C      1  0.4886950000000  0.4340320000000  0.4875590000000 1.0
C      1  0.3918560000000  0.3806500000000  0.4724500000000 1.0
C      1  0.4597590000000  0.5376600000000  0.5059400000000 1.0
C      1  0.4178600000000  0.5640480000000  0.4863810000000 1.0
C      1  0.5884130000000  0.5370560000000  0.4789360000000 1.0
C      1  0.4187890000000  0.4570240000000  0.5269560000000 1.0
C      1  0.5402480000000  0.5416000000000  0.4539420000000 1.0
C      1  0.5638700000000  0.5040730000000  0.5607990000000 1.0
C      1  0.4867040000000  0.4567720000000  0.5534420000000 1.0
C      1  0.4578770000000  0.5811530000000  0.5184730000000 1.0
C      1  0.4448160000000  0.4709510000000  0.5710440000000 1.0
C      1  0.4414290000000  0.4969990000000  0.5181880000000 1.0
C      1  0.4588370000000  0.4477810000000  0.4517470000000 1.0
C      1  0.5517290000000  0.4907630000000  0.4502720000000 1.0
C      1  0.4882960000000  0.4998160000000  0.5774650000000 1.0
C      1  0.4128500000000  0.4979730000000  0.4748790000000 1.0
C      1  0.4965190000000  0.5746350000000  0.4538440000000 1.0
C      1  0.5307250000000  0.4451550000000  0.4314560000000 1.0
C      1  0.3934310000000  0.5750110000000  0.4804300000000 1.0
C      1  0.5489870000000  0.5071050000000  0.5036370000000 1.0
C      1  0.5150000000000  0.4734500000000  0.5001060000000 1.0
C      1  0.4732220000000  0.4743380000000  0.5729780000000 1.0
C      1  0.4942270000000  0.4551920000000  0.5047450000000 1.0
C      1  0.5761860000000  0.4697620000000  0.4864380000000 1.0
C      1  0.5425860000000  0.4918250000000  0.5748270000000 1.0
C      1  0.4843230000000  0.5096380000000  0.5343010000000 1.0
C      1  0.5333060000000  0.5145820000000  0.4433040000000 1.0
C      1  0.4894490000000  0.5174220000000  0.4771000000000 1.0
C      1  0.4233010000000  0.4713500000000  0.4780260000000 1.0
C      1  0.5122940000000  0.5020010000000  0.5376250000000 1.0
C      1  0.4318930000000  0.5734790000000  0.5093590000000 1.0
C      1  0.5259120000000  0.4954680000000  0.5143800000000 1.0
C      1  0.4819990000000  0.5070110000000  0.4522090000000 1.0
C      1  0.4064220000000  0.4278140000000  0.4905040000000 1.0
END
