TITL C-627109-622-2094 26.1952770420284 125000 -1192.50932406424 0 0 193 (C1) n - 1
REM
REM in /home/nfs/bkarasulu/CARBON/AIRSS/Generating-Clusters/LCBOP/Only-C1/SD-CG/FIRE-CG
REM
REM
REM
REM
REM
REM ./C.cell (11c1c37f851c82e70ff6c80c92926a4b)
REM AIRSS Version 0.9.1 bugfix July 2018 build 013d7b7c2542+ Fri, 06 Jul 2018 19:26:36 +0100
REM compiler GCC version 9.2.1 20190827 (Red Hat 9.2.1-1)
REM options -cpp -mtune=generic -march=x86-64 -g -O0 -fpre-include=/usr/include/finclude/math-vector-fortran.h
REM seed 1722061572 200926182 988876778 -2117480578 1530814820 717528171 -244021147 -5986922 -1667043297 117484209 -238792715 -1801890026 -1683918077 -1116311860 1129751173 -1293597848 -1335785221 -849807843 -1314817668 664675741 -1231978159 1948583590 1891712227 351319260 586947667 1179030585 1521677081 55023752 784666672 313572750 -81578449 1975178287 2081521795
REM
CELL 1.54180   50.00000   50.00000   50.00000   90.00000   90.00000   90.00000
LATT -1
SFAC C  
C      1  0.4793000000000  0.5499670000000  0.5521020000000 1.0
C      1  0.5013880000000  0.5262000000000  0.4200540000000 1.0
C      1  0.4628740000000  0.3645160000000  0.4821710000000 1.0
C      1  0.5758430000000  0.4195520000000  0.4595260000000 1.0
C      1  0.5927620000000  0.4715120000000  0.4747440000000 1.0
C      1  0.4983540000000  0.4821740000000  0.5235040000000 1.0
C      1  0.5580740000000  0.5002570000000  0.5064640000000 1.0
C      1  0.5432580000000  0.4890480000000  0.5724770000000 1.0
C      1  0.4269080000000  0.4899740000000  0.3917700000000 1.0
C      1  0.5047460000000  0.5565190000000  0.4014300000000 1.0
C      1  0.4429020000000  0.5433680000000  0.6103120000000 1.0
C      1  0.5864360000000  0.5193290000000  0.5466700000000 1.0
C      1  0.5425850000000  0.5599650000000  0.5307280000000 1.0
C      1  0.4184630000000  0.4169540000000  0.5036090000000 1.0
C      1  0.5926900000000  0.5694310000000  0.5519600000000 1.0
C      1  0.4231450000000  0.4514770000000  0.5981650000000 1.0
C      1  0.6043260000000  0.5427960000000  0.4746470000000 1.0
C      1  0.5408440000000  0.5631930000000  0.5973660000000 1.0
C      1  0.4105410000000  0.4247380000000  0.5280430000000 1.0
C      1  0.4227370000000  0.4893780000000  0.5173190000000 1.0
C      1  0.5228140000000  0.4879370000000  0.6248850000000 1.0
C      1  0.3990210000000  0.5524120000000  0.5427810000000 1.0
C      1  0.5899940000000  0.4576280000000  0.5413420000000 1.0
C      1  0.4719800000000  0.3895270000000  0.4890880000000 1.0
C      1  0.5123960000000  0.4361800000000  0.5129500000000 1.0
C      1  0.5563610000000  0.5245520000000  0.6249180000000 1.0
C      1  0.6056530000000  0.4906560000000  0.4248410000000 1.0
C      1  0.4517060000000  0.3553630000000  0.5582920000000 1.0
C      1  0.5226950000000  0.5637700000000  0.5747040000000 1.0
C      1  0.4618210000000  0.4282740000000  0.5790640000000 1.0
C      1  0.5552490000000  0.4677190000000  0.4089430000000 1.0
C      1  0.5337760000000  0.5191580000000  0.3795330000000 1.0
C      1  0.6134940000000  0.5227740000000  0.4941000000000 1.0
C      1  0.5050440000000  0.5523260000000  0.3713370000000 1.0
C      1  0.4578190000000  0.5273950000000  0.5073170000000 1.0
C      1  0.4813110000000  0.5125430000000  0.3826560000000 1.0
C      1  0.4975740000000  0.4791750000000  0.5534990000000 1.0
C      1  0.4295900000000  0.5327100000000  0.4685710000000 1.0
C      1  0.4747260000000  0.5038680000000  0.6154430000000 1.0
C      1  0.6074610000000  0.4532060000000  0.4559570000000 1.0
C      1  0.5493890000000  0.5316790000000  0.4319570000000 1.0
C      1  0.4502940000000  0.4306580000000  0.5524980000000 1.0
C      1  0.4527820000000  0.6017170000000  0.5143660000000 1.0
C      1  0.5491480000000  0.6005290000000  0.5538330000000 1.0
C      1  0.5620960000000  0.4338570000000  0.4806850000000 1.0
C      1  0.5176780000000  0.4959120000000  0.5667280000000 1.0
C      1  0.5189640000000  0.4627910000000  0.6105650000000 1.0
C      1  0.4397510000000  0.4444460000000  0.3890960000000 1.0
C      1  0.5494730000000  0.5736470000000  0.5071340000000 1.0
C      1  0.5050940000000  0.5234020000000  0.3702050000000 1.0
C      1  0.4722600000000  0.4509640000000  0.4423870000000 1.0
C      1  0.5453840000000  0.5155250000000  0.4068110000000 1.0
C      1  0.4221340000000  0.4349410000000  0.5514440000000 1.0
C      1  0.5661950000000  0.6280790000000  0.4802820000000 1.0
C      1  0.4169580000000  0.4184710000000  0.4553210000000 1.0
C      1  0.5535300000000  0.5081580000000  0.4778100000000 1.0
C      1  0.5190640000000  0.3870670000000  0.5476910000000 1.0
C      1  0.5439140000000  0.5332950000000  0.5347280000000 1.0
C      1  0.4294070000000  0.3476900000000  0.5694000000000 1.0
C      1  0.5080490000000  0.5195660000000  0.5763720000000 1.0
C      1  0.5460880000000  0.5593120000000  0.4376650000000 1.0
C      1  0.5911270000000  0.5029840000000  0.4033450000000 1.0
C      1  0.3820640000000  0.5110380000000  0.4990180000000 1.0
C      1  0.5408510000000  0.6361380000000  0.4903400000000 1.0
C      1  0.4601600000000  0.4122950000000  0.4758460000000 1.0
C      1  0.5001580000000  0.4491180000000  0.5584820000000 1.0
C      1  0.5655070000000  0.4247870000000  0.4328290000000 1.0
C      1  0.4490280000000  0.5166340000000  0.6186690000000 1.0
C      1  0.5690370000000  0.4554600000000  0.5222870000000 1.0
C      1  0.5273580000000  0.4647840000000  0.4072980000000 1.0
C      1  0.5016970000000  0.5372040000000  0.5066430000000 1.0
C      1  0.4325690000000  0.5834690000000  0.5267650000000 1.0
C      1  0.5935590000000  0.5273310000000  0.3882240000000 1.0
C      1  0.4109570000000  0.5077210000000  0.6474400000000 1.0
C      1  0.4814390000000  0.4534840000000  0.4150450000000 1.0
C      1  0.4274230000000  0.4993110000000  0.6271490000000 1.0
C      1  0.4120900000000  0.5584000000000  0.4094990000000 1.0
C      1  0.5181150000000  0.4039850000000  0.4303620000000 1.0
C      1  0.5369830000000  0.5444390000000  0.6183470000000 1.0
C      1  0.4579370000000  0.5532370000000  0.4032940000000 1.0
C      1  0.4928370000000  0.5014350000000  0.4066770000000 1.0
C      1  0.6185100000000  0.5350920000000  0.5193200000000 1.0
C      1  0.5024740000000  0.5449610000000  0.5685920000000 1.0
C      1  0.5794730000000  0.6046620000000  0.4824420000000 1.0
C      1  0.5209780000000  0.4641190000000  0.5125880000000 1.0
C      1  0.4303770000000  0.5172930000000  0.3878260000000 1.0
C      1  0.4235090000000  0.5010050000000  0.5459560000000 1.0
C      1  0.5177850000000  0.6271060000000  0.4753530000000 1.0
C      1  0.5336220000000  0.5759260000000  0.5519760000000 1.0
C      1  0.3981340000000  0.4882480000000  0.5026730000000 1.0
C      1  0.4401140000000  0.5677840000000  0.5959730000000 1.0
C      1  0.4096940000000  0.5358270000000  0.3943970000000 1.0
C      1  0.4884800000000  0.5852960000000  0.4877660000000 1.0
C      1  0.5643480000000  0.5229490000000  0.4552400000000 1.0
C      1  0.4631440000000  0.5021860000000  0.4932440000000 1.0
C      1  0.5343090000000  0.5817720000000  0.4296960000000 1.0
C      1  0.4670420000000  0.4399650000000  0.3947310000000 1.0
C      1  0.4132200000000  0.4540600000000  0.5711370000000 1.0
C      1  0.4712950000000  0.4891820000000  0.5673090000000 1.0
C      1  0.5660290000000  0.4301250000000  0.5093070000000 1.0
C      1  0.5700270000000  0.5744490000000  0.3848440000000 1.0
C      1  0.5314560000000  0.6198910000000  0.5387520000000 1.0
C      1  0.5064420000000  0.4979110000000  0.4619230000000 1.0
C      1  0.5418080000000  0.5815510000000  0.3820800000000 1.0
C      1  0.5386580000000  0.4844160000000  0.4679240000000 1.0
C      1  0.4875310000000  0.4398360000000  0.5823140000000 1.0
C      1  0.3775590000000  0.5531590000000  0.5246980000000 1.0
C      1  0.5998560000000  0.4622820000000  0.4294020000000 1.0
C      1  0.5099940000000  0.6046880000000  0.5234210000000 1.0
C      1  0.5918220000000  0.5299240000000  0.4527670000000 1.0
C      1  0.4195480000000  0.5762050000000  0.5779380000000 1.0
C      1  0.5934370000000  0.4987530000000  0.5645610000000 1.0
C      1  0.4938820000000  0.3795990000000  0.5349530000000 1.0
C      1  0.5309460000000  0.5623680000000  0.3621610000000 1.0
C      1  0.5397490000000  0.6397360000000  0.5191730000000 1.0
C      1  0.5598270000000  0.4102320000000  0.5290030000000 1.0
C      1  0.5742380000000  0.5881680000000  0.5662670000000 1.0
C      1  0.4318770000000  0.4160780000000  0.4788940000000 1.0
C      1  0.3717560000000  0.5346170000000  0.5061250000000 1.0
C      1  0.5612960000000  0.4632060000000  0.4726690000000 1.0
C      1  0.4140240000000  0.4295490000000  0.4314030000000 1.0
C      1  0.4236700000000  0.4482850000000  0.4136100000000 1.0
C      1  0.5357390000000  0.3963680000000  0.5248260000000 1.0
C      1  0.5485430000000  0.4739290000000  0.5146850000000 1.0
C      1  0.4917130000000  0.4595740000000  0.6018810000000 1.0
C      1  0.5744020000000  0.4497510000000  0.4204080000000 1.0
C      1  0.5279960000000  0.5912760000000  0.5040940000000 1.0
C      1  0.4658940000000  0.4639870000000  0.5175510000000 1.0
C      1  0.5443560000000  0.4207340000000  0.5778360000000 1.0
C      1  0.5245560000000  0.4000080000000  0.5727870000000 1.0
C      1  0.4437950000000  0.6094960000000  0.4874140000000 1.0
C      1  0.6037480000000  0.4255390000000  0.4607790000000 1.0
C      1  0.5489550000000  0.4986700000000  0.6293030000000 1.0
C      1  0.6086100000000  0.4963260000000  0.4778640000000 1.0
C      1  0.5644630000000  0.5161810000000  0.5287360000000 1.0
C      1  0.4377740000000  0.5678890000000  0.4176990000000 1.0
C      1  0.4161870000000  0.5746170000000  0.5497120000000 1.0
C      1  0.6083780000000  0.5062570000000  0.4487730000000 1.0
C      1  0.4381940000000  0.4875740000000  0.4414890000000 1.0
C      1  0.4753450000000  0.4252100000000  0.4549100000000 1.0
C      1  0.5048960000000  0.5236240000000  0.4476780000000 1.0
C      1  0.4410450000000  0.5862490000000  0.4390670000000 1.0
C      1  0.4571120000000  0.5282270000000  0.3881750000000 1.0
C      1  0.5010950000000  0.5088980000000  0.6261530000000 1.0
C      1  0.5004180000000  0.6062470000000  0.4711730000000 1.0
C      1  0.5729360000000  0.5811190000000  0.4939380000000 1.0
C      1  0.5846720000000  0.4715760000000  0.5654820000000 1.0
C      1  0.6387350000000  0.4385410000000  0.5285300000000 1.0
C      1  0.4735920000000  0.3650240000000  0.5469130000000 1.0
C      1  0.4957340000000  0.5573110000000  0.4869900000000 1.0
C      1  0.5645240000000  0.4163370000000  0.5569360000000 1.0
C      1  0.3530360000000  0.4297400000000  0.4726820000000 1.0
C      1  0.4087170000000  0.5267160000000  0.5489490000000 1.0
C      1  0.4277000000000  0.5650820000000  0.5050890000000 1.0
C      1  0.4533090000000  0.5067210000000  0.5527210000000 1.0
C      1  0.4709650000000  0.5756230000000  0.5608530000000 1.0
C      1  0.4638340000000  0.5297800000000  0.5370940000000 1.0
C      1  0.5759400000000  0.5468610000000  0.3769370000000 1.0
C      1  0.5596430000000  0.4673990000000  0.5788060000000 1.0
C      1  0.3881260000000  0.4643880000000  0.4921530000000 1.0
C      1  0.4290510000000  0.5119920000000  0.4518820000000 1.0
C      1  0.5641300000000  0.4940570000000  0.4046410000000 1.0
C      1  0.4484130000000  0.4818490000000  0.5069440000000 1.0
C      1  0.4664110000000  0.4394410000000  0.5306730000000 1.0
C      1  0.4954280000000  0.4091080000000  0.4431480000000 1.0
C      1  0.4994510000000  0.5469750000000  0.4615670000000 1.0
C      1  0.6017730000000  0.5434210000000  0.5414890000000 1.0
C      1  0.5025050000000  0.5110960000000  0.5147920000000 1.0
C      1  0.4635160000000  0.5807800000000  0.5863990000000 1.0
C      1  0.5109660000000  0.5359220000000  0.6269080000000 1.0
C      1  0.4430330000000  0.4312970000000  0.6002260000000 1.0
C      1  0.6154780000000  0.4476430000000  0.5359670000000 1.0
C      1  0.4621710000000  0.4754900000000  0.4527720000000 1.0
C      1  0.4100970000000  0.4803290000000  0.5623860000000 1.0
C      1  0.5652920000000  0.5777620000000  0.5923810000000 1.0
C      1  0.4941290000000  0.4346360000000  0.5351510000000 1.0
C      1  0.4332850000000  0.4683010000000  0.3738400000000 1.0
C      1  0.5228310000000  0.5797990000000  0.4044480000000 1.0
C      1  0.5167000000000  0.4086610000000  0.5060720000000 1.0
C      1  0.4752210000000  0.4831490000000  0.5960260000000 1.0
C      1  0.4385990000000  0.5429000000000  0.4930640000000 1.0
C      1  0.5006420000000  0.4738110000000  0.4093380000000 1.0
C      1  0.4229340000000  0.4738310000000  0.6154670000000 1.0
C      1  0.3707580000000  0.4470230000000  0.4821550000000 1.0
C      1  0.4821350000000  0.5979660000000  0.5145430000000 1.0
C      1  0.4786880000000  0.4912950000000  0.4707450000000 1.0
C      1  0.4407750000000  0.6010080000000  0.4617410000000 1.0
C      1  0.4926880000000  0.3916030000000  0.5081120000000 1.0
C      1  0.3364390000000  0.4121710000000  0.4629130000000 1.0
C      1  0.5503120000000  0.5387950000000  0.3645790000000 1.0
C      1  0.5435690000000  0.4468620000000  0.5915780000000 1.0
C      1  0.5433060000000  0.4101130000000  0.4244610000000 1.0
C      1  0.4254500000000  0.4771220000000  0.4182980000000 1.0
END
