TITL C-627112-676-1292 -7.5295214499554e-07 125000 -484.864417543621 0 0 83 (C1) n - 1
REM
REM in /home/nfs/bkarasulu/CARBON/AIRSS/Generating-Clusters/LCBOP/Only-C1/SD-CG/FIRE-CG
REM
REM
REM
REM
REM
REM ./C.cell (11c1c37f851c82e70ff6c80c92926a4b)
REM AIRSS Version 0.9.1 bugfix July 2018 build 013d7b7c2542+ Fri, 06 Jul 2018 19:26:36 +0100
REM compiler GCC version 9.2.1 20190827 (Red Hat 9.2.1-1)
REM options -cpp -mtune=generic -march=x86-64 -g -O0 -fpre-include=/usr/include/finclude/math-vector-fortran.h
REM seed -307550481 802431074 -1652235854 -1434050862 -220072968 2068145018 841822075 -1324966878 2074508985 -76997154 -1483936772 -328896296 -617453547 -1231610604 -764551619 -681827281 519130761 -2061421773 -2106603406 -1815343050 1658317539 305306545 -1745028523 911487391 715711137 1728405678 1575686604 -1228778256 995301563 344583832 -2116128520 -1114216083 -1976366966
REM
CELL 1.54180   50.00000   50.00000   50.00000   90.00000   90.00000   90.00000
LATT -1
SFAC C  
C      1  0.4230290000000  0.4992100000000  0.4459530000000 1.0
C      1  0.5479630000000  0.5537970000000  0.5478450000000 1.0
C      1  0.4793960000000  0.4671960000000  0.4208510000000 1.0
C      1  0.5067440000000  0.5504940000000  0.4590400000000 1.0
C      1  0.5317750000000  0.4148950000000  0.4972640000000 1.0
C      1  0.5596100000000  0.5884290000000  0.4967120000000 1.0
C      1  0.5377720000000  0.4239150000000  0.5255020000000 1.0
C      1  0.5489840000000  0.5149090000000  0.4588910000000 1.0
C      1  0.4906800000000  0.4702070000000  0.4845990000000 1.0
C      1  0.4833920000000  0.4125940000000  0.4749720000000 1.0
C      1  0.5645190000000  0.5609060000000  0.4981670000000 1.0
C      1  0.4801000000000  0.4818050000000  0.5345160000000 1.0
C      1  0.4992860000000  0.5262120000000  0.5060680000000 1.0
C      1  0.5115730000000  0.5106460000000  0.5641900000000 1.0
C      1  0.5031830000000  0.4807470000000  0.4282300000000 1.0
C      1  0.5922530000000  0.4656780000000  0.4974020000000 1.0
C      1  0.4473630000000  0.5080920000000  0.4343220000000 1.0
C      1  0.4485040000000  0.4254140000000  0.5138620000000 1.0
C      1  0.5272460000000  0.5165250000000  0.5855830000000 1.0
C      1  0.5565130000000  0.4451960000000  0.5199120000000 1.0
C      1  0.4364100000000  0.5235960000000  0.5391110000000 1.0
C      1  0.4592690000000  0.5635770000000  0.5293450000000 1.0
C      1  0.4840350000000  0.4844350000000  0.5852810000000 1.0
C      1  0.4778680000000  0.4398530000000  0.4289030000000 1.0
C      1  0.5415080000000  0.5422880000000  0.4969270000000 1.0
C      1  0.4670370000000  0.5051630000000  0.5778890000000 1.0
C      1  0.4461540000000  0.5426100000000  0.4699530000000 1.0
C      1  0.5017460000000  0.4980800000000  0.4488530000000 1.0
C      1  0.4866820000000  0.4962850000000  0.4723100000000 1.0
C      1  0.5542450000000  0.5051930000000  0.4330620000000 1.0
C      1  0.5577650000000  0.4803280000000  0.4232120000000 1.0
C      1  0.4933220000000  0.4345210000000  0.5452340000000 1.0
C      1  0.4821850000000  0.4200280000000  0.4470690000000 1.0
C      1  0.4920280000000  0.5450110000000  0.4130650000000 1.0
C      1  0.4425280000000  0.4648400000000  0.4721940000000 1.0
C      1  0.4194010000000  0.4750040000000  0.4599360000000 1.0
C      1  0.4338570000000  0.4971560000000  0.5244330000000 1.0
C      1  0.4590930000000  0.4873100000000  0.4182160000000 1.0
C      1  0.5602580000000  0.4512270000000  0.4634590000000 1.0
C      1  0.5840020000000  0.4499790000000  0.5180320000000 1.0
C      1  0.4382550000000  0.5463790000000  0.5200060000000 1.0
C      1  0.5040460000000  0.4966330000000  0.5408550000000 1.0
C      1  0.5492380000000  0.4803630000000  0.5517940000000 1.0
C      1  0.5390020000000  0.4626630000000  0.5055520000000 1.0
C      1  0.4993410000000  0.5742030000000  0.4730260000000 1.0
C      1  0.5146320000000  0.4749920000000  0.5002150000000 1.0
C      1  0.4987400000000  0.5592560000000  0.5564430000000 1.0
C      1  0.4599350000000  0.5315020000000  0.4471800000000 1.0
C      1  0.5604370000000  0.5293330000000  0.5557750000000 1.0
C      1  0.4629560000000  0.4956450000000  0.5148770000000 1.0
C      1  0.5582970000000  0.5059590000000  0.5378970000000 1.0
C      1  0.4294240000000  0.4685650000000  0.5352960000000 1.0
C      1  0.4476200000000  0.4465230000000  0.5333090000000 1.0
C      1  0.4740530000000  0.4544700000000  0.5407290000000 1.0
C      1  0.4712480000000  0.5823120000000  0.5123610000000 1.0
C      1  0.5170850000000  0.5024490000000  0.5140500000000 1.0
C      1  0.4296180000000  0.5484870000000  0.4926100000000 1.0
C      1  0.4771430000000  0.5119340000000  0.4947870000000 1.0
C      1  0.4856240000000  0.5919760000000  0.4901050000000 1.0
C      1  0.5588430000000  0.4990910000000  0.4819930000000 1.0
C      1  0.5483820000000  0.4280450000000  0.4763900000000 1.0
C      1  0.5534650000000  0.5230920000000  0.5827170000000 1.0
C      1  0.5584910000000  0.4563800000000  0.4356970000000 1.0
C      1  0.4667300000000  0.4549890000000  0.4826380000000 1.0
C      1  0.4574990000000  0.5265070000000  0.5606110000000 1.0
C      1  0.3955280000000  0.4618690000000  0.4604910000000 1.0
C      1  0.4864160000000  0.5417210000000  0.4398780000000 1.0
C      1  0.5214800000000  0.4359850000000  0.5470830000000 1.0
C      1  0.4112720000000  0.5000430000000  0.5045720000000 1.0
C      1  0.4041590000000  0.5577310000000  0.4878370000000 1.0
C      1  0.5552080000000  0.6141120000000  0.4965170000000 1.0
C      1  0.4654360000000  0.4278910000000  0.4910630000000 1.0
C      1  0.5291300000000  0.4606920000000  0.5622720000000 1.0
C      1  0.5472960000000  0.5114720000000  0.5088180000000 1.0
C      1  0.5320630000000  0.5373410000000  0.4672840000000 1.0
C      1  0.5162730000000  0.5486710000000  0.5126990000000 1.0
C      1  0.5724620000000  0.4736310000000  0.4785270000000 1.0
C      1  0.5072560000000  0.4043070000000  0.4877660000000 1.0
C      1  0.4717900000000  0.5517120000000  0.5529110000000 1.0
C      1  0.5901310000000  0.5512660000000  0.4997990000000 1.0
C      1  0.5073610000000  0.4696460000000  0.5809960000000 1.0
C      1  0.5211470000000  0.5579460000000  0.5392200000000 1.0
C      1  0.4862090000000  0.6188600000000  0.4849850000000 1.0
END
