TITL C-627112-676-1403 -4.16308143561163e-07 125000 -896.012898666026 0 0 145 (C1) n - 1
REM
REM in /home/nfs/bkarasulu/CARBON/AIRSS/Generating-Clusters/LCBOP/Only-C1/SD-CG/FIRE-CG
REM
REM
REM
REM
REM
REM ./C.cell (11c1c37f851c82e70ff6c80c92926a4b)
REM AIRSS Version 0.9.1 bugfix July 2018 build 013d7b7c2542+ Fri, 06 Jul 2018 19:26:36 +0100
REM compiler GCC version 9.2.1 20190827 (Red Hat 9.2.1-1)
REM options -cpp -mtune=generic -march=x86-64 -g -O0 -fpre-include=/usr/include/finclude/math-vector-fortran.h
REM seed 2006907683 -1397455585 301357762 -1419603145 -228262372 1101004926 -574142515 -742842907 1104459395 -619367947 529535334 1306717562 -303111821 -147167383 1928551315 -1927500981 -1217469189 -297404512 -730869179 1770959315 -1915284132 44293563 -1441312721 -448747191 2078789425 -2022324062 1202611087 1662736024 -99618936 -720970991 488337299 877703971 1865049744
REM
CELL 1.54180   50.00000   50.00000   50.00000   90.00000   90.00000   90.00000
LATT -1
SFAC C  
C      1  0.5790200000000  0.4259940000000  0.4587900000000 1.0
C      1  0.4468870000000  0.5246300000000  0.5692040000000 1.0
C      1  0.4148950000000  0.4971020000000  0.4024690000000 1.0
C      1  0.5053890000000  0.5527600000000  0.4644910000000 1.0
C      1  0.5108780000000  0.5666040000000  0.5670000000000 1.0
C      1  0.4091560000000  0.4849510000000  0.4259040000000 1.0
C      1  0.5042890000000  0.6070860000000  0.4520860000000 1.0
C      1  0.4588130000000  0.4991160000000  0.6048690000000 1.0
C      1  0.3385210000000  0.5096740000000  0.4815460000000 1.0
C      1  0.4625390000000  0.4516680000000  0.3985220000000 1.0
C      1  0.4014690000000  0.5240760000000  0.5053320000000 1.0
C      1  0.5511890000000  0.4766820000000  0.5117220000000 1.0
C      1  0.4165710000000  0.5448040000000  0.4923630000000 1.0
C      1  0.4747700000000  0.3826420000000  0.4994030000000 1.0
C      1  0.5521820000000  0.4539650000000  0.4295240000000 1.0
C      1  0.4574740000000  0.3910430000000  0.5216980000000 1.0
C      1  0.4785650000000  0.4725030000000  0.4491070000000 1.0
C      1  0.4553840000000  0.5218040000000  0.4521410000000 1.0
C      1  0.5962630000000  0.5087910000000  0.4131730000000 1.0
C      1  0.5454270000000  0.5322250000000  0.5597610000000 1.0
C      1  0.5092090000000  0.5923350000000  0.5533140000000 1.0
C      1  0.6036320000000  0.4893620000000  0.5042470000000 1.0
C      1  0.6175720000000  0.5573660000000  0.5345010000000 1.0
C      1  0.5066220000000  0.5147700000000  0.4951380000000 1.0
C      1  0.5240340000000  0.4310750000000  0.4951390000000 1.0
C      1  0.5316450000000  0.4835560000000  0.5559660000000 1.0
C      1  0.4512870000000  0.5442780000000  0.5902900000000 1.0
C      1  0.4698570000000  0.6161760000000  0.5300220000000 1.0
C      1  0.5282370000000  0.4111190000000  0.4382210000000 1.0
C      1  0.4642960000000  0.6125780000000  0.4780880000000 1.0
C      1  0.5005960000000  0.5534850000000  0.4039460000000 1.0
C      1  0.6070330000000  0.5660420000000  0.5810410000000 1.0
C      1  0.5080720000000  0.5053680000000  0.6088250000000 1.0
C      1  0.4993530000000  0.5259710000000  0.3929850000000 1.0
C      1  0.5854470000000  0.5509090000000  0.5895650000000 1.0
C      1  0.4790220000000  0.4510270000000  0.5403540000000 1.0
C      1  0.4819750000000  0.4986530000000  0.5446630000000 1.0
C      1  0.6031680000000  0.5729590000000  0.5529360000000 1.0
C      1  0.3886580000000  0.4543060000000  0.4810770000000 1.0
C      1  0.5275270000000  0.5928760000000  0.5304170000000 1.0
C      1  0.5250130000000  0.4398740000000  0.4332220000000 1.0
C      1  0.4091890000000  0.4466710000000  0.5000460000000 1.0
C      1  0.4318330000000  0.4022420000000  0.5140960000000 1.0
C      1  0.4963580000000  0.5581540000000  0.5898370000000 1.0
C      1  0.4699380000000  0.4413830000000  0.4966290000000 1.0
C      1  0.5656290000000  0.5497680000000  0.5686080000000 1.0
C      1  0.4411420000000  0.4986530000000  0.5818090000000 1.0
C      1  0.3534430000000  0.5366530000000  0.5193400000000 1.0
C      1  0.6174790000000  0.5310780000000  0.5293420000000 1.0
C      1  0.5748270000000  0.4218830000000  0.5666240000000 1.0
C      1  0.4608220000000  0.4801920000000  0.4021380000000 1.0
C      1  0.4972480000000  0.5662040000000  0.4904450000000 1.0
C      1  0.4942860000000  0.4658370000000  0.5846800000000 1.0
C      1  0.4260100000000  0.4704130000000  0.4409180000000 1.0
C      1  0.5051790000000  0.5293380000000  0.4463150000000 1.0
C      1  0.4675510000000  0.5464080000000  0.5306910000000 1.0
C      1  0.4267150000000  0.4800260000000  0.5671240000000 1.0
C      1  0.5191730000000  0.3817590000000  0.4746070000000 1.0
C      1  0.4799760000000  0.5243670000000  0.4930350000000 1.0
C      1  0.4012390000000  0.4953790000000  0.5008480000000 1.0
C      1  0.5231700000000  0.5493800000000  0.5223640000000 1.0
C      1  0.4764320000000  0.5501670000000  0.5041780000000 1.0
C      1  0.4767400000000  0.6013420000000  0.4553450000000 1.0
C      1  0.4128590000000  0.4719800000000  0.5155840000000 1.0
C      1  0.5077100000000  0.4464940000000  0.4093630000000 1.0
C      1  0.5519810000000  0.5928020000000  0.4685180000000 1.0
C      1  0.4738530000000  0.4769880000000  0.5277130000000 1.0
C      1  0.5232420000000  0.5468410000000  0.5504850000000 1.0
C      1  0.5034820000000  0.4863620000000  0.5613380000000 1.0
C      1  0.5732290000000  0.5454830000000  0.4633360000000 1.0
C      1  0.4810880000000  0.4434430000000  0.5680360000000 1.0
C      1  0.4499400000000  0.4294890000000  0.4807480000000 1.0
C      1  0.4860140000000  0.6078340000000  0.5497310000000 1.0
C      1  0.5327780000000  0.4885490000000  0.6054100000000 1.0
C      1  0.5287270000000  0.5295300000000  0.5037080000000 1.0
C      1  0.5468380000000  0.5062010000000  0.5481970000000 1.0
C      1  0.5035940000000  0.4986080000000  0.4055150000000 1.0
C      1  0.4802800000000  0.3936610000000  0.4494700000000 1.0
C      1  0.5929180000000  0.4622360000000  0.5421210000000 1.0
C      1  0.4656170000000  0.5272780000000  0.6103220000000 1.0
C      1  0.4658620000000  0.5232730000000  0.5475220000000 1.0
C      1  0.5655380000000  0.4032810000000  0.4653490000000 1.0
C      1  0.5457360000000  0.4768320000000  0.4133660000000 1.0
C      1  0.4838000000000  0.4859530000000  0.6046400000000 1.0
C      1  0.4811950000000  0.4341370000000  0.4117530000000 1.0
C      1  0.4626840000000  0.6175080000000  0.5043060000000 1.0
C      1  0.5742240000000  0.5221290000000  0.4807530000000 1.0
C      1  0.4802650000000  0.4920670000000  0.4231470000000 1.0
C      1  0.4734910000000  0.4153780000000  0.5682900000000 1.0
C      1  0.4269440000000  0.5652530000000  0.4773280000000 1.0
C      1  0.5300640000000  0.6048650000000  0.4589760000000 1.0
C      1  0.4406060000000  0.5666980000000  0.4517400000000 1.0
C      1  0.3354930000000  0.5272690000000  0.5016420000000 1.0
C      1  0.5553060000000  0.5897980000000  0.5371000000000 1.0
C      1  0.4715360000000  0.4170850000000  0.4355710000000 1.0
C      1  0.4789980000000  0.5679020000000  0.4178040000000 1.0
C      1  0.5713610000000  0.4734590000000  0.4692670000000 1.0
C      1  0.5255980000000  0.5138150000000  0.4343230000000 1.0
C      1  0.5491800000000  0.5024220000000  0.4252910000000 1.0
C      1  0.5728430000000  0.5174240000000  0.4239610000000 1.0
C      1  0.5093570000000  0.4214010000000  0.5151590000000 1.0
C      1  0.5879970000000  0.4957930000000  0.4799990000000 1.0
C      1  0.5958890000000  0.4894380000000  0.5538100000000 1.0
C      1  0.4662430000000  0.3971670000000  0.5488130000000 1.0
C      1  0.4267430000000  0.4243160000000  0.4967750000000 1.0
C      1  0.5725640000000  0.4523200000000  0.4497210000000 1.0
C      1  0.5819310000000  0.4942060000000  0.5791850000000 1.0
C      1  0.4395210000000  0.4952880000000  0.3914600000000 1.0
C      1  0.4703270000000  0.4700540000000  0.4997890000000 1.0
C      1  0.5460270000000  0.4583550000000  0.5593540000000 1.0
C      1  0.4791070000000  0.5187060000000  0.4375890000000 1.0
C      1  0.5603950000000  0.4940630000000  0.5968850000000 1.0
C      1  0.5388570000000  0.3956050000000  0.4593880000000 1.0
C      1  0.4905080000000  0.3841330000000  0.4748500000000 1.0
C      1  0.3584100000000  0.4936280000000  0.4735250000000 1.0
C      1  0.5570530000000  0.5018600000000  0.5223430000000 1.0
C      1  0.3800550000000  0.5337380000000  0.5213210000000 1.0
C      1  0.5514460000000  0.5600890000000  0.4203010000000 1.0
C      1  0.5552180000000  0.4206470000000  0.5860290000000 1.0
C      1  0.4374980000000  0.5401540000000  0.4419010000000 1.0
C      1  0.5383260000000  0.4434300000000  0.5839160000000 1.0
C      1  0.4641220000000  0.5801070000000  0.4403630000000 1.0
C      1  0.4184750000000  0.4722210000000  0.5430010000000 1.0
C      1  0.5191120000000  0.4735900000000  0.4012450000000 1.0
C      1  0.3825460000000  0.4824050000000  0.4818010000000 1.0
C      1  0.5273290000000  0.5629990000000  0.4085160000000 1.0
C      1  0.5719870000000  0.4462780000000  0.5514740000000 1.0
C      1  0.5219930000000  0.4609920000000  0.5982530000000 1.0
C      1  0.5735580000000  0.5724060000000  0.5499980000000 1.0
C      1  0.4685040000000  0.5666510000000  0.5883190000000 1.0
C      1  0.5250100000000  0.4540550000000  0.4789010000000 1.0
C      1  0.4619340000000  0.5107300000000  0.4771000000000 1.0
C      1  0.5554820000000  0.5219020000000  0.5023030000000 1.0
C      1  0.4510390000000  0.4582330000000  0.4441880000000 1.0
C      1  0.4960030000000  0.5325990000000  0.6064290000000 1.0
C      1  0.6026470000000  0.4623630000000  0.5151560000000 1.0
C      1  0.5170960000000  0.5748790000000  0.5100590000000 1.0
C      1  0.5676150000000  0.5714680000000  0.4731180000000 1.0
C      1  0.4841170000000  0.4319790000000  0.5197370000000 1.0
C      1  0.6062300000000  0.5054580000000  0.5297530000000 1.0
C      1  0.4711220000000  0.4842720000000  0.4760570000000 1.0
C      1  0.5096200000000  0.4555300000000  0.4556840000000 1.0
C      1  0.5475580000000  0.4698280000000  0.4851080000000 1.0
C      1  0.5692300000000  0.5432060000000  0.4349640000000 1.0
C      1  0.4530150000000  0.4316330000000  0.4525470000000 1.0
END
