TITL C-627110-360-1150 16.1535236864709 125000 -950.869901393079 0 0 152 (C1) n - 1
REM
REM in /home/nfs/bkarasulu/CARBON/AIRSS/Generating-Clusters/LCBOP/Only-C1/SD-CG/FIRE-CG
REM
REM
REM
REM
REM
REM ./C.cell (11c1c37f851c82e70ff6c80c92926a4b)
REM AIRSS Version 0.9.1 bugfix July 2018 build 013d7b7c2542+ Fri, 06 Jul 2018 19:26:36 +0100
REM compiler GCC version 9.2.1 20190827 (Red Hat 9.2.1-1)
REM options -cpp -mtune=generic -march=x86-64 -g -O0 -fpre-include=/usr/include/finclude/math-vector-fortran.h
REM seed -682404266 -445256687 2032143542 -1322270121 -1982682108 1859744702 2013337972 -1545149097 1519626406 -1833985803 -1935149522 11482690 -588821335 -1305309934 -1129178691 -598805451 -1779486035 1654104501 -860967714 484097395 -1180817745 -193386732 1126420771 -658366034 398100487 1554229983 -2068748441 1921200471 2060591200 924149166 -815710668 841352508 -1664069907
REM
CELL 1.54180   50.00000   50.00000   50.00000   90.00000   90.00000   90.00000
LATT -1
SFAC C  
C      1  0.5156190000000  0.4077970000000  0.4275580000000 1.0
C      1  0.4234120000000  0.5092120000000  0.4490630000000 1.0
C      1  0.5127960000000  0.5884710000000  0.5608180000000 1.0
C      1  0.6136450000000  0.4921320000000  0.5676650000000 1.0
C      1  0.4784140000000  0.4783950000000  0.4159550000000 1.0
C      1  0.5289230000000  0.5888170000000  0.5368400000000 1.0
C      1  0.6150290000000  0.4747390000000  0.5463650000000 1.0
C      1  0.5773980000000  0.4609360000000  0.4521080000000 1.0
C      1  0.4003680000000  0.5120860000000  0.5348410000000 1.0
C      1  0.5750670000000  0.5453430000000  0.4191320000000 1.0
C      1  0.5825340000000  0.4520070000000  0.5079450000000 1.0
C      1  0.4802600000000  0.4748600000000  0.5335180000000 1.0
C      1  0.4079520000000  0.4878320000000  0.4591250000000 1.0
C      1  0.4290590000000  0.4181770000000  0.4549150000000 1.0
C      1  0.5488610000000  0.4749860000000  0.5384410000000 1.0
C      1  0.5125230000000  0.4943840000000  0.5026180000000 1.0
C      1  0.4501360000000  0.5415240000000  0.4318390000000 1.0
C      1  0.4484000000000  0.4961840000000  0.5932560000000 1.0
C      1  0.4973860000000  0.4132200000000  0.5428790000000 1.0
C      1  0.5284050000000  0.5859030000000  0.4381120000000 1.0
C      1  0.4859680000000  0.4933160000000  0.5115620000000 1.0
C      1  0.4790160000000  0.5350420000000  0.3968800000000 1.0
C      1  0.5296440000000  0.5153300000000  0.5160790000000 1.0
C      1  0.6152090000000  0.5343360000000  0.4510090000000 1.0
C      1  0.5663280000000  0.4270070000000  0.5106990000000 1.0
C      1  0.5699120000000  0.5835870000000  0.4736660000000 1.0
C      1  0.6191410000000  0.5226260000000  0.4749160000000 1.0
C      1  0.5636890000000  0.4647560000000  0.4255920000000 1.0
C      1  0.5892320000000  0.5014370000000  0.5798850000000 1.0
C      1  0.5329190000000  0.4593950000000  0.4691650000000 1.0
C      1  0.5362510000000  0.4311500000000  0.4617550000000 1.0
C      1  0.4806260000000  0.5490700000000  0.4956960000000 1.0
C      1  0.5983490000000  0.5426700000000  0.4319810000000 1.0
C      1  0.4205600000000  0.5661240000000  0.4939230000000 1.0
C      1  0.4419720000000  0.5946050000000  0.5313050000000 1.0
C      1  0.5334970000000  0.4560130000000  0.6078190000000 1.0
C      1  0.3999210000000  0.4547830000000  0.4912500000000 1.0
C      1  0.5299430000000  0.4808580000000  0.4513820000000 1.0
C      1  0.4803950000000  0.5873930000000  0.4452430000000 1.0
C      1  0.5917970000000  0.4615350000000  0.5360800000000 1.0
C      1  0.5224880000000  0.5496330000000  0.4703520000000 1.0
C      1  0.5242140000000  0.5011810000000  0.6103930000000 1.0
C      1  0.4692070000000  0.4170050000000  0.4241460000000 1.0
C      1  0.5269570000000  0.5579720000000  0.4159870000000 1.0
C      1  0.4522120000000  0.4011810000000  0.5602180000000 1.0
C      1  0.5239870000000  0.5733650000000  0.5829400000000 1.0
C      1  0.5333240000000  0.4152960000000  0.5734540000000 1.0
C      1  0.5758990000000  0.5197890000000  0.5384820000000 1.0
C      1  0.4152100000000  0.5283810000000  0.5760420000000 1.0
C      1  0.4742850000000  0.4013750000000  0.4498290000000 1.0
C      1  0.4001100000000  0.5121440000000  0.5046260000000 1.0
C      1  0.5197800000000  0.4973880000000  0.3960510000000 1.0
C      1  0.4507050000000  0.4021670000000  0.4670080000000 1.0
C      1  0.5140820000000  0.4489380000000  0.4050100000000 1.0
C      1  0.5326080000000  0.5623930000000  0.5274580000000 1.0
C      1  0.4442320000000  0.5083010000000  0.5209610000000 1.0
C      1  0.5365210000000  0.5268710000000  0.4596400000000 1.0
C      1  0.5577450000000  0.5171480000000  0.4769320000000 1.0
C      1  0.4841460000000  0.6026150000000  0.5092890000000 1.0
C      1  0.5026440000000  0.3983610000000  0.4523250000000 1.0
C      1  0.4170530000000  0.4626010000000  0.4497320000000 1.0
C      1  0.4544570000000  0.4441540000000  0.5084030000000 1.0
C      1  0.5636890000000  0.4905520000000  0.4131650000000 1.0
C      1  0.4036250000000  0.4146190000000  0.5563350000000 1.0
C      1  0.4653160000000  0.4656200000000  0.4597790000000 1.0
C      1  0.4230780000000  0.5799240000000  0.5187120000000 1.0
C      1  0.4432220000000  0.4629380000000  0.4403040000000 1.0
C      1  0.4987240000000  0.4509830000000  0.5750430000000 1.0
C      1  0.4820590000000  0.4839140000000  0.4447110000000 1.0
C      1  0.4971720000000  0.4467880000000  0.4938010000000 1.0
C      1  0.3906110000000  0.4418040000000  0.5141220000000 1.0
C      1  0.4737010000000  0.5349400000000  0.4505650000000 1.0
C      1  0.5460720000000  0.4131910000000  0.5266050000000 1.0
C      1  0.4553530000000  0.5922490000000  0.4586440000000 1.0
C      1  0.5471530000000  0.4814670000000  0.6024860000000 1.0
C      1  0.4743700000000  0.5026290000000  0.6041150000000 1.0
C      1  0.4494080000000  0.4773070000000  0.4155810000000 1.0
C      1  0.5516500000000  0.4089280000000  0.5543380000000 1.0
C      1  0.5362140000000  0.6080460000000  0.5161730000000 1.0
C      1  0.4414410000000  0.5326970000000  0.5363280000000 1.0
C      1  0.4376670000000  0.5028600000000  0.4164500000000 1.0
C      1  0.5440740000000  0.5099960000000  0.4049580000000 1.0
C      1  0.4732560000000  0.5511620000000  0.5904150000000 1.0
C      1  0.5806540000000  0.4690690000000  0.4808890000000 1.0
C      1  0.5148840000000  0.5294440000000  0.6072830000000 1.0
C      1  0.5363420000000  0.4597580000000  0.5192830000000 1.0
C      1  0.4950760000000  0.4736180000000  0.5573560000000 1.0
C      1  0.4637100000000  0.5067390000000  0.5002590000000 1.0
C      1  0.5440540000000  0.5929650000000  0.4644480000000 1.0
C      1  0.5027670000000  0.6272660000000  0.4260020000000 1.0
C      1  0.5693330000000  0.4656880000000  0.5557550000000 1.0
C      1  0.4857330000000  0.5298870000000  0.6036860000000 1.0
C      1  0.5023150000000  0.5636710000000  0.4849260000000 1.0
C      1  0.4400680000000  0.4210160000000  0.4265430000000 1.0
C      1  0.4120560000000  0.4401140000000  0.4673680000000 1.0
C      1  0.5034080000000  0.6019140000000  0.4359810000000 1.0
C      1  0.5693690000000  0.4798060000000  0.5827060000000 1.0
C      1  0.4298850000000  0.5597330000000  0.4305660000000 1.0
C      1  0.5951570000000  0.5285780000000  0.5179430000000 1.0
C      1  0.4873620000000  0.5602180000000  0.4456160000000 1.0
C      1  0.4353890000000  0.4830980000000  0.5329930000000 1.0
C      1  0.5052500000000  0.4583710000000  0.6018530000000 1.0
C      1  0.4695060000000  0.4086410000000  0.5393730000000 1.0
C      1  0.4141340000000  0.4895120000000  0.5511780000000 1.0
C      1  0.4716770000000  0.5622750000000  0.5648210000000 1.0
C      1  0.4511140000000  0.3981440000000  0.4945610000000 1.0
C      1  0.5018360000000  0.5498760000000  0.4024080000000 1.0
C      1  0.4325980000000  0.5263550000000  0.4706900000000 1.0
C      1  0.5284720000000  0.6033230000000  0.4880010000000 1.0
C      1  0.5530530000000  0.5567170000000  0.5090360000000 1.0
C      1  0.3914090000000  0.4281290000000  0.5369080000000 1.0
C      1  0.5491860000000  0.5314640000000  0.5763000000000 1.0
C      1  0.5074840000000  0.4252950000000  0.5665800000000 1.0
C      1  0.4961310000000  0.4249930000000  0.4123650000000 1.0
C      1  0.4973410000000  0.4852570000000  0.6100340000000 1.0
C      1  0.4703940000000  0.4526870000000  0.4850430000000 1.0
C      1  0.4700920000000  0.5987650000000  0.5336080000000 1.0
C      1  0.5501420000000  0.5301130000000  0.5006600000000 1.0
C      1  0.4262460000000  0.4042050000000  0.5659240000000 1.0
C      1  0.4539600000000  0.5252610000000  0.4085360000000 1.0
C      1  0.5204560000000  0.4659290000000  0.4955200000000 1.0
C      1  0.5138960000000  0.5397170000000  0.5279860000000 1.0
C      1  0.5391200000000  0.4237760000000  0.4340000000000 1.0
C      1  0.5090760000000  0.4974260000000  0.5640720000000 1.0
C      1  0.4839640000000  0.5870220000000  0.5563900000000 1.0
C      1  0.5757590000000  0.5700840000000  0.4982170000000 1.0
C      1  0.5767970000000  0.5250430000000  0.5681880000000 1.0
C      1  0.4347690000000  0.5808860000000  0.4728230000000 1.0
C      1  0.5024580000000  0.5914800000000  0.4908270000000 1.0
C      1  0.4624950000000  0.5296510000000  0.4794670000000 1.0
C      1  0.5485020000000  0.5384340000000  0.4120930000000 1.0
C      1  0.4148560000000  0.5353630000000  0.5479350000000 1.0
C      1  0.4137440000000  0.5367030000000  0.4905970000000 1.0
C      1  0.5068100000000  0.4199740000000  0.4966120000000 1.0
C      1  0.4565390000000  0.4163390000000  0.5150900000000 1.0
C      1  0.3994390000000  0.4858250000000  0.4875650000000 1.0
C      1  0.5169040000000  0.4119330000000  0.5214320000000 1.0
C      1  0.5025520000000  0.4750440000000  0.4015910000000 1.0
C      1  0.4240620000000  0.5003660000000  0.5781590000000 1.0
C      1  0.4544510000000  0.4630780000000  0.5295920000000 1.0
C      1  0.5421170000000  0.4464860000000  0.4166870000000 1.0
C      1  0.5320680000000  0.5475260000000  0.5924030000000 1.0
C      1  0.5330080000000  0.5119510000000  0.5618670000000 1.0
C      1  0.4921450000000  0.5100450000000  0.4481570000000 1.0
C      1  0.5180300000000  0.4111080000000  0.4729700000000 1.0
C      1  0.4656240000000  0.5454700000000  0.5426910000000 1.0
C      1  0.5479170000000  0.5042760000000  0.5368570000000 1.0
C      1  0.6014750000000  0.5123760000000  0.4945900000000 1.0
C      1  0.5791580000000  0.4983410000000  0.4829500000000 1.0
C      1  0.5975870000000  0.5569810000000  0.5115900000000 1.0
C      1  0.5202170000000  0.5071290000000  0.4494760000000 1.0
C      1  0.4861410000000  0.5433640000000  0.5233370000000 1.0
END
