TITL C-627113-6568-81 504.899863236238 125000 -702.939104871065 0 0 116 (C1) n - 1
REM
REM in /home/nfs/bkarasulu/CARBON/AIRSS/Generating-Clusters/LCBOP/Only-C1/SD-CG/FIRE-CG
REM
REM
REM
REM
REM
REM ./C.cell (11c1c37f851c82e70ff6c80c92926a4b)
REM AIRSS Version 0.9.1 bugfix July 2018 build 013d7b7c2542+ Fri, 06 Jul 2018 19:26:36 +0100
REM compiler GCC version 9.2.1 20190827 (Red Hat 9.2.1-1)
REM options -cpp -mtune=generic -march=x86-64 -g -O0 -fpre-include=/usr/include/finclude/math-vector-fortran.h
REM seed -118402797 1444311645 -1860789595 1588081212 -301640165 2044270782 -474362136 562766252 782996731 -2039370230 1763188186 574563859 -649430950 312329188 -281040351 1677762239 2147279250 1244671238 -1715825460 -302212238 2017405980 989696161 -2088011243 -596749507 -1543135179 1701164401 1163845535 1113572978 59443856 144632935 65057693 442403303 -2038120364
REM
CELL 1.54180   50.00000   50.00000   50.00000   90.00000   90.00000   90.00000
LATT -1
SFAC C  
C      1  0.5596420000000  0.4027500000000  0.4661960000000 1.0
C      1  0.5011070000000  0.4927350000000  0.5378040000000 1.0
C      1  0.5319400000000  0.5956640000000  0.4763620000000 1.0
C      1  0.4622520000000  0.4675950000000  0.5826250000000 1.0
C      1  0.4364240000000  0.5845710000000  0.5408830000000 1.0
C      1  0.4422960000000  0.4208470000000  0.4777870000000 1.0
C      1  0.4028120000000  0.4926990000000  0.5373870000000 1.0
C      1  0.5815350000000  0.4880230000000  0.4548180000000 1.0
C      1  0.4397370000000  0.4461530000000  0.4042790000000 1.0
C      1  0.4172060000000  0.5371680000000  0.5018530000000 1.0
C      1  0.4250730000000  0.4996910000000  0.5549180000000 1.0
C      1  0.5817840000000  0.5113790000000  0.4683980000000 1.0
C      1  0.4238330000000  0.5643780000000  0.4936740000000 1.0
C      1  0.4212840000000  0.5213620000000  0.4461600000000 1.0
C      1  0.5596100000000  0.6008720000000  0.4863570000000 1.0
C      1  0.4772630000000  0.4039830000000  0.5404780000000 1.0
C      1  0.5218820000000  0.5054680000000  0.4852950000000 1.0
C      1  0.4854520000000  0.4958310000000  0.4301960000000 1.0
C      1  0.4782800000000  0.6033180000000  0.4528170000000 1.0
C      1  0.4029430000000  0.4886700000000  0.5078270000000 1.0
C      1  0.5739510000000  0.5801390000000  0.4492690000000 1.0
C      1  0.4789430000000  0.5475840000000  0.4894510000000 1.0
C      1  0.5531000000000  0.5931370000000  0.4331130000000 1.0
C      1  0.5268120000000  0.5643080000000  0.4719540000000 1.0
C      1  0.4837540000000  0.5356620000000  0.5576490000000 1.0
C      1  0.4013540000000  0.5135030000000  0.4627600000000 1.0
C      1  0.4503210000000  0.5689650000000  0.5603200000000 1.0
C      1  0.5378270000000  0.4121540000000  0.5629960000000 1.0
C      1  0.4816770000000  0.5926580000000  0.5317330000000 1.0
C      1  0.5191050000000  0.4644080000000  0.4389780000000 1.0
C      1  0.4630400000000  0.4512940000000  0.4182600000000 1.0
C      1  0.5392980000000  0.4191750000000  0.4548310000000 1.0
C      1  0.5693280000000  0.5565320000000  0.4969040000000 1.0
C      1  0.5433040000000  0.4509910000000  0.4530800000000 1.0
C      1  0.5688150000000  0.4654010000000  0.4472150000000 1.0
C      1  0.4710720000000  0.4983880000000  0.4785580000000 1.0
C      1  0.5457120000000  0.5303310000000  0.5291980000000 1.0
C      1  0.5489630000000  0.4849530000000  0.5177980000000 1.0
C      1  0.4542750000000  0.5928010000000  0.5191400000000 1.0
C      1  0.4384710000000  0.5230890000000  0.5154880000000 1.0
C      1  0.5757250000000  0.5784800000000  0.4788640000000 1.0
C      1  0.4831830000000  0.4700200000000  0.5375490000000 1.0
C      1  0.5239710000000  0.4531110000000  0.5442800000000 1.0
C      1  0.5566420000000  0.4613860000000  0.5043630000000 1.0
C      1  0.6168980000000  0.5514570000000  0.6130310000000 1.0
C      1  0.4380520000000  0.4492060000000  0.4837750000000 1.0
C      1  0.4975690000000  0.5601750000000  0.5650630000000 1.0
C      1  0.5022730000000  0.6052680000000  0.4370150000000 1.0
C      1  0.5294140000000  0.6037560000000  0.4478190000000 1.0
C      1  0.5001920000000  0.5617310000000  0.4792740000000 1.0
C      1  0.4871660000000  0.3908260000000  0.4998070000000 1.0
C      1  0.4791090000000  0.4265450000000  0.5568390000000 1.0
C      1  0.4719910000000  0.4374860000000  0.4417830000000 1.0
C      1  0.4443630000000  0.5859020000000  0.4930270000000 1.0
C      1  0.5022080000000  0.6033010000000  0.4085730000000 1.0
C      1  0.5237990000000  0.5680650000000  0.5595580000000 1.0
C      1  0.4951580000000  0.5056840000000  0.4917590000000 1.0
C      1  0.4397250000000  0.4834630000000  0.5737650000000 1.0
C      1  0.4883480000000  0.4789800000000  0.5889230000000 1.0
C      1  0.5353340000000  0.4040070000000  0.5354150000000 1.0
C      1  0.4923070000000  0.5197130000000  0.5359650000000 1.0
C      1  0.5368360000000  0.4375660000000  0.3693650000000 1.0
C      1  0.4666980000000  0.5037070000000  0.4501770000000 1.0
C      1  0.5101680000000  0.3955390000000  0.5259610000000 1.0
C      1  0.5604170000000  0.4972520000000  0.5957650000000 1.0
C      1  0.4548490000000  0.5403800000000  0.5584800000000 1.0
C      1  0.4894590000000  0.4026820000000  0.4737990000000 1.0
C      1  0.5170160000000  0.4805540000000  0.5866150000000 1.0
C      1  0.5588120000000  0.4696820000000  0.6031980000000 1.0
C      1  0.4337320000000  0.4597670000000  0.5274710000000 1.0
C      1  0.4823150000000  0.4720870000000  0.4116570000000 1.0
C      1  0.4655930000000  0.4156630000000  0.4602170000000 1.0
C      1  0.5568050000000  0.4113100000000  0.5170280000000 1.0
C      1  0.4654310000000  0.4570230000000  0.4946500000000 1.0
C      1  0.4582860000000  0.5446390000000  0.4696370000000 1.0
C      1  0.5390250000000  0.4555750000000  0.4834130000000 1.0
C      1  0.5278680000000  0.4802050000000  0.5361700000000 1.0
C      1  0.4905040000000  0.4545620000000  0.4824580000000 1.0
C      1  0.5233060000000  0.4488980000000  0.3885360000000 1.0
C      1  0.4185500000000  0.4634120000000  0.5022070000000 1.0
C      1  0.5666570000000  0.4382820000000  0.5175350000000 1.0
C      1  0.4612990000000  0.4637450000000  0.5222910000000 1.0
C      1  0.5146370000000  0.4408870000000  0.4886830000000 1.0
C      1  0.5143420000000  0.4166360000000  0.4711260000000 1.0
C      1  0.5628390000000  0.3975710000000  0.4927800000000 1.0
C      1  0.4014990000000  0.5138460000000  0.4911990000000 1.0
C      1  0.5140000000000  0.4958990000000  0.4399200000000 1.0
C      1  0.5412460000000  0.5201960000000  0.5561250000000 1.0
C      1  0.5346640000000  0.4568000000000  0.5935090000000 1.0
C      1  0.5631840000000  0.5297150000000  0.4830960000000 1.0
C      1  0.4408080000000  0.4038120000000  0.5008420000000 1.0
C      1  0.5367160000000  0.5033510000000  0.5792400000000 1.0
C      1  0.4968610000000  0.4462080000000  0.5468680000000 1.0
C      1  0.5087600000000  0.5928520000000  0.5213890000000 1.0
C      1  0.5402140000000  0.5395680000000  0.4632850000000 1.0
C      1  0.5355250000000  0.4304210000000  0.5829740000000 1.0
C      1  0.5987440000000  0.5334140000000  0.6080770000000 1.0
C      1  0.4172460000000  0.4414650000000  0.3919800000000 1.0
C      1  0.4631190000000  0.3966430000000  0.5164090000000 1.0
C      1  0.5487600000000  0.5919950000000  0.4051130000000 1.0
C      1  0.5460750000000  0.5116610000000  0.5041540000000 1.0
C      1  0.4504450000000  0.5040310000000  0.4978940000000 1.0
C      1  0.5243460000000  0.5968850000000  0.3940340000000 1.0
C      1  0.4582540000000  0.5966180000000  0.4700830000000 1.0
C      1  0.5305870000000  0.5761910000000  0.5328740000000 1.0
C      1  0.4390570000000  0.5221880000000  0.5440370000000 1.0
C      1  0.4779810000000  0.5803850000000  0.5584750000000 1.0
C      1  0.4878600000000  0.5279620000000  0.5090120000000 1.0
C      1  0.4625100000000  0.4389870000000  0.5767260000000 1.0
C      1  0.5261370000000  0.5139670000000  0.4579460000000 1.0
C      1  0.4920500000000  0.4544550000000  0.4539360000000 1.0
C      1  0.5505010000000  0.5582120000000  0.5208100000000 1.0
C      1  0.5097550000000  0.4602450000000  0.4096140000000 1.0
C      1  0.5802280000000  0.5152190000000  0.6027880000000 1.0
C      1  0.5137100000000  0.6059080000000  0.4970320000000 1.0
C      1  0.4488110000000  0.5260840000000  0.4500880000000 1.0
END
