TITL C-627108-131-1682 -0.018724258640547 125000 -492.206438574565 0 0 83 (C1) n - 1
REM
REM in /home/nfs/bkarasulu/CARBON/AIRSS/Generating-Clusters/LCBOP/Only-C1/SD-CG/FIRE-CG
REM
REM
REM
REM
REM
REM ./C.cell (11c1c37f851c82e70ff6c80c92926a4b)
REM AIRSS Version 0.9.1 bugfix July 2018 build 013d7b7c2542+ Fri, 06 Jul 2018 19:26:36 +0100
REM compiler GCC version 9.2.1 20190827 (Red Hat 9.2.1-1)
REM options -cpp -mtune=generic -march=x86-64 -g -O0 -fpre-include=/usr/include/finclude/math-vector-fortran.h
REM seed 106145981 -1231496049 1307328104 902218663 1377239582 -332782827 -1660967934 -1385014159 -1778068293 -259884821 -1439275052 -1689035339 1522108585 -405748916 -1508541597 -457760216 693218058 827035689 1243277866 -1434988389 685663231 1941661563 1863893223 977847415 -594856154 -900903118 -886306488 -308424378 261362144 2008854087 1369677665 1458954091 762111991
REM
CELL 1.54180   50.00000   50.00000   50.00000   90.00000   90.00000   90.00000
LATT -1
SFAC C  
C      1  0.5804650000000  0.5077580000000  0.5370040000000 1.0
C      1  0.5470590000000  0.4369840000000  0.4756210000000 1.0
C      1  0.5072360000000  0.5976910000000  0.4927490000000 1.0
C      1  0.5545230000000  0.4545330000000  0.4557430000000 1.0
C      1  0.5469430000000  0.4772670000000  0.4391890000000 1.0
C      1  0.5308440000000  0.5194160000000  0.4610260000000 1.0
C      1  0.4778860000000  0.4270510000000  0.5402050000000 1.0
C      1  0.4902270000000  0.4606240000000  0.4937520000000 1.0
C      1  0.4398950000000  0.4579560000000  0.5193800000000 1.0
C      1  0.5555700000000  0.4616970000000  0.5354240000000 1.0
C      1  0.5221690000000  0.5881850000000  0.4495840000000 1.0
C      1  0.4721370000000  0.4272850000000  0.4382450000000 1.0
C      1  0.5329370000000  0.4567880000000  0.5171590000000 1.0
C      1  0.4793160000000  0.5071920000000  0.5085990000000 1.0
C      1  0.4503050000000  0.4671690000000  0.4357640000000 1.0
C      1  0.5387000000000  0.4939330000000  0.4958970000000 1.0
C      1  0.4735500000000  0.4855570000000  0.4866980000000 1.0
C      1  0.4715550000000  0.5226050000000  0.4540620000000 1.0
C      1  0.4989680000000  0.5910500000000  0.4661930000000 1.0
C      1  0.5038860000000  0.5259120000000  0.5102820000000 1.0
C      1  0.5281570000000  0.5096230000000  0.5169870000000 1.0
C      1  0.4363790000000  0.5687410000000  0.5233750000000 1.0
C      1  0.4872690000000  0.3794910000000  0.4190390000000 1.0
C      1  0.4792770000000  0.5703970000000  0.4652200000000 1.0
C      1  0.5215870000000  0.4136750000000  0.5190920000000 1.0
C      1  0.5747020000000  0.5338810000000  0.5220250000000 1.0
C      1  0.4885590000000  0.4863790000000  0.5302410000000 1.0
C      1  0.5048120000000  0.4849860000000  0.4540220000000 1.0
C      1  0.4728870000000  0.5739950000000  0.5537420000000 1.0
C      1  0.5742670000000  0.4819650000000  0.5247300000000 1.0
C      1  0.4470510000000  0.5622290000000  0.5489030000000 1.0
C      1  0.4304100000000  0.5044980000000  0.4968470000000 1.0
C      1  0.4480480000000  0.5536130000000  0.5022990000000 1.0
C      1  0.5254270000000  0.5802150000000  0.5063210000000 1.0
C      1  0.5479010000000  0.5712940000000  0.5470420000000 1.0
C      1  0.4933230000000  0.5225730000000  0.5632000000000 1.0
C      1  0.5178640000000  0.4746400000000  0.4309600000000 1.0
C      1  0.5112840000000  0.4537530000000  0.3613070000000 1.0
C      1  0.5215330000000  0.4386940000000  0.5636420000000 1.0
C      1  0.5232070000000  0.5769530000000  0.5344850000000 1.0
C      1  0.4172880000000  0.4716760000000  0.5298040000000 1.0
C      1  0.4605750000000  0.4500990000000  0.5379990000000 1.0
C      1  0.5657420000000  0.5398460000000  0.4935270000000 1.0
C      1  0.5452960000000  0.5026800000000  0.5696450000000 1.0
C      1  0.4614950000000  0.4333720000000  0.4646080000000 1.0
C      1  0.5356650000000  0.4323920000000  0.5015860000000 1.0
C      1  0.5434160000000  0.5748110000000  0.4606620000000 1.0
C      1  0.5343430000000  0.5082930000000  0.5438840000000 1.0
C      1  0.4983300000000  0.5659430000000  0.5435420000000 1.0
C      1  0.4169240000000  0.4998140000000  0.5242060000000 1.0
C      1  0.5745430000000  0.5248250000000  0.4688390000000 1.0
C      1  0.5066810000000  0.4675060000000  0.5163290000000 1.0
C      1  0.4809040000000  0.4356710000000  0.4849110000000 1.0
C      1  0.5148730000000  0.5389080000000  0.4792630000000 1.0
C      1  0.5053750000000  0.4579090000000  0.3863450000000 1.0
C      1  0.4349450000000  0.5380990000000  0.5581600000000 1.0
C      1  0.5687740000000  0.5558020000000  0.5398160000000 1.0
C      1  0.4166090000000  0.5871270000000  0.5197570000000 1.0
C      1  0.4799920000000  0.4961340000000  0.4598010000000 1.0
C      1  0.5732700000000  0.5072550000000  0.5653650000000 1.0
C      1  0.5491140000000  0.4458360000000  0.5582560000000 1.0
C      1  0.4436330000000  0.4575440000000  0.4633120000000 1.0
C      1  0.5232070000000  0.4939980000000  0.4729320000000 1.0
C      1  0.4430400000000  0.5252400000000  0.4523630000000 1.0
C      1  0.4236070000000  0.5161320000000  0.4695530000000 1.0
C      1  0.4557890000000  0.5696870000000  0.4803000000000 1.0
C      1  0.5066270000000  0.4226810000000  0.5430290000000 1.0
C      1  0.5254660000000  0.4930130000000  0.5867250000000 1.0
C      1  0.4991620000000  0.4617870000000  0.4132430000000 1.0
C      1  0.4984980000000  0.5010470000000  0.5807720000000 1.0
C      1  0.4735720000000  0.4528320000000  0.4238050000000 1.0
C      1  0.5395790000000  0.5590440000000  0.4875030000000 1.0
C      1  0.4536660000000  0.5246840000000  0.5053890000000 1.0
C      1  0.4861270000000  0.4745930000000  0.5752590000000 1.0
C      1  0.4445780000000  0.4754820000000  0.4892810000000 1.0
C      1  0.4896720000000  0.5439760000000  0.4623090000000 1.0
C      1  0.5654720000000  0.4852750000000  0.4978980000000 1.0
C      1  0.4734540000000  0.4730930000000  0.5501390000000 1.0
C      1  0.4794100000000  0.4024570000000  0.4285190000000 1.0
C      1  0.5080630000000  0.4574060000000  0.5801180000000 1.0
C      1  0.4980030000000  0.5379940000000  0.5393480000000 1.0
C      1  0.5561070000000  0.5114100000000  0.4502510000000 1.0
C      1  0.4210040000000  0.5183830000000  0.5455900000000 1.0
END
