TITL C-627112-676-1716 -6.66671108963828e-07 125000 -488.927218459104 0 0 81 (C1) n - 1
REM
REM in /home/nfs/bkarasulu/CARBON/AIRSS/Generating-Clusters/LCBOP/Only-C1/SD-CG/FIRE-CG
REM
REM
REM
REM
REM
REM ./C.cell (11c1c37f851c82e70ff6c80c92926a4b)
REM AIRSS Version 0.9.1 bugfix July 2018 build 013d7b7c2542+ Fri, 06 Jul 2018 19:26:36 +0100
REM compiler GCC version 9.2.1 20190827 (Red Hat 9.2.1-1)
REM options -cpp -mtune=generic -march=x86-64 -g -O0 -fpre-include=/usr/include/finclude/math-vector-fortran.h
REM seed 538600455 -966277714 -42381326 1821719297 -1715603664 -1717124015 840552642 -33408203 -230351040 1984090097 484076834 1461018142 1188999975 296020491 -1424809697 1987132259 -693323295 153683876 -8789741 -1646192768 -1119321349 -689108866 765016072 -254242073 -610560193 207709212 1279657329 -409537619 1528283469 -2089852492 -1651039351 -809883558 1405196137
REM
CELL 1.54180   50.00000   50.00000   50.00000   90.00000   90.00000   90.00000
LATT -1
SFAC C  
C      1  0.5162050000000  0.4349070000000  0.5556020000000 1.0
C      1  0.5469470000000  0.5150120000000  0.4737350000000 1.0
C      1  0.5669820000000  0.5217380000000  0.5375720000000 1.0
C      1  0.4140140000000  0.5351360000000  0.4918340000000 1.0
C      1  0.6070290000000  0.5531720000000  0.5258250000000 1.0
C      1  0.5717510000000  0.4741170000000  0.4659720000000 1.0
C      1  0.4193640000000  0.4615910000000  0.4756040000000 1.0
C      1  0.4673290000000  0.4641020000000  0.4171480000000 1.0
C      1  0.5082230000000  0.4069900000000  0.5564290000000 1.0
C      1  0.5115500000000  0.5203150000000  0.5071760000000 1.0
C      1  0.4316960000000  0.5662040000000  0.5427350000000 1.0
C      1  0.5071420000000  0.5461580000000  0.4670140000000 1.0
C      1  0.5881590000000  0.5893890000000  0.5518820000000 1.0
C      1  0.5328250000000  0.4717800000000  0.4942880000000 1.0
C      1  0.5274640000000  0.4020730000000  0.4259630000000 1.0
C      1  0.4855450000000  0.5170290000000  0.5135440000000 1.0
C      1  0.4958070000000  0.5678220000000  0.4828420000000 1.0
C      1  0.5889870000000  0.5334090000000  0.5247340000000 1.0
C      1  0.5670790000000  0.5300160000000  0.4614460000000 1.0
C      1  0.5330020000000  0.4997580000000  0.5783590000000 1.0
C      1  0.6078900000000  0.5769450000000  0.5384020000000 1.0
C      1  0.5635980000000  0.4726310000000  0.5317620000000 1.0
C      1  0.5287610000000  0.4754840000000  0.4207180000000 1.0
C      1  0.4787280000000  0.5075570000000  0.5745220000000 1.0
C      1  0.3894210000000  0.5417110000000  0.4862390000000 1.0
C      1  0.4723280000000  0.5049680000000  0.4708910000000 1.0
C      1  0.5281200000000  0.4375150000000  0.5283360000000 1.0
C      1  0.5606510000000  0.4943280000000  0.5745230000000 1.0
C      1  0.5444780000000  0.5650240000000  0.5416400000000 1.0
C      1  0.5300790000000  0.4503490000000  0.4298380000000 1.0
C      1  0.4349250000000  0.4687840000000  0.4526310000000 1.0
C      1  0.5092510000000  0.5212640000000  0.4226660000000 1.0
C      1  0.5048970000000  0.4697610000000  0.4898780000000 1.0
C      1  0.5854680000000  0.5450830000000  0.4507740000000 1.0
C      1  0.4879880000000  0.4568380000000  0.5081080000000 1.0
C      1  0.4775990000000  0.5481210000000  0.5490380000000 1.0
C      1  0.4856540000000  0.5710160000000  0.5330510000000 1.0
C      1  0.4739720000000  0.4348160000000  0.4547570000000 1.0
C      1  0.5689970000000  0.4951720000000  0.5475720000000 1.0
C      1  0.5042390000000  0.4551230000000  0.5712840000000 1.0
C      1  0.4685820000000  0.5936340000000  0.5356710000000 1.0
C      1  0.4639990000000  0.5155700000000  0.4956250000000 1.0
C      1  0.5094180000000  0.3955140000000  0.5312950000000 1.0
C      1  0.4643860000000  0.4557760000000  0.5201370000000 1.0
C      1  0.5233200000000  0.5238090000000  0.5639510000000 1.0
C      1  0.5184710000000  0.4146610000000  0.5114470000000 1.0
C      1  0.4640290000000  0.4846870000000  0.5661300000000 1.0
C      1  0.4943210000000  0.5287280000000  0.5632480000000 1.0
C      1  0.5094940000000  0.4154780000000  0.4848620000000 1.0
C      1  0.5304440000000  0.5732560000000  0.5187740000000 1.0
C      1  0.5184280000000  0.4762860000000  0.5831230000000 1.0
C      1  0.4763220000000  0.4597830000000  0.5705140000000 1.0
C      1  0.4572080000000  0.4537430000000  0.4416710000000 1.0
C      1  0.4843390000000  0.4820420000000  0.4066760000000 1.0
C      1  0.5001870000000  0.4246000000000  0.4596680000000 1.0
C      1  0.5037190000000  0.5712120000000  0.5107360000000 1.0
C      1  0.3986150000000  0.4439190000000  0.4722790000000 1.0
C      1  0.4410890000000  0.5894390000000  0.5294710000000 1.0
C      1  0.5088970000000  0.4942350000000  0.4138610000000 1.0
C      1  0.5347880000000  0.3793200000000  0.4145380000000 1.0
C      1  0.4945770000000  0.5347070000000  0.4430360000000 1.0
C      1  0.4243860000000  0.4718490000000  0.5016630000000 1.0
C      1  0.4366030000000  0.5174800000000  0.5465470000000 1.0
C      1  0.4493470000000  0.5922330000000  0.4806450000000 1.0
C      1  0.5235280000000  0.5280130000000  0.4826720000000 1.0
C      1  0.5441810000000  0.5371480000000  0.5478800000000 1.0
C      1  0.4388710000000  0.5274060000000  0.4969170000000 1.0
C      1  0.5428680000000  0.4594610000000  0.5180970000000 1.0
C      1  0.5621730000000  0.5829110000000  0.5541500000000 1.0
C      1  0.4693880000000  0.5218040000000  0.4482730000000 1.0
C      1  0.5419620000000  0.3568980000000  0.4033390000000 1.0
C      1  0.4451360000000  0.5163610000000  0.4349810000000 1.0
C      1  0.4438690000000  0.4901630000000  0.5463620000000 1.0
C      1  0.4343870000000  0.5956890000000  0.5028190000000 1.0
C      1  0.4913210000000  0.4845340000000  0.4705660000000 1.0
C      1  0.5194570000000  0.4257720000000  0.4384020000000 1.0
C      1  0.4417870000000  0.4721970000000  0.5239410000000 1.0
C      1  0.5503680000000  0.4868450000000  0.4775840000000 1.0
C      1  0.4732620000000  0.5821730000000  0.4738470000000 1.0
C      1  0.4302850000000  0.4940810000000  0.4399270000000 1.0
C      1  0.4480440000000  0.5433770000000  0.5483380000000 1.0
END
