TITL C-627113-6568-460 -575.345990939685 125000 -983.338738841058 0 0 161 (C1) n - 1
REM
REM in /home/nfs/bkarasulu/CARBON/AIRSS/Generating-Clusters/LCBOP/Only-C1/SD-CG/FIRE-CG
REM
REM
REM
REM
REM
REM ./C.cell (11c1c37f851c82e70ff6c80c92926a4b)
REM AIRSS Version 0.9.1 bugfix July 2018 build 013d7b7c2542+ Fri, 06 Jul 2018 19:26:36 +0100
REM compiler GCC version 9.2.1 20190827 (Red Hat 9.2.1-1)
REM options -cpp -mtune=generic -march=x86-64 -g -O0 -fpre-include=/usr/include/finclude/math-vector-fortran.h
REM seed -1448653555 269361436 -1765649440 1127911980 -1473790750 1113931213 -399237600 -1231377778 -1544544155 1510557492 1731702823 -1107136610 783908165 -818392561 -22427899 1950510572 1695639661 -176486446 -345302927 -1371399125 -631255034 776227898 -388574911 -2034808502 -849361519 468811174 974711480 -410796941 566057801 -1967769282 -1054286275 1133673198 -777993285
REM
CELL 1.54180   50.00000   50.00000   50.00000   90.00000   90.00000   90.00000
LATT -1
SFAC C  
C      1  0.5369760000000  0.4266200000000  0.6089900000000 1.0
C      1  0.4216780000000  0.5322070000000  0.4650570000000 1.0
C      1  0.5122550000000  0.5812270000000  0.3958620000000 1.0
C      1  0.4594030000000  0.4845930000000  0.4446310000000 1.0
C      1  0.3995440000000  0.4846000000000  0.5390650000000 1.0
C      1  0.4978830000000  0.6201070000000  0.3607660000000 1.0
C      1  0.3550040000000  0.5214420000000  0.5154030000000 1.0
C      1  0.5150980000000  0.3805450000000  0.5403770000000 1.0
C      1  0.5259740000000  0.4217550000000  0.4487990000000 1.0
C      1  0.5002250000000  0.4992260000000  0.4268910000000 1.0
C      1  0.5308160000000  0.4573430000000  0.3993550000000 1.0
C      1  0.5089330000000  0.5974200000000  0.4794800000000 1.0
C      1  0.6119360000000  0.4890440000000  0.6069540000000 1.0
C      1  0.5360150000000  0.5822040000000  0.4107760000000 1.0
C      1  0.5185100000000  0.4415070000000  0.6247070000000 1.0
C      1  0.4095890000000  0.5411390000000  0.4402330000000 1.0
C      1  0.6599450000000  0.4903050000000  0.5482770000000 1.0
C      1  0.4656190000000  0.4851500000000  0.5529540000000 1.0
C      1  0.6827840000000  0.4926730000000  0.5631690000000 1.0
C      1  0.4659490000000  0.5778010000000  0.4983180000000 1.0
C      1  0.6302460000000  0.4875070000000  0.5876080000000 1.0
C      1  0.5293950000000  0.5405690000000  0.5290860000000 1.0
C      1  0.5877450000000  0.5643660000000  0.4933160000000 1.0
C      1  0.5773080000000  0.3851530000000  0.5306840000000 1.0
C      1  0.4832280000000  0.4516950000000  0.4166710000000 1.0
C      1  0.5355260000000  0.6044050000000  0.5287970000000 1.0
C      1  0.4951340000000  0.5449090000000  0.4459260000000 1.0
C      1  0.4482140000000  0.5258370000000  0.3786180000000 1.0
C      1  0.5737800000000  0.5811190000000  0.5109380000000 1.0
C      1  0.6120100000000  0.5018590000000  0.5458940000000 1.0
C      1  0.4047380000000  0.5161860000000  0.4810620000000 1.0
C      1  0.4468510000000  0.4634070000000  0.4588340000000 1.0
C      1  0.4644980000000  0.3887400000000  0.4469490000000 1.0
C      1  0.5288540000000  0.4408050000000  0.4693160000000 1.0
C      1  0.5541840000000  0.4388670000000  0.4837180000000 1.0
C      1  0.4630040000000  0.5571450000000  0.5716980000000 1.0
C      1  0.5716590000000  0.4902280000000  0.5221500000000 1.0
C      1  0.6615500000000  0.4854380000000  0.5207380000000 1.0
C      1  0.4476450000000  0.5822970000000  0.4513440000000 1.0
C      1  0.5244270000000  0.5245570000000  0.3772880000000 1.0
C      1  0.5115030000000  0.4336420000000  0.6499090000000 1.0
C      1  0.4566600000000  0.5116250000000  0.4487740000000 1.0
C      1  0.4639770000000  0.5831200000000  0.5269730000000 1.0
C      1  0.5377980000000  0.5044060000000  0.3922150000000 1.0
C      1  0.5448710000000  0.5831990000000  0.5462500000000 1.0
C      1  0.4429920000000  0.4410760000000  0.4417990000000 1.0
C      1  0.4799300000000  0.5572350000000  0.4245890000000 1.0
C      1  0.5573110000000  0.4117420000000  0.6209600000000 1.0
C      1  0.4729810000000  0.3913630000000  0.3994610000000 1.0
C      1  0.5535720000000  0.5203070000000  0.5781420000000 1.0
C      1  0.4953210000000  0.6196990000000  0.4688420000000 1.0
C      1  0.5111510000000  0.5228780000000  0.4381040000000 1.0
C      1  0.4612240000000  0.4588010000000  0.5381670000000 1.0
C      1  0.5038560000000  0.4824980000000  0.5940470000000 1.0
C      1  0.4898830000000  0.4987930000000  0.5501010000000 1.0
C      1  0.4868220000000  0.4433750000000  0.5328810000000 1.0
C      1  0.5832360000000  0.4669050000000  0.5111050000000 1.0
C      1  0.4180720000000  0.5055860000000  0.5030390000000 1.0
C      1  0.4551300000000  0.4579990000000  0.4856940000000 1.0
C      1  0.5560230000000  0.4007250000000  0.5235210000000 1.0
C      1  0.4303520000000  0.5367110000000  0.3953030000000 1.0
C      1  0.4371600000000  0.4172560000000  0.5538990000000 1.0
C      1  0.4937100000000  0.5488450000000  0.4744480000000 1.0
C      1  0.5075120000000  0.4644100000000  0.6130220000000 1.0
C      1  0.5005200000000  0.3349250000000  0.5439820000000 1.0
C      1  0.3857370000000  0.3640450000000  0.4945050000000 1.0
C      1  0.4745620000000  0.5239910000000  0.3742630000000 1.0
C      1  0.4492920000000  0.5377330000000  0.6147750000000 1.0
C      1  0.6064330000000  0.5596420000000  0.5692760000000 1.0
C      1  0.3662100000000  0.5217520000000  0.5411670000000 1.0
C      1  0.5478150000000  0.4997300000000  0.4567140000000 1.0
C      1  0.4495540000000  0.5672890000000  0.5476980000000 1.0
C      1  0.5869820000000  0.4971500000000  0.6117440000000 1.0
C      1  0.4785080000000  0.3646980000000  0.5133860000000 1.0
C      1  0.5070190000000  0.5010700000000  0.5732890000000 1.0
C      1  0.4176990000000  0.4802030000000  0.5160950000000 1.0
C      1  0.4432250000000  0.4906630000000  0.5704620000000 1.0
C      1  0.5085660000000  0.6119010000000  0.5325200000000 1.0
C      1  0.4593560000000  0.3808470000000  0.4718200000000 1.0
C      1  0.5721120000000  0.5275220000000  0.5568610000000 1.0
C      1  0.4503610000000  0.5328000000000  0.4686270000000 1.0
C      1  0.5536190000000  0.4827000000000  0.4343380000000 1.0
C      1  0.5142410000000  0.4474250000000  0.5406220000000 1.0
C      1  0.4229150000000  0.5554740000000  0.5455930000000 1.0
C      1  0.5084630000000  0.4847020000000  0.4812910000000 1.0
C      1  0.4811040000000  0.4448010000000  0.4862770000000 1.0
C      1  0.4084730000000  0.3725240000000  0.5040110000000 1.0
C      1  0.5769180000000  0.4566450000000  0.4851760000000 1.0
C      1  0.4516060000000  0.6099500000000  0.4489320000000 1.0
C      1  0.4951370000000  0.5588760000000  0.4001160000000 1.0
C      1  0.5370210000000  0.4923290000000  0.4825310000000 1.0
C      1  0.4896870000000  0.5609350000000  0.5794800000000 1.0
C      1  0.5249060000000  0.5229860000000  0.5784680000000 1.0
C      1  0.5260240000000  0.5141120000000  0.5235390000000 1.0
C      1  0.3783520000000  0.5210500000000  0.4702240000000 1.0
C      1  0.5118180000000  0.5470180000000  0.5855440000000 1.0
C      1  0.4845530000000  0.4285310000000  0.5088230000000 1.0
C      1  0.5436980000000  0.4810800000000  0.4075000000000 1.0
C      1  0.4280550000000  0.4653350000000  0.5716930000000 1.0
C      1  0.3813960000000  0.5342200000000  0.4442110000000 1.0
C      1  0.5274790000000  0.5614720000000  0.5452620000000 1.0
C      1  0.5052700000000  0.4566820000000  0.4764300000000 1.0
C      1  0.5764830000000  0.3979970000000  0.6320370000000 1.0
C      1  0.5382930000000  0.5244860000000  0.4464470000000 1.0
C      1  0.5846580000000  0.5068410000000  0.5410600000000 1.0
C      1  0.6541500000000  0.4842800000000  0.4952740000000 1.0
C      1  0.5655720000000  0.5086800000000  0.6008790000000 1.0
C      1  0.4017690000000  0.4679660000000  0.5617650000000 1.0
C      1  0.4488540000000  0.5372410000000  0.5874230000000 1.0
C      1  0.6010680000000  0.5182610000000  0.4700450000000 1.0
C      1  0.5717760000000  0.5744830000000  0.5393810000000 1.0
C      1  0.4980800000000  0.3597200000000  0.5327300000000 1.0
C      1  0.4285870000000  0.5494410000000  0.4202860000000 1.0
C      1  0.4723280000000  0.6253470000000  0.4563190000000 1.0
C      1  0.5506560000000  0.5928650000000  0.4556500000000 1.0
C      1  0.5054390000000  0.6013070000000  0.3778340000000 1.0
C      1  0.4608870000000  0.5328880000000  0.5133800000000 1.0
C      1  0.3512840000000  0.5309140000000  0.5629010000000 1.0
C      1  0.4833350000000  0.6026100000000  0.5353550000000 1.0
C      1  0.5957120000000  0.5423290000000  0.4804220000000 1.0
C      1  0.4337850000000  0.5174980000000  0.5732320000000 1.0
C      1  0.5346020000000  0.4276410000000  0.5811580000000 1.0
C      1  0.5433340000000  0.4920910000000  0.5133460000000 1.0
C      1  0.3613430000000  0.5391580000000  0.4265130000000 1.0
C      1  0.4909300000000  0.5028250000000  0.4957530000000 1.0
C      1  0.5064060000000  0.4464610000000  0.4016980000000 1.0
C      1  0.4813190000000  0.4781940000000  0.4277100000000 1.0
C      1  0.5272330000000  0.4259960000000  0.5543580000000 1.0
C      1  0.4752330000000  0.5282030000000  0.4875960000000 1.0
C      1  0.4676020000000  0.4036460000000  0.4232630000000 1.0
C      1  0.5564790000000  0.4160040000000  0.5001410000000 1.0
C      1  0.4640320000000  0.4317610000000  0.4249220000000 1.0
C      1  0.5328340000000  0.4020870000000  0.5398920000000 1.0
C      1  0.4932740000000  0.5747380000000  0.4869910000000 1.0
C      1  0.5302960000000  0.4669630000000  0.5275160000000 1.0
C      1  0.4140960000000  0.5293320000000  0.5553160000000 1.0
C      1  0.5293840000000  0.4005130000000  0.4340510000000 1.0
C      1  0.4362110000000  0.5230380000000  0.5155090000000 1.0
C      1  0.5924970000000  0.4694310000000  0.4653530000000 1.0
C      1  0.4569730000000  0.3755920000000  0.4992630000000 1.0
C      1  0.5511160000000  0.5988890000000  0.5043930000000 1.0
C      1  0.3575600000000  0.5208660000000  0.4887970000000 1.0
C      1  0.4519940000000  0.5647270000000  0.4289820000000 1.0
C      1  0.3381330000000  0.5395210000000  0.5836890000000 1.0
C      1  0.5370950000000  0.5344120000000  0.3549460000000 1.0
C      1  0.3928320000000  0.5125080000000  0.5451390000000 1.0
C      1  0.5836660000000  0.5540470000000  0.5549960000000 1.0
C      1  0.6102080000000  0.4916460000000  0.4675020000000 1.0
C      1  0.6366430000000  0.4864420000000  0.4753910000000 1.0
C      1  0.4989960000000  0.5052140000000  0.5240540000000 1.0
C      1  0.4428610000000  0.4441150000000  0.5583300000000 1.0
C      1  0.4903330000000  0.6385890000000  0.3440020000000 1.0
C      1  0.4341780000000  0.3967300000000  0.5372250000000 1.0
C      1  0.4428950000000  0.4643090000000  0.5122030000000 1.0
C      1  0.4494960000000  0.5698260000000  0.4763280000000 1.0
C      1  0.5374280000000  0.5977940000000  0.4797870000000 1.0
C      1  0.5492660000000  0.5748080000000  0.4343260000000 1.0
C      1  0.5526430000000  0.5475510000000  0.4402740000000 1.0
C      1  0.4330660000000  0.3817180000000  0.5135460000000 1.0
C      1  0.4985220000000  0.5353460000000  0.3837240000000 1.0
C      1  0.6344100000000  0.4931100000000  0.5604080000000 1.0
END
