TITL C-627110-360-1240 5.04708428915451e-07 125000 -980.377888065552 0 0 159 (C1) n - 1
REM
REM in /home/nfs/bkarasulu/CARBON/AIRSS/Generating-Clusters/LCBOP/Only-C1/SD-CG/FIRE-CG
REM
REM
REM
REM
REM
REM ./C.cell (11c1c37f851c82e70ff6c80c92926a4b)
REM AIRSS Version 0.9.1 bugfix July 2018 build 013d7b7c2542+ Fri, 06 Jul 2018 19:26:36 +0100
REM compiler GCC version 9.2.1 20190827 (Red Hat 9.2.1-1)
REM options -cpp -mtune=generic -march=x86-64 -g -O0 -fpre-include=/usr/include/finclude/math-vector-fortran.h
REM seed 2136275702 -985794949 -1691174167 -390985187 1678675981 645745218 -1809590949 -1878472319 -1712090834 -145430438 -656948648 -2058852399 -125209260 -430419862 925963764 41955526 -1727394988 611083201 -1910706213 -884816066 -506137365 890969191 1047794807 1297019120 446482373 1954983097 1302150409 2075264003 -1370435628 -486977286 794736255 -870629487 163605084
REM
CELL 1.54180   50.00000   50.00000   50.00000   90.00000   90.00000   90.00000
LATT -1
SFAC C  
C      1  0.5735150000000  0.4886820000000  0.6090190000000 1.0
C      1  0.6033230000000  0.4533650000000  0.4925730000000 1.0
C      1  0.4333480000000  0.4642010000000  0.5373730000000 1.0
C      1  0.5583980000000  0.4999830000000  0.4825160000000 1.0
C      1  0.5777550000000  0.4399490000000  0.4198120000000 1.0
C      1  0.4690650000000  0.3981620000000  0.5192810000000 1.0
C      1  0.5396560000000  0.4184470000000  0.4701020000000 1.0
C      1  0.4650340000000  0.5418630000000  0.5585790000000 1.0
C      1  0.5009980000000  0.5882570000000  0.5292330000000 1.0
C      1  0.4198060000000  0.3790460000000  0.4428690000000 1.0
C      1  0.4514150000000  0.4386660000000  0.4943780000000 1.0
C      1  0.3745410000000  0.5282360000000  0.5426840000000 1.0
C      1  0.5609460000000  0.5975610000000  0.5269800000000 1.0
C      1  0.5996670000000  0.4633760000000  0.5413110000000 1.0
C      1  0.5267060000000  0.6013300000000  0.4586420000000 1.0
C      1  0.5781090000000  0.4247240000000  0.5256910000000 1.0
C      1  0.5195340000000  0.4054150000000  0.4852850000000 1.0
C      1  0.5278030000000  0.4377730000000  0.4528230000000 1.0
C      1  0.5665910000000  0.5748530000000  0.4292480000000 1.0
C      1  0.4573240000000  0.5192730000000  0.4159870000000 1.0
C      1  0.5042310000000  0.5722580000000  0.5062480000000 1.0
C      1  0.5057150000000  0.4409480000000  0.4105890000000 1.0
C      1  0.4876120000000  0.6328920000000  0.4757480000000 1.0
C      1  0.4911460000000  0.5846220000000  0.4267970000000 1.0
C      1  0.4834710000000  0.4569250000000  0.4011790000000 1.0
C      1  0.4628920000000  0.5823800000000  0.4258710000000 1.0
C      1  0.4712640000000  0.4184670000000  0.4985160000000 1.0
C      1  0.4003750000000  0.5244150000000  0.5524660000000 1.0
C      1  0.5939940000000  0.5265280000000  0.4686430000000 1.0
C      1  0.4174360000000  0.5949380000000  0.5525670000000 1.0
C      1  0.5306510000000  0.5020600000000  0.5447170000000 1.0
C      1  0.4876400000000  0.5372970000000  0.6113710000000 1.0
C      1  0.4498310000000  0.4795200000000  0.5843680000000 1.0
C      1  0.5586660000000  0.5594460000000  0.5564000000000 1.0
C      1  0.3706510000000  0.5758150000000  0.4834520000000 1.0
C      1  0.5581100000000  0.4376350000000  0.5655390000000 1.0
C      1  0.4949520000000  0.5401910000000  0.5590320000000 1.0
C      1  0.4984630000000  0.5601490000000  0.5996860000000 1.0
C      1  0.4676860000000  0.3899100000000  0.4509600000000 1.0
C      1  0.4626880000000  0.6283050000000  0.4843080000000 1.0
C      1  0.4662520000000  0.4775920000000  0.4747120000000 1.0
C      1  0.6266220000000  0.5249640000000  0.5082170000000 1.0
C      1  0.4943120000000  0.5160250000000  0.4605150000000 1.0
C      1  0.4636110000000  0.4817690000000  0.5027750000000 1.0
C      1  0.4238440000000  0.4704830000000  0.4581810000000 1.0
C      1  0.4354550000000  0.5908320000000  0.4718260000000 1.0
C      1  0.4464750000000  0.4555980000000  0.4697220000000 1.0
C      1  0.4356160000000  0.5041570000000  0.5823320000000 1.0
C      1  0.4284020000000  0.4846060000000  0.4323000000000 1.0
C      1  0.4993460000000  0.4614530000000  0.5961330000000 1.0
C      1  0.4478590000000  0.5941390000000  0.4465440000000 1.0
C      1  0.6120100000000  0.5113610000000  0.4864470000000 1.0
C      1  0.5445860000000  0.5494260000000  0.5008120000000 1.0
C      1  0.5180970000000  0.5875980000000  0.4347810000000 1.0
C      1  0.5635350000000  0.4272250000000  0.4818170000000 1.0
C      1  0.5032220000000  0.4608990000000  0.4951350000000 1.0
C      1  0.5203640000000  0.4825180000000  0.3907660000000 1.0
C      1  0.5380280000000  0.4641490000000  0.4571440000000 1.0
C      1  0.4809580000000  0.4221760000000  0.5658610000000 1.0
C      1  0.5452280000000  0.4748580000000  0.4819800000000 1.0
C      1  0.5370510000000  0.5052860000000  0.3926010000000 1.0
C      1  0.4089770000000  0.5077850000000  0.5736430000000 1.0
C      1  0.5054420000000  0.4288770000000  0.4364390000000 1.0
C      1  0.4438140000000  0.5554810000000  0.5434740000000 1.0
C      1  0.5311060000000  0.3787920000000  0.5520480000000 1.0
C      1  0.4151620000000  0.4934830000000  0.4760580000000 1.0
C      1  0.3847980000000  0.5583780000000  0.4398110000000 1.0
C      1  0.4288930000000  0.5180390000000  0.4651700000000 1.0
C      1  0.5288660000000  0.4379690000000  0.5642370000000 1.0
C      1  0.4831800000000  0.4007050000000  0.5452150000000 1.0
C      1  0.4816470000000  0.4958670000000  0.5419290000000 1.0
C      1  0.4884290000000  0.5093280000000  0.6039270000000 1.0
C      1  0.5618290000000  0.5080090000000  0.5096820000000 1.0
C      1  0.4483820000000  0.5071310000000  0.4419250000000 1.0
C      1  0.5071430000000  0.4465230000000  0.5163230000000 1.0
C      1  0.5034680000000  0.4374630000000  0.5796110000000 1.0
C      1  0.6440580000000  0.5455340000000  0.5045040000000 1.0
C      1  0.4866330000000  0.4119600000000  0.4514850000000 1.0
C      1  0.6101490000000  0.4858760000000  0.5269180000000 1.0
C      1  0.5077890000000  0.5359930000000  0.4721280000000 1.0
C      1  0.5632940000000  0.5349820000000  0.5158010000000 1.0
C      1  0.4510540000000  0.4589580000000  0.5156750000000 1.0
C      1  0.5616500000000  0.5020790000000  0.4350590000000 1.0
C      1  0.5681030000000  0.4146740000000  0.5501240000000 1.0
C      1  0.5491660000000  0.4778590000000  0.6074070000000 1.0
C      1  0.4785700000000  0.6046840000000  0.5294320000000 1.0
C      1  0.4056910000000  0.4885570000000  0.5023550000000 1.0
C      1  0.4485140000000  0.5651090000000  0.4085000000000 1.0
C      1  0.6085960000000  0.4824720000000  0.4966250000000 1.0
C      1  0.3915460000000  0.5439170000000  0.4184110000000 1.0
C      1  0.5552300000000  0.4563010000000  0.4141870000000 1.0
C      1  0.3611540000000  0.5575590000000  0.5024860000000 1.0
C      1  0.5136830000000  0.5054090000000  0.5891260000000 1.0
C      1  0.5876240000000  0.5737740000000  0.4118950000000 1.0
C      1  0.4209670000000  0.5389140000000  0.5397330000000 1.0
C      1  0.5109410000000  0.6225280000000  0.4681010000000 1.0
C      1  0.4185140000000  0.5677460000000  0.4732930000000 1.0
C      1  0.5945760000000  0.5029050000000  0.6009560000000 1.0
C      1  0.4522100000000  0.5265880000000  0.5789620000000 1.0
C      1  0.5300400000000  0.4557070000000  0.4001670000000 1.0
C      1  0.4549030000000  0.5449110000000  0.4935890000000 1.0
C      1  0.5520330000000  0.4752930000000  0.4354310000000 1.0
C      1  0.4587870000000  0.3751270000000  0.5038840000000 1.0
C      1  0.3614060000000  0.5411030000000  0.5233680000000 1.0
C      1  0.4120050000000  0.5275900000000  0.4083610000000 1.0
C      1  0.4378390000000  0.5830430000000  0.5385730000000 1.0
C      1  0.5199930000000  0.4371010000000  0.5372290000000 1.0
C      1  0.5885320000000  0.5549220000000  0.4676600000000 1.0
C      1  0.5183730000000  0.5528330000000  0.4919930000000 1.0
C      1  0.4307230000000  0.3493380000000  0.5343320000000 1.0
C      1  0.4442190000000  0.3878600000000  0.4355980000000 1.0
C      1  0.5485670000000  0.4638030000000  0.5092990000000 1.0
C      1  0.4103750000000  0.4774460000000  0.5267810000000 1.0
C      1  0.4114660000000  0.4987840000000  0.4132420000000 1.0
C      1  0.5512140000000  0.5928160000000  0.4723610000000 1.0
C      1  0.6116310000000  0.5144690000000  0.5840330000000 1.0
C      1  0.5915150000000  0.4371430000000  0.4432630000000 1.0
C      1  0.5588630000000  0.4366960000000  0.5083240000000 1.0
C      1  0.3911720000000  0.5678470000000  0.4655060000000 1.0
C      1  0.5715590000000  0.5109440000000  0.4601450000000 1.0
C      1  0.3604650000000  0.6011830000000  0.4822610000000 1.0
C      1  0.5765620000000  0.5480190000000  0.5372160000000 1.0
C      1  0.5231950000000  0.4795020000000  0.5975720000000 1.0
C      1  0.6217780000000  0.5111670000000  0.5331570000000 1.0
C      1  0.5554920000000  0.3898230000000  0.5529360000000 1.0
C      1  0.4143500000000  0.3625340000000  0.4905200000000 1.0
C      1  0.5053450000000  0.5646570000000  0.5717230000000 1.0
C      1  0.4343940000000  0.3619260000000  0.5104130000000 1.0
C      1  0.4914140000000  0.4836380000000  0.3936310000000 1.0
C      1  0.4762250000000  0.5061090000000  0.3999830000000 1.0
C      1  0.4387860000000  0.5387210000000  0.4069220000000 1.0
C      1  0.4926750000000  0.4133680000000  0.4802560000000 1.0
C      1  0.6222980000000  0.5188120000000  0.5599320000000 1.0
C      1  0.5451030000000  0.5834480000000  0.5478600000000 1.0
C      1  0.4324250000000  0.5432570000000  0.4771690000000 1.0
C      1  0.6008070000000  0.4417650000000  0.5210370000000 1.0
C      1  0.5479750000000  0.4888260000000  0.5265800000000 1.0
C      1  0.5893380000000  0.5929130000000  0.5298820000000 1.0
C      1  0.5397820000000  0.5766440000000  0.4205070000000 1.0
C      1  0.4468040000000  0.6063940000000  0.4932010000000 1.0
C      1  0.4911110000000  0.4743670000000  0.5526630000000 1.0
C      1  0.5790280000000  0.4586280000000  0.5616350000000 1.0
C      1  0.4552420000000  0.4339350000000  0.5687340000000 1.0
C      1  0.5974800000000  0.5668090000000  0.5318550000000 1.0
C      1  0.5169100000000  0.5827950000000  0.5523610000000 1.0
C      1  0.4722760000000  0.5034140000000  0.5174480000000 1.0
C      1  0.5143510000000  0.5171560000000  0.5628620000000 1.0
C      1  0.5885400000000  0.4383600000000  0.4715400000000 1.0
C      1  0.4724690000000  0.4985560000000  0.4574030000000 1.0
C      1  0.4700880000000  0.5292050000000  0.5083900000000 1.0
C      1  0.4525820000000  0.5985060000000  0.5201660000000 1.0
C      1  0.4431990000000  0.4591670000000  0.5644520000000 1.0
C      1  0.4669230000000  0.3743420000000  0.4758780000000 1.0
C      1  0.5540120000000  0.5152630000000  0.4113020000000 1.0
C      1  0.5534300000000  0.6006540000000  0.4997250000000 1.0
C      1  0.4755090000000  0.4813250000000  0.5991730000000 1.0
C      1  0.4086720000000  0.3690500000000  0.4651630000000 1.0
C      1  0.5702140000000  0.5751110000000  0.4579800000000 1.0
C      1  0.5048090000000  0.3826940000000  0.5492650000000 1.0
END
