TITL C-627109-622-283 4.28167950627838e-05 125000 -924.307685733745 0 0 151 (C1) n - 1
REM
REM in /home/nfs/bkarasulu/CARBON/AIRSS/Generating-Clusters/LCBOP/Only-C1/SD-CG/FIRE-CG
REM
REM
REM
REM
REM
REM ./C.cell (11c1c37f851c82e70ff6c80c92926a4b)
REM AIRSS Version 0.9.1 bugfix July 2018 build 013d7b7c2542+ Fri, 06 Jul 2018 19:26:36 +0100
REM compiler GCC version 9.2.1 20190827 (Red Hat 9.2.1-1)
REM options -cpp -mtune=generic -march=x86-64 -g -O0 -fpre-include=/usr/include/finclude/math-vector-fortran.h
REM seed -1184289029 -1583388579 -776803893 -676032919 810735031 -1485528920 -1142233947 1024391432 2037169164 385873324 -1303116142 -1451173134 -1036353325 -1738138862 -256653836 513580732 1845376770 -95346921 -1629166333 1782755150 74417365 345409011 1257920604 -1393469284 1674345884 1784650895 2013036428 1938989207 -301787318 1498106037 -1322940011 1556680915 238955799
REM
CELL 1.54180   50.00000   50.00000   50.00000   90.00000   90.00000   90.00000
LATT -1
SFAC C  
C      1  0.5680900000000  0.4907290000000  0.4106260000000 1.0
C      1  0.4910350000000  0.5054250000000  0.5458100000000 1.0
C      1  0.4021800000000  0.6497980000000  0.4738020000000 1.0
C      1  0.4507250000000  0.6303180000000  0.5409490000000 1.0
C      1  0.4271900000000  0.4393550000000  0.5969070000000 1.0
C      1  0.5290910000000  0.4185420000000  0.5738350000000 1.0
C      1  0.6307880000000  0.5024490000000  0.5207490000000 1.0
C      1  0.4292730000000  0.5037180000000  0.4977720000000 1.0
C      1  0.4489440000000  0.5827670000000  0.5552180000000 1.0
C      1  0.5328520000000  0.3995940000000  0.4994160000000 1.0
C      1  0.4777230000000  0.5969030000000  0.5172380000000 1.0
C      1  0.5403300000000  0.5226420000000  0.5558730000000 1.0
C      1  0.5250760000000  0.5061800000000  0.4431900000000 1.0
C      1  0.4189980000000  0.5572320000000  0.4994000000000 1.0
C      1  0.4265790000000  0.4768760000000  0.4262720000000 1.0
C      1  0.4685670000000  0.4921530000000  0.3916290000000 1.0
C      1  0.4894840000000  0.5488030000000  0.4651750000000 1.0
C      1  0.4698060000000  0.5496220000000  0.5164270000000 1.0
C      1  0.4816910000000  0.4013690000000  0.5797590000000 1.0
C      1  0.5959770000000  0.5166220000000  0.4579200000000 1.0
C      1  0.5271100000000  0.6202410000000  0.5460850000000 1.0
C      1  0.4386380000000  0.4572600000000  0.4434020000000 1.0
C      1  0.5042150000000  0.4946190000000  0.4275360000000 1.0
C      1  0.4391230000000  0.6529910000000  0.5334000000000 1.0
C      1  0.5693910000000  0.4340960000000  0.4123700000000 1.0
C      1  0.4101210000000  0.5436690000000  0.5457740000000 1.0
C      1  0.5935320000000  0.4757190000000  0.4132970000000 1.0
C      1  0.5747180000000  0.4707600000000  0.5440080000000 1.0
C      1  0.5124090000000  0.5853630000000  0.5808080000000 1.0
C      1  0.4890330000000  0.5715440000000  0.5899610000000 1.0
C      1  0.5303290000000  0.5488170000000  0.5571320000000 1.0
C      1  0.4984920000000  0.5356820000000  0.3958880000000 1.0
C      1  0.5394740000000  0.4417770000000  0.5861550000000 1.0
C      1  0.3794170000000  0.4916190000000  0.4827150000000 1.0
C      1  0.4114970000000  0.4899000000000  0.5149310000000 1.0
C      1  0.5971170000000  0.4642020000000  0.5266590000000 1.0
C      1  0.4850720000000  0.5029870000000  0.4856780000000 1.0
C      1  0.5707230000000  0.4744120000000  0.5718660000000 1.0
C      1  0.5456910000000  0.3686050000000  0.4412760000000 1.0
C      1  0.4547420000000  0.4479290000000  0.4891610000000 1.0
C      1  0.6133290000000  0.4765770000000  0.4818660000000 1.0
C      1  0.6036750000000  0.5608160000000  0.4907400000000 1.0
C      1  0.5181600000000  0.5042360000000  0.5566550000000 1.0
C      1  0.5916870000000  0.4482130000000  0.4062900000000 1.0
C      1  0.6139830000000  0.4938230000000  0.4577980000000 1.0
C      1  0.5478000000000  0.4989510000000  0.5168600000000 1.0
C      1  0.4502390000000  0.4076560000000  0.5409980000000 1.0
C      1  0.5872140000000  0.4618100000000  0.4822940000000 1.0
C      1  0.4255370000000  0.4588200000000  0.5789040000000 1.0
C      1  0.4967950000000  0.5290880000000  0.4829080000000 1.0
C      1  0.4010750000000  0.6247640000000  0.4648470000000 1.0
C      1  0.4615010000000  0.4450850000000  0.4600860000000 1.0
C      1  0.5167210000000  0.4600130000000  0.4594550000000 1.0
C      1  0.5348330000000  0.5682400000000  0.5765320000000 1.0
C      1  0.4035950000000  0.5273430000000  0.4641450000000 1.0
C      1  0.4638830000000  0.5776700000000  0.5786320000000 1.0
C      1  0.4576660000000  0.5156720000000  0.5978360000000 1.0
C      1  0.4335600000000  0.5205290000000  0.5865730000000 1.0
C      1  0.5580210000000  0.5194760000000  0.5338240000000 1.0
C      1  0.5852490000000  0.4454640000000  0.5062460000000 1.0
C      1  0.4875940000000  0.5722110000000  0.5073660000000 1.0
C      1  0.4016890000000  0.4895890000000  0.4348700000000 1.0
C      1  0.5942840000000  0.5591800000000  0.4378590000000 1.0
C      1  0.4967440000000  0.4278790000000  0.5104550000000 1.0
C      1  0.4136930000000  0.5766690000000  0.4802400000000 1.0
C      1  0.5936350000000  0.5769950000000  0.4172600000000 1.0
C      1  0.5149450000000  0.5613140000000  0.5102760000000 1.0
C      1  0.4766530000000  0.4802200000000  0.5495470000000 1.0
C      1  0.6030990000000  0.5442650000000  0.5137340000000 1.0
C      1  0.5273080000000  0.4138950000000  0.5454150000000 1.0
C      1  0.4592710000000  0.6039150000000  0.5379750000000 1.0
C      1  0.4495340000000  0.4487070000000  0.5169640000000 1.0
C      1  0.5035140000000  0.4558250000000  0.5111760000000 1.0
C      1  0.5032540000000  0.4955330000000  0.6054350000000 1.0
C      1  0.4765080000000  0.4063130000000  0.5518780000000 1.0
C      1  0.4838710000000  0.4658930000000  0.5730150000000 1.0
C      1  0.5309100000000  0.3905800000000  0.4409520000000 1.0
C      1  0.4988320000000  0.4153710000000  0.5364560000000 1.0
C      1  0.4305730000000  0.4720160000000  0.5549750000000 1.0
C      1  0.5419180000000  0.6172790000000  0.5239930000000 1.0
C      1  0.5498450000000  0.5283850000000  0.4836000000000 1.0
C      1  0.5736270000000  0.5132020000000  0.4747380000000 1.0
C      1  0.4294480000000  0.5198000000000  0.4741710000000 1.0
C      1  0.5091670000000  0.4107040000000  0.4914870000000 1.0
C      1  0.4246490000000  0.6668600000000  0.5158970000000 1.0
C      1  0.5165900000000  0.4143930000000  0.4388020000000 1.0
C      1  0.4695550000000  0.5013240000000  0.4611500000000 1.0
C      1  0.6142740000000  0.4823920000000  0.4316880000000 1.0
C      1  0.4854420000000  0.4448040000000  0.3878900000000 1.0
C      1  0.4686970000000  0.4180220000000  0.4490410000000 1.0
C      1  0.5701430000000  0.4238550000000  0.5164960000000 1.0
C      1  0.5389030000000  0.5553690000000  0.4933160000000 1.0
C      1  0.4516960000000  0.5226260000000  0.4579610000000 1.0
C      1  0.5609090000000  0.3469270000000  0.4422660000000 1.0
C      1  0.3908300000000  0.4469290000000  0.5087400000000 1.0
C      1  0.6257790000000  0.5287710000000  0.5201220000000 1.0
C      1  0.5880600000000  0.5314840000000  0.4347420000000 1.0
C      1  0.4863530000000  0.5322100000000  0.5346710000000 1.0
C      1  0.4060800000000  0.5988390000000  0.4678240000000 1.0
C      1  0.4606330000000  0.4018800000000  0.5980980000000 1.0
C      1  0.4857840000000  0.5193640000000  0.6040400000000 1.0
C      1  0.5582000000000  0.5709380000000  0.5902730000000 1.0
C      1  0.5115840000000  0.5488060000000  0.5359400000000 1.0
C      1  0.4398610000000  0.4172630000000  0.6047230000000 1.0
C      1  0.4931230000000  0.5466800000000  0.6033520000000 1.0
C      1  0.5218870000000  0.5395450000000  0.4090730000000 1.0
C      1  0.5759220000000  0.3256400000000  0.4433040000000 1.0
C      1  0.6012770000000  0.5666360000000  0.4645400000000 1.0
C      1  0.4886860000000  0.4719570000000  0.5986400000000 1.0
C      1  0.4536740000000  0.4682440000000  0.5380360000000 1.0
C      1  0.3999210000000  0.5183670000000  0.4374800000000 1.0
C      1  0.5143230000000  0.4809350000000  0.4043040000000 1.0
C      1  0.4344430000000  0.4256790000000  0.5260420000000 1.0
C      1  0.6176000000000  0.4796620000000  0.5112600000000 1.0
C      1  0.5695490000000  0.4835020000000  0.4762870000000 1.0
C      1  0.4904010000000  0.4724070000000  0.3898600000000 1.0
C      1  0.4433730000000  0.4858130000000  0.4043570000000 1.0
C      1  0.5526250000000  0.6031050000000  0.5039560000000 1.0
C      1  0.4893850000000  0.4144140000000  0.4297380000000 1.0
C      1  0.4875000000000  0.4602980000000  0.4544390000000 1.0
C      1  0.4651990000000  0.5470240000000  0.4528980000000 1.0
C      1  0.5427200000000  0.4738490000000  0.4079680000000 1.0
C      1  0.4912690000000  0.4796040000000  0.5006630000000 1.0
C      1  0.5086980000000  0.4043470000000  0.5878570000000 1.0
C      1  0.5142960000000  0.6099880000000  0.5673380000000 1.0
C      1  0.5534880000000  0.5797640000000  0.4905430000000 1.0
C      1  0.5461650000000  0.4478180000000  0.4206300000000 1.0
C      1  0.5661910000000  0.5183140000000  0.4205230000000 1.0
C      1  0.5502590000000  0.4739410000000  0.5287030000000 1.0
C      1  0.5793990000000  0.5364880000000  0.5272060000000 1.0
C      1  0.4107890000000  0.6659460000000  0.4931630000000 1.0
C      1  0.4069850000000  0.4277210000000  0.5191660000000 1.0
C      1  0.3984580000000  0.5394510000000  0.5114260000000 1.0
C      1  0.5271890000000  0.4593550000000  0.5260230000000 1.0
C      1  0.3906650000000  0.4745550000000  0.5028040000000 1.0
C      1  0.5461580000000  0.4099400000000  0.5228300000000 1.0
C      1  0.5482620000000  0.4688310000000  0.5887910000000 1.0
C      1  0.3859050000000  0.5214560000000  0.4879910000000 1.0
C      1  0.5344190000000  0.5044870000000  0.4919030000000 1.0
C      1  0.4779010000000  0.5192230000000  0.3896020000000 1.0
C      1  0.5316150000000  0.4888810000000  0.6021260000000 1.0
C      1  0.5272510000000  0.4884800000000  0.4671970000000 1.0
C      1  0.4846710000000  0.4227780000000  0.4031810000000 1.0
C      1  0.4821610000000  0.4855390000000  0.4422730000000 1.0
C      1  0.4141430000000  0.5283810000000  0.5692660000000 1.0
C      1  0.4424070000000  0.5563970000000  0.5160230000000 1.0
C      1  0.3830560000000  0.4808380000000  0.4556970000000 1.0
C      1  0.5391350000000  0.5255700000000  0.4271150000000 1.0
C      1  0.5293840000000  0.4400850000000  0.4422240000000 1.0
C      1  0.4121200000000  0.4885410000000  0.5426070000000 1.0
C      1  0.4322570000000  0.5631950000000  0.5425230000000 1.0
END
