TITL C-627112-676-2133 -6236.09295809145 125000 -1045.37029441898 0 0 173 (C1) n - 1
REM
REM in /home/nfs/bkarasulu/CARBON/AIRSS/Generating-Clusters/LCBOP/Only-C1/SD-CG/FIRE-CG
REM
REM
REM
REM
REM
REM ./C.cell (11c1c37f851c82e70ff6c80c92926a4b)
REM AIRSS Version 0.9.1 bugfix July 2018 build 013d7b7c2542+ Fri, 06 Jul 2018 19:26:36 +0100
REM compiler GCC version 9.2.1 20190827 (Red Hat 9.2.1-1)
REM options -cpp -mtune=generic -march=x86-64 -g -O0 -fpre-include=/usr/include/finclude/math-vector-fortran.h
REM seed -1406828430 -807718311 -255215583 1959036770 -702041795 -1678056295 -295733690 1056914555 1562588941 1691951104 -250347347 2341275 -1483276359 2014459792 1779926131 820486531 -1121808953 -1803917532 1098571420 -287897069 -320724021 -361071517 84547825 -176270850 1416533555 141727681 -2108438438 1636268614 2105302626 1407852574 -1976894188 336393068 -1641313762
REM
CELL 1.54180   50.00000   50.00000   50.00000   90.00000   90.00000   90.00000
LATT -1
SFAC C  
C      1  0.4967340000000  0.4050790000000  0.5107220000000 1.0
C      1  0.5025210000000  0.5290570000000  0.4529620000000 1.0
C      1  0.4727370000000  0.4762710000000  0.6094190000000 1.0
C      1  0.4236430000000  0.5830470000000  0.4277280000000 1.0
C      1  0.4314600000000  0.4106890000000  0.4911960000000 1.0
C      1  0.4426500000000  0.5116010000000  0.3785090000000 1.0
C      1  0.4107170000000  0.5316340000000  0.5741620000000 1.0
C      1  0.4059290000000  0.4670920000000  0.5053190000000 1.0
C      1  0.4368090000000  0.4743290000000  0.4023090000000 1.0
C      1  0.3715440000000  0.5170880000000  0.5457120000000 1.0
C      1  0.5218100000000  0.4899690000000  0.6152660000000 1.0
C      1  0.4810690000000  0.5124610000000  0.4468410000000 1.0
C      1  0.4808330000000  0.5812480000000  0.5168260000000 1.0
C      1  0.5524110000000  0.4002710000000  0.5676610000000 1.0
C      1  0.5326060000000  0.5418990000000  0.4878810000000 1.0
C      1  0.5378550000000  0.5032640000000  0.5367530000000 1.0
C      1  0.4395280000000  0.3774570000000  0.5497220000000 1.0
C      1  0.5111950000000  0.4196860000000  0.5823660000000 1.0
C      1  0.5862790000000  0.3800580000000  0.6042330000000 1.0
C      1  0.5529970000000  0.5132430000000  0.5169580000000 1.0
C      1  0.4866450000000  0.4746600000000  0.5253530000000 1.0
C      1  0.3937640000000  0.5120490000000  0.5626250000000 1.0
C      1  0.5788420000000  0.4662950000000  0.5422380000000 1.0
C      1  0.5740600000000  0.4375800000000  0.4909030000000 1.0
C      1  0.4361560000000  0.5648540000000  0.4087720000000 1.0
C      1  0.4481940000000  0.4869830000000  0.4686340000000 1.0
C      1  0.5431280000000  0.5235710000000  0.4132630000000 1.0
C      1  0.5903660000000  0.6001910000000  0.4695620000000 1.0
C      1  0.4491610000000  0.6146550000000  0.5102400000000 1.0
C      1  0.5952010000000  0.5273150000000  0.3753510000000 1.0
C      1  0.4163990000000  0.4930230000000  0.4122080000000 1.0
C      1  0.5923150000000  0.4573700000000  0.4055660000000 1.0
C      1  0.4452520000000  0.4851980000000  0.6100670000000 1.0
C      1  0.4633340000000  0.5623820000000  0.4019710000000 1.0
C      1  0.4715330000000  0.5369720000000  0.5047030000000 1.0
C      1  0.4063930000000  0.4870370000000  0.5607720000000 1.0
C      1  0.6091340000000  0.4619970000000  0.4469770000000 1.0
C      1  0.4590940000000  0.5443820000000  0.5716290000000 1.0
C      1  0.4246370000000  0.5536790000000  0.6173560000000 1.0
C      1  0.5685010000000  0.5774420000000  0.4326890000000 1.0
C      1  0.4523330000000  0.3921760000000  0.4876200000000 1.0
C      1  0.4680040000000  0.4703980000000  0.4513090000000 1.0
C      1  0.5422240000000  0.6035140000000  0.4699680000000 1.0
C      1  0.3506460000000  0.5328560000000  0.5532930000000 1.0
C      1  0.5572120000000  0.5287150000000  0.4360170000000 1.0
C      1  0.4919260000000  0.4248080000000  0.4111690000000 1.0
C      1  0.4056240000000  0.5180620000000  0.4551040000000 1.0
C      1  0.5373720000000  0.4466100000000  0.4205520000000 1.0
C      1  0.5862280000000  0.4851530000000  0.4881310000000 1.0
C      1  0.5760090000000  0.5747230000000  0.3828570000000 1.0
C      1  0.5180380000000  0.5308520000000  0.5937470000000 1.0
C      1  0.5953690000000  0.4224530000000  0.4910700000000 1.0
C      1  0.5095300000000  0.4738700000000  0.5091500000000 1.0
C      1  0.5898540000000  0.4810820000000  0.5186600000000 1.0
C      1  0.4593690000000  0.5189060000000  0.5220030000000 1.0
C      1  0.5604600000000  0.4143530000000  0.5443630000000 1.0
C      1  0.6107320000000  0.4891940000000  0.4350960000000 1.0
C      1  0.5928770000000  0.4432520000000  0.4313610000000 1.0
C      1  0.5165290000000  0.4834230000000  0.4379150000000 1.0
C      1  0.5221840000000  0.5673340000000  0.4920200000000 1.0
C      1  0.4588530000000  0.6252820000000  0.4856910000000 1.0
C      1  0.5699900000000  0.3895160000000  0.5862240000000 1.0
C      1  0.5092120000000  0.3803840000000  0.5530270000000 1.0
C      1  0.5579640000000  0.5124080000000  0.4590660000000 1.0
C      1  0.4097080000000  0.5266980000000  0.4834980000000 1.0
C      1  0.4683080000000  0.4353230000000  0.4851340000000 1.0
C      1  0.5763860000000  0.5495700000000  0.4354360000000 1.0
C      1  0.6019150000000  0.4848000000000  0.4073980000000 1.0
C      1  0.4813480000000  0.4957990000000  0.4033590000000 1.0
C      1  0.5198830000000  0.4218240000000  0.5134990000000 1.0
C      1  0.5599680000000  0.4974440000000  0.5844210000000 1.0
C      1  0.5460470000000  0.6182020000000  0.4944380000000 1.0
C      1  0.4191920000000  0.5409290000000  0.4113270000000 1.0
C      1  0.5863950000000  0.5523330000000  0.3726100000000 1.0
C      1  0.5239070000000  0.3982560000000  0.5698820000000 1.0
C      1  0.5150260000000  0.4661460000000  0.5680320000000 1.0
C      1  0.6000520000000  0.5472740000000  0.5172510000000 1.0
C      1  0.5139260000000  0.3528810000000  0.5548460000000 1.0
C      1  0.3868100000000  0.4875730000000  0.5054120000000 1.0
C      1  0.4169520000000  0.5301020000000  0.6020460000000 1.0
C      1  0.5248740000000  0.4863380000000  0.5532400000000 1.0
C      1  0.4405310000000  0.4383910000000  0.4901480000000 1.0
C      1  0.5076020000000  0.5735280000000  0.5149630000000 1.0
C      1  0.5134430000000  0.4934640000000  0.4872350000000 1.0
C      1  0.4008560000000  0.4458700000000  0.5244030000000 1.0
C      1  0.4935170000000  0.4949320000000  0.6137520000000 1.0
C      1  0.5727400000000  0.4252350000000  0.4405830000000 1.0
C      1  0.5056860000000  0.5732460000000  0.5690440000000 1.0
C      1  0.5526130000000  0.5616530000000  0.5806310000000 1.0
C      1  0.6005810000000  0.5043340000000  0.3876740000000 1.0
C      1  0.4338910000000  0.5290190000000  0.5301680000000 1.0
C      1  0.4802160000000  0.5614500000000  0.5639630000000 1.0
C      1  0.4277090000000  0.5952710000000  0.5077630000000 1.0
C      1  0.4793260000000  0.4059460000000  0.4854910000000 1.0
C      1  0.4580190000000  0.4887090000000  0.3888500000000 1.0
C      1  0.4859440000000  0.4872770000000  0.4321910000000 1.0
C      1  0.4639500000000  0.5333370000000  0.6000460000000 1.0
C      1  0.5019210000000  0.4460020000000  0.5829640000000 1.0
C      1  0.5196690000000  0.4229920000000  0.4572230000000 1.0
C      1  0.4290570000000  0.4742290000000  0.5552280000000 1.0
C      1  0.4705400000000  0.6056140000000  0.5274530000000 1.0
C      1  0.3726200000000  0.5044750000000  0.5205210000000 1.0
C      1  0.6065670000000  0.5747240000000  0.5116740000000 1.0
C      1  0.4083940000000  0.4911240000000  0.4401980000000 1.0
C      1  0.4562710000000  0.5166410000000  0.4614660000000 1.0
C      1  0.5681180000000  0.5860960000000  0.4058570000000 1.0
C      1  0.4848900000000  0.6136470000000  0.5503680000000 1.0
C      1  0.5255970000000  0.4495770000000  0.5079090000000 1.0
C      1  0.4479830000000  0.4571600000000  0.5474970000000 1.0
C      1  0.5092680000000  0.6002580000000  0.5584740000000 1.0
C      1  0.6048250000000  0.5807500000000  0.4834770000000 1.0
C      1  0.4301000000000  0.4655010000000  0.4893530000000 1.0
C      1  0.4015840000000  0.4335180000000  0.5484940000000 1.0
C      1  0.4557910000000  0.4326950000000  0.5950710000000 1.0
C      1  0.4778210000000  0.4508130000000  0.5971720000000 1.0
C      1  0.4338940000000  0.5677010000000  0.5042670000000 1.0
C      1  0.4807690000000  0.4506530000000  0.4664980000000 1.0
C      1  0.4282860000000  0.4402340000000  0.5943650000000 1.0
C      1  0.5435750000000  0.4087580000000  0.5223940000000 1.0
C      1  0.4120130000000  0.4621940000000  0.4455370000000 1.0
C      1  0.5962590000000  0.5393570000000  0.5639320000000 1.0
C      1  0.5145080000000  0.4387900000000  0.4053260000000 1.0
C      1  0.5182290000000  0.3272910000000  0.5572300000000 1.0
C      1  0.5188900000000  0.5870780000000  0.4712980000000 1.0
C      1  0.4048410000000  0.5411690000000  0.4372330000000 1.0
C      1  0.4270710000000  0.4397480000000  0.4395900000000 1.0
C      1  0.6086730000000  0.5125580000000  0.4510830000000 1.0
C      1  0.5375170000000  0.5080630000000  0.5984280000000 1.0
C      1  0.4250140000000  0.4651700000000  0.6080390000000 1.0
C      1  0.4408650000000  0.5123910000000  0.6054250000000 1.0
C      1  0.4056260000000  0.5694750000000  0.4440360000000 1.0
C      1  0.6015230000000  0.5081690000000  0.4796480000000 1.0
C      1  0.5625530000000  0.4852980000000  0.4594280000000 1.0
C      1  0.5089020000000  0.4487030000000  0.4661200000000 1.0
C      1  0.4486510000000  0.4232560000000  0.4351920000000 1.0
C      1  0.5777470000000  0.5537200000000  0.5767160000000 1.0
C      1  0.5591230000000  0.5285940000000  0.4908560000000 1.0
C      1  0.5324040000000  0.6094490000000  0.5446740000000 1.0
C      1  0.4867670000000  0.5479180000000  0.4094380000000 1.0
C      1  0.4939470000000  0.4064750000000  0.4569110000000 1.0
C      1  0.5143810000000  0.5219370000000  0.4781670000000 1.0
C      1  0.4626850000000  0.3853220000000  0.5407070000000 1.0
C      1  0.5728170000000  0.4818010000000  0.5662070000000 1.0
C      1  0.4199710000000  0.5417780000000  0.5067710000000 1.0
C      1  0.5440410000000  0.4262430000000  0.4407280000000 1.0
C      1  0.4765240000000  0.4146150000000  0.4333530000000 1.0
C      1  0.6018220000000  0.5411250000000  0.4462690000000 1.0
C      1  0.4913780000000  0.5223770000000  0.6034570000000 1.0
C      1  0.4895270000000  0.3899640000000  0.5342680000000 1.0
C      1  0.4754680000000  0.4992040000000  0.5317210000000 1.0
C      1  0.5518480000000  0.4511350000000  0.4971190000000 1.0
C      1  0.4714730000000  0.4534350000000  0.5353290000000 1.0
C      1  0.5165220000000  0.4756730000000  0.4654730000000 1.0
C      1  0.4961270000000  0.5520250000000  0.4364250000000 1.0
C      1  0.6058300000000  0.5024470000000  0.5310510000000 1.0
C      1  0.4559350000000  0.5471050000000  0.4615140000000 1.0
C      1  0.4525790000000  0.5560820000000  0.6176780000000 1.0
C      1  0.4106460000000  0.4312690000000  0.5739420000000 1.0
C      1  0.4909550000000  0.5908360000000  0.4630260000000 1.0
C      1  0.4914100000000  0.5222870000000  0.3978180000000 1.0
C      1  0.6034880000000  0.5295700000000  0.5387620000000 1.0
C      1  0.6028300000000  0.5546370000000  0.4716070000000 1.0
C      1  0.5659240000000  0.5955240000000  0.4553150000000 1.0
C      1  0.4625730000000  0.5634300000000  0.5055260000000 1.0
C      1  0.4210570000000  0.5173620000000  0.3968550000000 1.0
C      1  0.5424280000000  0.4733280000000  0.4307270000000 1.0
C      1  0.4763040000000  0.6143160000000  0.4682390000000 1.0
C      1  0.5754110000000  0.4382650000000  0.5442740000000 1.0
C      1  0.4777000000000  0.5669640000000  0.4536120000000 1.0
C      1  0.4338450000000  0.5381180000000  0.5577390000000 1.0
C      1  0.5250890000000  0.5560740000000  0.5818140000000 1.0
C      1  0.5431430000000  0.6174820000000  0.5212670000000 1.0
C      1  0.5903150000000  0.5346770000000  0.4916110000000 1.0
END
