TITL C-627106-156-1148 0.829198160395846 125000 -277.590548753418 0 0 47 (C1) n - 1
REM
REM in /home/nfs/bkarasulu/CARBON/AIRSS/Generating-Clusters/LCBOP/Only-C1/SD-CG/FIRE-CG
REM
REM
REM
REM
REM
REM ./C.cell (11c1c37f851c82e70ff6c80c92926a4b)
REM AIRSS Version 0.9.1 bugfix July 2018 build 013d7b7c2542+ Fri, 06 Jul 2018 19:26:36 +0100
REM compiler GCC version 9.2.1 20190827 (Red Hat 9.2.1-1)
REM options -cpp -mtune=generic -march=x86-64 -g -O0 -fpre-include=/usr/include/finclude/math-vector-fortran.h
REM seed -937902204 990572962 1970496345 1699896655 -664672750 -631040874 -139034279 -366546761 894239853 772716365 -1699503404 767144713 1115089547 489685122 -109859236 195194518 -1816608943 353986490 1986832652 -682877907 998886598 -1530570010 1057255221 1215171810 2043510552 125232210 -182637173 493659370 -419717579 902270581 1586156819 -1443663036 -1076949071
REM
CELL 1.54180   50.00000   50.00000   50.00000   90.00000   90.00000   90.00000
LATT -1
SFAC C  
C      1  0.4165780000000  0.5311230000000  0.5465700000000 1.0
C      1  0.5385370000000  0.5196980000000  0.4317960000000 1.0
C      1  0.5417710000000  0.5171650000000  0.4895350000000 1.0
C      1  0.5573800000000  0.4744750000000  0.5184090000000 1.0
C      1  0.4925900000000  0.4714600000000  0.4410770000000 1.0
C      1  0.3861510000000  0.4767760000000  0.4939820000000 1.0
C      1  0.4040070000000  0.4702890000000  0.5118320000000 1.0
C      1  0.5236150000000  0.4975230000000  0.4174520000000 1.0
C      1  0.4959900000000  0.4968660000000  0.4266840000000 1.0
C      1  0.5404230000000  0.4504510000000  0.5226610000000 1.0
C      1  0.5264260000000  0.4364250000000  0.4577530000000 1.0
C      1  0.5788400000000  0.4462390000000  0.5487250000000 1.0
C      1  0.5160570000000  0.4355240000000  0.4837000000000 1.0
C      1  0.5019490000000  0.5430170000000  0.4952460000000 1.0
C      1  0.4638190000000  0.5424990000000  0.5237670000000 1.0
C      1  0.4421170000000  0.4667980000000  0.5734410000000 1.0
C      1  0.4635630000000  0.5163520000000  0.4789900000000 1.0
C      1  0.5215930000000  0.5327710000000  0.4777280000000 1.0
C      1  0.4692770000000  0.4529280000000  0.5363770000000 1.0
C      1  0.5177560000000  0.4565570000000  0.4396950000000 1.0
C      1  0.5808700000000  0.4703520000000  0.5351310000000 1.0
C      1  0.4618210000000  0.4881300000000  0.4784350000000 1.0
C      1  0.4230900000000  0.4649370000000  0.5294150000000 1.0
C      1  0.4447890000000  0.4615830000000  0.5467270000000 1.0
C      1  0.4395930000000  0.5354500000000  0.5351380000000 1.0
C      1  0.5522010000000  0.4965460000000  0.5025620000000 1.0
C      1  0.4741680000000  0.5934020000000  0.5779070000000 1.0
C      1  0.5511970000000  0.4237310000000  0.4527870000000 1.0
C      1  0.5046070000000  0.5626800000000  0.5161550000000 1.0
C      1  0.5181170000000  0.5312200000000  0.4493120000000 1.0
C      1  0.5160330000000  0.4440680000000  0.5103450000000 1.0
C      1  0.4820290000000  0.5627030000000  0.5340850000000 1.0
C      1  0.5820060000000  0.4582620000000  0.4382370000000 1.0
C      1  0.4785110000000  0.5786200000000  0.5563620000000 1.0
C      1  0.5646020000000  0.5077730000000  0.4358690000000 1.0
C      1  0.4696910000000  0.6081210000000  0.5994830000000 1.0
C      1  0.4678510000000  0.5277230000000  0.4532810000000 1.0
C      1  0.4652110000000  0.6228430000000  0.6210650000000 1.0
C      1  0.4916770000000  0.5222950000000  0.4397530000000 1.0
C      1  0.5549540000000  0.4339390000000  0.5417640000000 1.0
C      1  0.5371450000000  0.4723760000000  0.4245390000000 1.0
C      1  0.4608040000000  0.6373230000000  0.6422910000000 1.0
C      1  0.5645700000000  0.4791120000000  0.4319710000000 1.0
C      1  0.4920480000000  0.4468250000000  0.5243260000000 1.0
C      1  0.4751550000000  0.5312730000000  0.4997810000000 1.0
C      1  0.5755130000000  0.4333590000000  0.4463100000000 1.0
C      1  0.4733100000000  0.4704180000000  0.4615500000000 1.0
END
