TITL C-627107-135-2039 -1.17055298628018e-06 125000 -673.796615311297 0 0 112 (C1) n - 1
REM
REM in /home/nfs/bkarasulu/CARBON/AIRSS/Generating-Clusters/LCBOP/Only-C1/SD-CG/FIRE-CG
REM
REM
REM
REM
REM
REM ./C.cell (11c1c37f851c82e70ff6c80c92926a4b)
REM AIRSS Version 0.9.1 bugfix July 2018 build 013d7b7c2542+ Fri, 06 Jul 2018 19:26:36 +0100
REM compiler GCC version 9.2.1 20190827 (Red Hat 9.2.1-1)
REM options -cpp -mtune=generic -march=x86-64 -g -O0 -fpre-include=/usr/include/finclude/math-vector-fortran.h
REM seed -221819899 178068184 -1151009414 -1118151943 -2063334560 1359506611 581976643 471982961 -1835616706 523276446 -1706670284 -727546901 -1366462450 1070722077 -1882135216 779775683 272571522 -864486589 -422385159 1820631038 551789700 1713696635 -172299512 1169839863 232197040 1408277836 99614680 1878979914 -1518202755 -1245826925 -1347177225 1103112559 -814115819
REM
CELL 1.54180   50.00000   50.00000   50.00000   90.00000   90.00000   90.00000
LATT -1
SFAC C  
C      1  0.5296940000000  0.4277830000000  0.4035520000000 1.0
C      1  0.5168420000000  0.4579080000000  0.4570170000000 1.0
C      1  0.4732200000000  0.5338500000000  0.5073760000000 1.0
C      1  0.5036450000000  0.4216420000000  0.4021230000000 1.0
C      1  0.4946560000000  0.4606620000000  0.5823890000000 1.0
C      1  0.5526960000000  0.4388890000000  0.4116830000000 1.0
C      1  0.5306000000000  0.3931610000000  0.5351460000000 1.0
C      1  0.5609950000000  0.4422130000000  0.5273510000000 1.0
C      1  0.5072210000000  0.4110820000000  0.4575740000000 1.0
C      1  0.4634850000000  0.5459510000000  0.5303940000000 1.0
C      1  0.4755550000000  0.5479000000000  0.5840340000000 1.0
C      1  0.5631600000000  0.5386160000000  0.5084210000000 1.0
C      1  0.4773570000000  0.4225040000000  0.4074520000000 1.0
C      1  0.4430350000000  0.4853870000000  0.5564300000000 1.0
C      1  0.4905360000000  0.4618070000000  0.4480850000000 1.0
C      1  0.5613370000000  0.5322000000000  0.4224510000000 1.0
C      1  0.4282560000000  0.4744590000000  0.4653460000000 1.0
C      1  0.5713000000000  0.4775650000000  0.4912940000000 1.0
C      1  0.5363020000000  0.5268160000000  0.4635120000000 1.0
C      1  0.5057200000000  0.5922750000000  0.5764460000000 1.0
C      1  0.4933660000000  0.5656130000000  0.5674040000000 1.0
C      1  0.4956850000000  0.5524360000000  0.4010390000000 1.0
C      1  0.4581830000000  0.5298880000000  0.4264820000000 1.0
C      1  0.4370660000000  0.5386600000000  0.5358270000000 1.0
C      1  0.5334460000000  0.5014000000000  0.5102740000000 1.0
C      1  0.4943180000000  0.6068830000000  0.4764350000000 1.0
C      1  0.4553350000000  0.4357250000000  0.4158410000000 1.0
C      1  0.5259390000000  0.6191330000000  0.5192760000000 1.0
C      1  0.4759570000000  0.6228940000000  0.4640110000000 1.0
C      1  0.4700630000000  0.4179040000000  0.5176760000000 1.0
C      1  0.5333040000000  0.5950400000000  0.5657670000000 1.0
C      1  0.4862200000000  0.4738830000000  0.6055650000000 1.0
C      1  0.5278890000000  0.4816280000000  0.4672410000000 1.0
C      1  0.5750020000000  0.4691350000000  0.5200680000000 1.0
C      1  0.5204680000000  0.5577040000000  0.4104150000000 1.0
C      1  0.4707550000000  0.5419290000000  0.4039430000000 1.0
C      1  0.4330080000000  0.4529520000000  0.4935630000000 1.0
C      1  0.5797380000000  0.4921190000000  0.5396980000000 1.0
C      1  0.5154610000000  0.4904160000000  0.3929300000000 1.0
C      1  0.5730270000000  0.4817500000000  0.4366670000000 1.0
C      1  0.4364920000000  0.4798850000000  0.4370040000000 1.0
C      1  0.5396590000000  0.4946310000000  0.4033280000000 1.0
C      1  0.4782190000000  0.5701040000000  0.5404430000000 1.0
C      1  0.5342740000000  0.5312130000000  0.5165150000000 1.0
C      1  0.4750240000000  0.5339250000000  0.4496190000000 1.0
C      1  0.4139420000000  0.4968800000000  0.4775840000000 1.0
C      1  0.5848500000000  0.5527470000000  0.5155820000000 1.0
C      1  0.5689590000000  0.4562400000000  0.4241430000000 1.0
C      1  0.4903960000000  0.5105520000000  0.4549740000000 1.0
C      1  0.5430140000000  0.4495960000000  0.5763330000000 1.0
C      1  0.4672780000000  0.4091400000000  0.5446670000000 1.0
C      1  0.5703790000000  0.5525700000000  0.5603010000000 1.0
C      1  0.5823630000000  0.4805120000000  0.4644740000000 1.0
C      1  0.4893540000000  0.4690940000000  0.5558800000000 1.0
C      1  0.5419990000000  0.5531190000000  0.4285050000000 1.0
C      1  0.5214520000000  0.5669030000000  0.4773390000000 1.0
C      1  0.4509060000000  0.4285560000000  0.4964730000000 1.0
C      1  0.4438950000000  0.5060170000000  0.5759300000000 1.0
C      1  0.5244750000000  0.4096590000000  0.5132870000000 1.0
C      1  0.5109840000000  0.6173400000000  0.4970290000000 1.0
C      1  0.5215460000000  0.5057970000000  0.6126030000000 1.0
C      1  0.5098850000000  0.4640460000000  0.5368410000000 1.0
C      1  0.5602410000000  0.5035550000000  0.4211760000000 1.0
C      1  0.4228810000000  0.4699710000000  0.5435470000000 1.0
C      1  0.4059520000000  0.4923070000000  0.5049120000000 1.0
C      1  0.5357600000000  0.6122380000000  0.5433660000000 1.0
C      1  0.5529640000000  0.4329530000000  0.5545620000000 1.0
C      1  0.5263700000000  0.4316680000000  0.4611130000000 1.0
C      1  0.4579850000000  0.4150640000000  0.4719540000000 1.0
C      1  0.4490740000000  0.4632300000000  0.4166150000000 1.0
C      1  0.4786600000000  0.5604920000000  0.4589630000000 1.0
C      1  0.4648240000000  0.4778280000000  0.3975060000000 1.0
C      1  0.4156860000000  0.5243820000000  0.4712510000000 1.0
C      1  0.5441080000000  0.4861460000000  0.4893950000000 1.0
C      1  0.5363810000000  0.5540320000000  0.4569900000000 1.0
C      1  0.5268910000000  0.5285970000000  0.5475260000000 1.0
C      1  0.4170600000000  0.5451390000000  0.4886450000000 1.0
C      1  0.4669050000000  0.5091020000000  0.5008770000000 1.0
C      1  0.5112310000000  0.4152160000000  0.5737700000000 1.0
C      1  0.4691610000000  0.4853490000000  0.5144110000000 1.0
C      1  0.5450470000000  0.5677460000000  0.5652630000000 1.0
C      1  0.4182350000000  0.4681740000000  0.5153870000000 1.0
C      1  0.5204720000000  0.5516730000000  0.5611000000000 1.0
C      1  0.4782260000000  0.4855250000000  0.4508310000000 1.0
C      1  0.5490840000000  0.4286750000000  0.4776520000000 1.0
C      1  0.5194210000000  0.5563520000000  0.5045770000000 1.0
C      1  0.5889110000000  0.5605660000000  0.5411400000000 1.0
C      1  0.4558430000000  0.5906430000000  0.5401630000000 1.0
C      1  0.5699360000000  0.5147090000000  0.5560430000000 1.0
C      1  0.5354620000000  0.4082550000000  0.5583970000000 1.0
C      1  0.5475490000000  0.4263160000000  0.5056700000000 1.0
C      1  0.4990590000000  0.4929360000000  0.6195240000000 1.0
C      1  0.4290620000000  0.5899220000000  0.5347440000000 1.0
C      1  0.5266910000000  0.4851740000000  0.5320610000000 1.0
C      1  0.4988260000000  0.4225680000000  0.5119590000000 1.0
C      1  0.4126110000000  0.5439080000000  0.5190120000000 1.0
C      1  0.4852710000000  0.4073890000000  0.5650630000000 1.0
C      1  0.5177770000000  0.5070200000000  0.4594840000000 1.0
C      1  0.4971580000000  0.5794620000000  0.4690450000000 1.0
C      1  0.4675580000000  0.4817090000000  0.5430960000000 1.0
C      1  0.3986390000000  0.5159890000000  0.5202530000000 1.0
C      1  0.5159980000000  0.4419870000000  0.5842060000000 1.0
C      1  0.5013450000000  0.4505650000000  0.5136010000000 1.0
C      1  0.5434500000000  0.5118730000000  0.5642190000000 1.0
C      1  0.4808950000000  0.4064900000000  0.4606370000000 1.0
C      1  0.5370860000000  0.5074680000000  0.5910160000000 1.0
C      1  0.4392950000000  0.5084330000000  0.4293110000000 1.0
C      1  0.5013480000000  0.5711660000000  0.5209120000000 1.0
C      1  0.4893560000000  0.4856170000000  0.3901730000000 1.0
C      1  0.4086690000000  0.5732220000000  0.5268890000000 1.0
C      1  0.4579330000000  0.5273690000000  0.5850010000000 1.0
C      1  0.4824680000000  0.4655400000000  0.4999470000000 1.0
END
