TITL C-627106-156-1255 0.460686550665125 125000 -230.111434194999 0 0 39 (C1) n - 1
REM
REM in /home/nfs/bkarasulu/CARBON/AIRSS/Generating-Clusters/LCBOP/Only-C1/SD-CG/FIRE-CG
REM
REM
REM
REM
REM
REM ./C.cell (11c1c37f851c82e70ff6c80c92926a4b)
REM AIRSS Version 0.9.1 bugfix July 2018 build 013d7b7c2542+ Fri, 06 Jul 2018 19:26:36 +0100
REM compiler GCC version 9.2.1 20190827 (Red Hat 9.2.1-1)
REM options -cpp -mtune=generic -march=x86-64 -g -O0 -fpre-include=/usr/include/finclude/math-vector-fortran.h
REM seed -1329461600 -627880413 -1191314820 377692008 -1967853202 -868255515 -459939957 449133861 -1155736540 -1284471332 1631328051 395486812 1595743182 -868142209 -1489384465 -465742720 -1069537161 -723350170 1186277917 693671159 -2145451181 -518796864 -1871554249 2083151133 -1418899202 342638791 1334854075 -1142083377 1712457941 2060928146 768259588 1155367746 651550263
REM
CELL 1.54180   50.00000   50.00000   50.00000   90.00000   90.00000   90.00000
LATT -1
SFAC C  
C      1  0.5167820000000  0.5887490000000  0.4402140000000 1.0
C      1  0.5835660000000  0.5114990000000  0.6080230000000 1.0
C      1  0.4656670000000  0.4657200000000  0.4769130000000 1.0
C      1  0.5650310000000  0.5112790000000  0.5890930000000 1.0
C      1  0.6018060000000  0.5117160000000  0.6266490000000 1.0
C      1  0.5992110000000  0.4315410000000  0.3956980000000 1.0
C      1  0.5455010000000  0.5110590000000  0.5691320000000 1.0
C      1  0.5300020000000  0.5657970000000  0.4809330000000 1.0
C      1  0.5415740000000  0.5556580000000  0.5025310000000 1.0
C      1  0.4887790000000  0.4591170000000  0.4626650000000 1.0
C      1  0.4216160000000  0.4119080000000  0.5091670000000 1.0
C      1  0.5481250000000  0.5276850000000  0.5468130000000 1.0
C      1  0.4696470000000  0.5146440000000  0.4751620000000 1.0
C      1  0.5552380000000  0.4424840000000  0.4223610000000 1.0
C      1  0.4544280000000  0.4938910000000  0.5164730000000 1.0
C      1  0.4371910000000  0.5155540000000  0.5219970000000 1.0
C      1  0.5109120000000  0.4535160000000  0.4492390000000 1.0
C      1  0.5774070000000  0.4369670000000  0.4089190000000 1.0
C      1  0.5333450000000  0.6379400000000  0.3805720000000 1.0
C      1  0.4508140000000  0.4242670000000  0.5722410000000 1.0
C      1  0.4337640000000  0.5402920000000  0.5120230000000 1.0
C      1  0.5233170000000  0.4942150000000  0.5714550000000 1.0
C      1  0.5011540000000  0.4799020000000  0.5690040000000 1.0
C      1  0.4775930000000  0.4680820000000  0.5598330000000 1.0
C      1  0.4858490000000  0.5591890000000  0.4631900000000 1.0
C      1  0.5330740000000  0.4479990000000  0.4358000000000 1.0
C      1  0.4666530000000  0.4456320000000  0.5724410000000 1.0
C      1  0.5472150000000  0.5425250000000  0.5248700000000 1.0
C      1  0.4636160000000  0.4910880000000  0.4894320000000 1.0
C      1  0.5223310000000  0.6052290000000  0.4202330000000 1.0
C      1  0.5109290000000  0.5714070000000  0.4612460000000 1.0
C      1  0.4648270000000  0.4783840000000  0.5371460000000 1.0
C      1  0.4342560000000  0.4086840000000  0.5583870000000 1.0
C      1  0.4449210000000  0.4470940000000  0.4791420000000 1.0
C      1  0.4667960000000  0.5426990000000  0.4749240000000 1.0
C      1  0.4231250000000  0.4042240000000  0.5346050000000 1.0
C      1  0.4462870000000  0.5526580000000  0.4916110000000 1.0
C      1  0.4297700000000  0.4279840000000  0.4896270000000 1.0
C      1  0.5278840000000  0.6217200000000  0.4002380000000 1.0
END
