TITL C-627112-676-1214 3.00921343580117e-07 125000 -996.490048242264 0 0 162 (C1) n - 1
REM
REM in /home/nfs/bkarasulu/CARBON/AIRSS/Generating-Clusters/LCBOP/Only-C1/SD-CG/FIRE-CG
REM
REM
REM
REM
REM
REM ./C.cell (11c1c37f851c82e70ff6c80c92926a4b)
REM AIRSS Version 0.9.1 bugfix July 2018 build 013d7b7c2542+ Fri, 06 Jul 2018 19:26:36 +0100
REM compiler GCC version 9.2.1 20190827 (Red Hat 9.2.1-1)
REM options -cpp -mtune=generic -march=x86-64 -g -O0 -fpre-include=/usr/include/finclude/math-vector-fortran.h
REM seed 776873613 -262132680 313399645 -1777322926 -1423518685 201354245 -1922519990 -337334505 -170753152 86803063 -313237378 -2043016510 1043270766 147554471 -2025976124 -2129263755 -1573851279 1702580491 1785303811 -548824320 81967419 724284147 -132914278 1583683938 1227244409 -1456177449 333824871 -1887222805 1014481115 1643591791 500252270 1405559267 -1995950347
REM
CELL 1.54180   50.00000   50.00000   50.00000   90.00000   90.00000   90.00000
LATT -1
SFAC C  
C      1  0.4400340000000  0.4764320000000  0.4942470000000 1.0
C      1  0.4093330000000  0.5159040000000  0.5751020000000 1.0
C      1  0.6122290000000  0.5055280000000  0.4714020000000 1.0
C      1  0.4713610000000  0.5334090000000  0.4868670000000 1.0
C      1  0.4671170000000  0.4037660000000  0.5529560000000 1.0
C      1  0.4906790000000  0.4913110000000  0.5344940000000 1.0
C      1  0.5844610000000  0.5031320000000  0.5687590000000 1.0
C      1  0.4257870000000  0.5176890000000  0.5238120000000 1.0
C      1  0.4756240000000  0.4877000000000  0.4652260000000 1.0
C      1  0.4494100000000  0.6281210000000  0.5272870000000 1.0
C      1  0.4977430000000  0.6149930000000  0.5992280000000 1.0
C      1  0.4760830000000  0.4818910000000  0.5545300000000 1.0
C      1  0.4184290000000  0.5846550000000  0.4701520000000 1.0
C      1  0.4489070000000  0.3966840000000  0.5324400000000 1.0
C      1  0.3784530000000  0.5872740000000  0.5009280000000 1.0
C      1  0.5329200000000  0.4096730000000  0.5740780000000 1.0
C      1  0.4255800000000  0.4919310000000  0.5372900000000 1.0
C      1  0.5047190000000  0.4844220000000  0.5917010000000 1.0
C      1  0.5592540000000  0.5605940000000  0.5371740000000 1.0
C      1  0.4209110000000  0.5388050000000  0.5657820000000 1.0
C      1  0.5218630000000  0.5355190000000  0.5616260000000 1.0
C      1  0.4344490000000  0.5390180000000  0.4495900000000 1.0
C      1  0.5392200000000  0.5163240000000  0.5737830000000 1.0
C      1  0.3858800000000  0.5492460000000  0.4738360000000 1.0
C      1  0.3921520000000  0.5769520000000  0.4780790000000 1.0
C      1  0.4527530000000  0.5612600000000  0.5347040000000 1.0
C      1  0.5264830000000  0.4275190000000  0.5950560000000 1.0
C      1  0.5828890000000  0.4091450000000  0.4135100000000 1.0
C      1  0.5571550000000  0.4686500000000  0.4996960000000 1.0
C      1  0.5671480000000  0.5552490000000  0.5811990000000 1.0
C      1  0.3877300000000  0.4385000000000  0.4966210000000 1.0
C      1  0.5920120000000  0.4267710000000  0.5110240000000 1.0
C      1  0.4496540000000  0.4137910000000  0.4873530000000 1.0
C      1  0.4632120000000  0.4456730000000  0.3932170000000 1.0
C      1  0.4378320000000  0.4153890000000  0.5136480000000 1.0
C      1  0.5142210000000  0.5123600000000  0.4777740000000 1.0
C      1  0.5199370000000  0.5601460000000  0.3922780000000 1.0
C      1  0.4635880000000  0.4173230000000  0.4390970000000 1.0
C      1  0.4342130000000  0.4377170000000  0.5594590000000 1.0
C      1  0.4332330000000  0.4693130000000  0.5210650000000 1.0
C      1  0.5669380000000  0.5262240000000  0.5741390000000 1.0
C      1  0.5193430000000  0.4042220000000  0.5499150000000 1.0
C      1  0.5785870000000  0.4828790000000  0.5887850000000 1.0
C      1  0.5746660000000  0.4371170000000  0.5550450000000 1.0
C      1  0.5333500000000  0.4433470000000  0.3929590000000 1.0
C      1  0.5792020000000  0.5729120000000  0.5239280000000 1.0
C      1  0.5169750000000  0.4154970000000  0.4293460000000 1.0
C      1  0.3729150000000  0.5431770000000  0.5187190000000 1.0
C      1  0.5196690000000  0.5791370000000  0.4779460000000 1.0
C      1  0.4778430000000  0.6061260000000  0.6148500000000 1.0
C      1  0.4972400000000  0.4055610000000  0.4730330000000 1.0
C      1  0.5238350000000  0.5422640000000  0.5124270000000 1.0
C      1  0.5085650000000  0.4515120000000  0.4958810000000 1.0
C      1  0.5228730000000  0.5647060000000  0.5978080000000 1.0
C      1  0.5703460000000  0.5338150000000  0.4868440000000 1.0
C      1  0.4932580000000  0.3942210000000  0.5523370000000 1.0
C      1  0.5087090000000  0.6094840000000  0.5739860000000 1.0
C      1  0.5967510000000  0.4390250000000  0.5373640000000 1.0
C      1  0.4821800000000  0.5568320000000  0.4979150000000 1.0
C      1  0.4600090000000  0.4278000000000  0.5670710000000 1.0
C      1  0.5379500000000  0.5707400000000  0.4091670000000 1.0
C      1  0.5654740000000  0.5144300000000  0.5059130000000 1.0
C      1  0.5335120000000  0.5483950000000  0.5381190000000 1.0
C      1  0.5472120000000  0.4687950000000  0.4730410000000 1.0
C      1  0.5282200000000  0.5137920000000  0.5049590000000 1.0
C      1  0.4905640000000  0.6094390000000  0.5513030000000 1.0
C      1  0.4621170000000  0.5604220000000  0.6039320000000 1.0
C      1  0.4135510000000  0.4392620000000  0.6047580000000 1.0
C      1  0.4857460000000  0.5115120000000  0.4762790000000 1.0
C      1  0.5963980000000  0.4382590000000  0.4624680000000 1.0
C      1  0.5945120000000  0.4780280000000  0.4345690000000 1.0
C      1  0.4101800000000  0.5159740000000  0.4997950000000 1.0
C      1  0.5420070000000  0.5076660000000  0.4339680000000 1.0
C      1  0.4151600000000  0.4968720000000  0.3630790000000 1.0
C      1  0.5396940000000  0.4294430000000  0.4172020000000 1.0
C      1  0.4978970000000  0.5481530000000  0.3828630000000 1.0
C      1  0.4406950000000  0.5012520000000  0.3658970000000 1.0
C      1  0.5684490000000  0.4306790000000  0.4238320000000 1.0
C      1  0.4579700000000  0.4299130000000  0.4142190000000 1.0
C      1  0.5181930000000  0.5843070000000  0.4504030000000 1.0
C      1  0.4756990000000  0.5721390000000  0.5211760000000 1.0
C      1  0.4954920000000  0.5941150000000  0.4388160000000 1.0
C      1  0.3973260000000  0.4661630000000  0.5662830000000 1.0
C      1  0.5459370000000  0.5761660000000  0.5847840000000 1.0
C      1  0.4647170000000  0.4688670000000  0.4835240000000 1.0
C      1  0.5527560000000  0.4838780000000  0.4498280000000 1.0
C      1  0.5224170000000  0.4435270000000  0.5187800000000 1.0
C      1  0.5449810000000  0.4596530000000  0.5240050000000 1.0
C      1  0.5097400000000  0.5583330000000  0.4936790000000 1.0
C      1  0.4867240000000  0.4835620000000  0.3684260000000 1.0
C      1  0.4843130000000  0.4563500000000  0.3779910000000 1.0
C      1  0.5946940000000  0.4924570000000  0.5432500000000 1.0
C      1  0.4201520000000  0.4954520000000  0.4790990000000 1.0
C      1  0.5854340000000  0.4499410000000  0.4387490000000 1.0
C      1  0.5360740000000  0.5995220000000  0.5690540000000 1.0
C      1  0.4160570000000  0.4300000000000  0.4571240000000 1.0
C      1  0.4675490000000  0.6249680000000  0.5468010000000 1.0
C      1  0.4771800000000  0.4195390000000  0.4885870000000 1.0
C      1  0.4333490000000  0.5408360000000  0.5400180000000 1.0
C      1  0.5523510000000  0.4744670000000  0.5961920000000 1.0
C      1  0.6039480000000  0.4411060000000  0.4892800000000 1.0
C      1  0.5887510000000  0.5016280000000  0.5163760000000 1.0
C      1  0.4305800000000  0.5134920000000  0.4571490000000 1.0
C      1  0.4150540000000  0.4472670000000  0.5782700000000 1.0
C      1  0.4785280000000  0.4427260000000  0.5834790000000 1.0
C      1  0.4307770000000  0.6061860000000  0.4831950000000 1.0
C      1  0.5262520000000  0.5991630000000  0.5194260000000 1.0
C      1  0.5314470000000  0.4929100000000  0.5883770000000 1.0
C      1  0.5881910000000  0.5303920000000  0.4367620000000 1.0
C      1  0.4985100000000  0.4302650000000  0.5992830000000 1.0
C      1  0.5320740000000  0.4914260000000  0.3872780000000 1.0
C      1  0.4095830000000  0.4912450000000  0.5612040000000 1.0
C      1  0.5070300000000  0.4580950000000  0.4480370000000 1.0
C      1  0.5228250000000  0.5006540000000  0.4126280000000 1.0
C      1  0.4814030000000  0.4473210000000  0.4927870000000 1.0
C      1  0.4136260000000  0.4317060000000  0.6296980000000 1.0
C      1  0.3954470000000  0.4408430000000  0.5237770000000 1.0
C      1  0.4790780000000  0.5466670000000  0.5883360000000 1.0
C      1  0.5267680000000  0.4161540000000  0.5254880000000 1.0
C      1  0.5084850000000  0.4411730000000  0.3796920000000 1.0
C      1  0.4974770000000  0.5925100000000  0.5285490000000 1.0
C      1  0.4679330000000  0.5050100000000  0.3700330000000 1.0
C      1  0.4385280000000  0.6211260000000  0.5039110000000 1.0
C      1  0.5228740000000  0.3969370000000  0.4830460000000 1.0
C      1  0.5142670000000  0.4968010000000  0.5236730000000 1.0
C      1  0.6080110000000  0.4925670000000  0.4960110000000 1.0
C      1  0.5644070000000  0.5240270000000  0.4224740000000 1.0
C      1  0.5381740000000  0.5950020000000  0.4927580000000 1.0
C      1  0.4004230000000  0.4752930000000  0.4683960000000 1.0
C      1  0.4887180000000  0.4784930000000  0.4419900000000 1.0
C      1  0.4258820000000  0.4398780000000  0.5283670000000 1.0
C      1  0.3985740000000  0.4470800000000  0.4717620000000 1.0
C      1  0.5877460000000  0.5565930000000  0.4516710000000 1.0
C      1  0.5059790000000  0.5485830000000  0.5813720000000 1.0
C      1  0.5412330000000  0.4032380000000  0.5042890000000 1.0
C      1  0.3870720000000  0.5319200000000  0.4964970000000 1.0
C      1  0.4787910000000  0.5305810000000  0.3761310000000 1.0
C      1  0.6072900000000  0.4658770000000  0.5427860000000 1.0
C      1  0.6012040000000  0.5051630000000  0.4452860000000 1.0
C      1  0.4964220000000  0.4953760000000  0.4210950000000 1.0
C      1  0.5301850000000  0.5227750000000  0.4568630000000 1.0
C      1  0.5550170000000  0.4548570000000  0.5495400000000 1.0
C      1  0.5847580000000  0.5771520000000  0.4966420000000 1.0
C      1  0.4835660000000  0.4705590000000  0.5788760000000 1.0
C      1  0.4925400000000  0.4102630000000  0.4447300000000 1.0
C      1  0.5424960000000  0.5796840000000  0.4355380000000 1.0
C      1  0.5648200000000  0.5915020000000  0.4802910000000 1.0
C      1  0.5471400000000  0.4675500000000  0.3877460000000 1.0
C      1  0.5670270000000  0.5797490000000  0.4514550000000 1.0
C      1  0.5136220000000  0.4928220000000  0.3659670000000 1.0
C      1  0.6163000000000  0.4655760000000  0.4959210000000 1.0
C      1  0.4621120000000  0.5844130000000  0.6159640000000 1.0
C      1  0.4321660000000  0.5653560000000  0.4545840000000 1.0
C      1  0.5221610000000  0.4561570000000  0.4715210000000 1.0
C      1  0.5909060000000  0.5532050000000  0.4814720000000 1.0
C      1  0.3819980000000  0.4543930000000  0.5450650000000 1.0
C      1  0.5493320000000  0.5388330000000  0.4688870000000 1.0
C      1  0.5443050000000  0.4481360000000  0.6026950000000 1.0
C      1  0.5696690000000  0.4088600000000  0.5051720000000 1.0
C      1  0.5432820000000  0.6049930000000  0.5420050000000 1.0
C      1  0.4414890000000  0.4174960000000  0.4597430000000 1.0
C      1  0.3693930000000  0.5702890000000  0.5204040000000 1.0
END
