TITL C-627112-676-1172 0.000215259832538992 125000 -981.673021153316 0 0 158 (C1) n - 1
REM
REM in /home/nfs/bkarasulu/CARBON/AIRSS/Generating-Clusters/LCBOP/Only-C1/SD-CG/FIRE-CG
REM
REM
REM
REM
REM
REM ./C.cell (11c1c37f851c82e70ff6c80c92926a4b)
REM AIRSS Version 0.9.1 bugfix July 2018 build 013d7b7c2542+ Fri, 06 Jul 2018 19:26:36 +0100
REM compiler GCC version 9.2.1 20190827 (Red Hat 9.2.1-1)
REM options -cpp -mtune=generic -march=x86-64 -g -O0 -fpre-include=/usr/include/finclude/math-vector-fortran.h
REM seed 801362421 1279437697 1142709790 -838998212 -1656910490 1401567856 1490579496 1381041646 -1114069795 1701274452 1614960543 -2123590959 1278362461 18366573 -1672058654 588575817 -1108529685 704157233 -505855105 -1253351356 -1459731172 1115691019 -1166382646 -772232167 1108936573 379035235 -1690473812 2063698408 -956412736 -579540618 -1490328391 -1652022726 1495870264
REM
CELL 1.54180   50.00000   50.00000   50.00000   90.00000   90.00000   90.00000
LATT -1
SFAC C  
C      1  0.5169820000000  0.4343940000000  0.5141730000000 1.0
C      1  0.6161820000000  0.5219730000000  0.5312560000000 1.0
C      1  0.4877370000000  0.5143800000000  0.5041270000000 1.0
C      1  0.4586600000000  0.5530080000000  0.4266920000000 1.0
C      1  0.4839480000000  0.3677640000000  0.5216680000000 1.0
C      1  0.6209370000000  0.4800980000000  0.4655330000000 1.0
C      1  0.3932020000000  0.4794930000000  0.5405510000000 1.0
C      1  0.5220170000000  0.4109370000000  0.4306350000000 1.0
C      1  0.4458030000000  0.5089960000000  0.5564740000000 1.0
C      1  0.5812380000000  0.5703640000000  0.5020580000000 1.0
C      1  0.5247910000000  0.4374180000000  0.4177570000000 1.0
C      1  0.5652140000000  0.5959320000000  0.4388140000000 1.0
C      1  0.4443640000000  0.4578730000000  0.4934920000000 1.0
C      1  0.4953910000000  0.4815420000000  0.3943290000000 1.0
C      1  0.4348800000000  0.4451160000000  0.3889700000000 1.0
C      1  0.5143360000000  0.5818680000000  0.6282570000000 1.0
C      1  0.5031670000000  0.4985690000000  0.5510710000000 1.0
C      1  0.4911670000000  0.6564810000000  0.6064210000000 1.0
C      1  0.3903110000000  0.5413900000000  0.5069150000000 1.0
C      1  0.3889270000000  0.5202070000000  0.4620130000000 1.0
C      1  0.5377730000000  0.4103970000000  0.4774900000000 1.0
C      1  0.4690980000000  0.4935740000000  0.3976380000000 1.0
C      1  0.5443600000000  0.4752570000000  0.5566420000000 1.0
C      1  0.4535490000000  0.4362420000000  0.5668990000000 1.0
C      1  0.4770120000000  0.5414110000000  0.4912340000000 1.0
C      1  0.4834460000000  0.4902830000000  0.4556100000000 1.0
C      1  0.4409790000000  0.4836940000000  0.5412300000000 1.0
C      1  0.4672440000000  0.4508770000000  0.4768680000000 1.0
C      1  0.4691990000000  0.3788040000000  0.4750550000000 1.0
C      1  0.5372390000000  0.6579340000000  0.5838190000000 1.0
C      1  0.5720400000000  0.4774470000000  0.5504860000000 1.0
C      1  0.5512260000000  0.3983960000000  0.4995120000000 1.0
C      1  0.3992620000000  0.4820740000000  0.4330490000000 1.0
C      1  0.5369590000000  0.4306360000000  0.5337020000000 1.0
C      1  0.5448540000000  0.5228130000000  0.4546850000000 1.0
C      1  0.5556500000000  0.5055090000000  0.6047120000000 1.0
C      1  0.5317690000000  0.4481430000000  0.5567230000000 1.0
C      1  0.5835090000000  0.4470710000000  0.4557820000000 1.0
C      1  0.4467960000000  0.4180450000000  0.4529530000000 1.0
C      1  0.6097710000000  0.5079510000000  0.5554010000000 1.0
C      1  0.5223890000000  0.4670360000000  0.4588840000000 1.0
C      1  0.4327300000000  0.5090740000000  0.4925290000000 1.0
C      1  0.4298210000000  0.4391040000000  0.5497820000000 1.0
C      1  0.6151610000000  0.5501310000000  0.5309760000000 1.0
C      1  0.5809030000000  0.4553050000000  0.5045490000000 1.0
C      1  0.5562020000000  0.4104230000000  0.5254650000000 1.0
C      1  0.5729060000000  0.5924480000000  0.5647180000000 1.0
C      1  0.4824870000000  0.4677930000000  0.5165380000000 1.0
C      1  0.4249720000000  0.4390890000000  0.4535870000000 1.0
C      1  0.5154990000000  0.4255720000000  0.4870210000000 1.0
C      1  0.6087430000000  0.4594990000000  0.4528300000000 1.0
C      1  0.5461240000000  0.5387620000000  0.5040330000000 1.0
C      1  0.5918480000000  0.5659410000000  0.5282670000000 1.0
C      1  0.3971400000000  0.4394130000000  0.4924810000000 1.0
C      1  0.5021690000000  0.5573720000000  0.5261180000000 1.0
C      1  0.4332990000000  0.4612030000000  0.4108110000000 1.0
C      1  0.4803020000000  0.4360910000000  0.5729700000000 1.0
C      1  0.4956340000000  0.4873060000000  0.4989850000000 1.0
C      1  0.5611900000000  0.5447800000000  0.5610260000000 1.0
C      1  0.5561300000000  0.6409730000000  0.5760310000000 1.0
C      1  0.4697830000000  0.5124520000000  0.4470130000000 1.0
C      1  0.4766430000000  0.5392470000000  0.4433680000000 1.0
C      1  0.5270650000000  0.5583300000000  0.6240670000000 1.0
C      1  0.4858000000000  0.5359870000000  0.6101950000000 1.0
C      1  0.4696540000000  0.4654120000000  0.4526960000000 1.0
C      1  0.4203260000000  0.4479770000000  0.4809790000000 1.0
C      1  0.6207070000000  0.4986960000000  0.4850760000000 1.0
C      1  0.3875860000000  0.5297150000000  0.5310070000000 1.0
C      1  0.4463550000000  0.5136570000000  0.5850260000000 1.0
C      1  0.4710970000000  0.5136450000000  0.5998920000000 1.0
C      1  0.4081520000000  0.5595890000000  0.4257240000000 1.0
C      1  0.5813470000000  0.4970380000000  0.5956480000000 1.0
C      1  0.4000720000000  0.5404680000000  0.4802180000000 1.0
C      1  0.5678800000000  0.6177940000000  0.5706640000000 1.0
C      1  0.4151450000000  0.4571470000000  0.4325910000000 1.0
C      1  0.4182150000000  0.4664580000000  0.5473770000000 1.0
C      1  0.5696330000000  0.4996760000000  0.4120560000000 1.0
C      1  0.5150020000000  0.5342900000000  0.6152940000000 1.0
C      1  0.5240670000000  0.5284980000000  0.4362290000000 1.0
C      1  0.5487130000000  0.4795810000000  0.4087320000000 1.0
C      1  0.5136830000000  0.6640990000000  0.5944780000000 1.0
C      1  0.5795260000000  0.5243940000000  0.4188000000000 1.0
C      1  0.3766160000000  0.4723750000000  0.5186560000000 1.0
C      1  0.3688010000000  0.4834530000000  0.4953070000000 1.0
C      1  0.5287670000000  0.5092530000000  0.6128320000000 1.0
C      1  0.6068810000000  0.5095970000000  0.5071530000000 1.0
C      1  0.5174760000000  0.5195150000000  0.4095400000000 1.0
C      1  0.5955690000000  0.4335300000000  0.5148520000000 1.0
C      1  0.5563450000000  0.5122270000000  0.4988710000000 1.0
C      1  0.5510670000000  0.4503180000000  0.4166560000000 1.0
C      1  0.5400230000000  0.5292740000000  0.5501710000000 1.0
C      1  0.4538650000000  0.4719550000000  0.5177820000000 1.0
C      1  0.3722360000000  0.5009670000000  0.4752290000000 1.0
C      1  0.4287150000000  0.4209430000000  0.5270190000000 1.0
C      1  0.4869850000000  0.3795890000000  0.4527140000000 1.0
C      1  0.4316920000000  0.5001270000000  0.4668240000000 1.0
C      1  0.4227990000000  0.5180310000000  0.5984120000000 1.0
C      1  0.4720280000000  0.4213080000000  0.4356170000000 1.0
C      1  0.4750420000000  0.6107140000000  0.6225650000000 1.0
C      1  0.5310490000000  0.5012980000000  0.5541700000000 1.0
C      1  0.5073580000000  0.4407230000000  0.5710380000000 1.0
C      1  0.4441730000000  0.5007530000000  0.4404470000000 1.0
C      1  0.6004970000000  0.4917590000000  0.6146780000000 1.0
C      1  0.4173110000000  0.5710760000000  0.4487370000000 1.0
C      1  0.4513390000000  0.4020540000000  0.4790690000000 1.0
C      1  0.4849760000000  0.3921490000000  0.5331790000000 1.0
C      1  0.4744810000000  0.4163730000000  0.5226900000000 1.0
C      1  0.5755540000000  0.5677750000000  0.5519470000000 1.0
C      1  0.5625300000000  0.5555930000000  0.4866540000000 1.0
C      1  0.4505520000000  0.5509120000000  0.4812440000000 1.0
C      1  0.4478490000000  0.4850580000000  0.4150170000000 1.0
C      1  0.4895690000000  0.4833850000000  0.5698650000000 1.0
C      1  0.5797440000000  0.5757240000000  0.4282020000000 1.0
C      1  0.4947580000000  0.5642390000000  0.4987420000000 1.0
C      1  0.4232470000000  0.5561200000000  0.4722100000000 1.0
C      1  0.4905170000000  0.4407320000000  0.5222580000000 1.0
C      1  0.5103250000000  0.4876160000000  0.6124900000000 1.0
C      1  0.5782120000000  0.5484330000000  0.4350610000000 1.0
C      1  0.5652500000000  0.4339000000000  0.4379980000000 1.0
C      1  0.5291310000000  0.5435300000000  0.5268440000000 1.0
C      1  0.5693330000000  0.4576440000000  0.4783080000000 1.0
C      1  0.4954700000000  0.5343690000000  0.3954340000000 1.0
C      1  0.5836600000000  0.4146740000000  0.5301580000000 1.0
C      1  0.4868520000000  0.4900100000000  0.5968160000000 1.0
C      1  0.4982970000000  0.5625270000000  0.3933440000000 1.0
C      1  0.5774120000000  0.4766440000000  0.5226190000000 1.0
C      1  0.4866380000000  0.5854900000000  0.6230830000000 1.0
C      1  0.4767690000000  0.6365880000000  0.6166640000000 1.0
C      1  0.4816250000000  0.4484200000000  0.4339620000000 1.0
C      1  0.5159200000000  0.5951330000000  0.4571400000000 1.0
C      1  0.5796860000000  0.5016530000000  0.5100260000000 1.0
C      1  0.4511720000000  0.5324720000000  0.5388910000000 1.0
C      1  0.4941930000000  0.4016630000000  0.4363660000000 1.0
C      1  0.4740410000000  0.5613370000000  0.6152910000000 1.0
C      1  0.4379080000000  0.5250890000000  0.5140350000000 1.0
C      1  0.5036190000000  0.5447250000000  0.4467210000000 1.0
C      1  0.5216440000000  0.4915880000000  0.4022700000000 1.0
C      1  0.5886300000000  0.4933210000000  0.5679560000000 1.0
C      1  0.4988470000000  0.5847470000000  0.4084020000000 1.0
C      1  0.5012380000000  0.5954370000000  0.4328900000000 1.0
C      1  0.5038680000000  0.4836810000000  0.4727930000000 1.0
C      1  0.5492960000000  0.5021220000000  0.4734040000000 1.0
C      1  0.3998010000000  0.5116280000000  0.4352710000000 1.0
C      1  0.5634450000000  0.5447090000000  0.4594140000000 1.0
C      1  0.5097130000000  0.4538970000000  0.4352790000000 1.0
C      1  0.5477140000000  0.4742030000000  0.4696810000000 1.0
C      1  0.5453330000000  0.4126970000000  0.4495510000000 1.0
C      1  0.4910640000000  0.5152810000000  0.5330340000000 1.0
C      1  0.5433580000000  0.6012060000000  0.4535980000000 1.0
C      1  0.4891220000000  0.4320790000000  0.4787440000000 1.0
C      1  0.4155310000000  0.5322220000000  0.4180930000000 1.0
C      1  0.4751920000000  0.3619690000000  0.4968500000000 1.0
C      1  0.4799270000000  0.5410610000000  0.5390030000000 1.0
C      1  0.4444980000000  0.5357430000000  0.4076360000000 1.0
C      1  0.3902820000000  0.5074680000000  0.5461080000000 1.0
C      1  0.4491440000000  0.4125010000000  0.5079830000000 1.0
C      1  0.4682370000000  0.5221720000000  0.3940810000000 1.0
C      1  0.5051070000000  0.5836270000000  0.4809410000000 1.0
END
