TITL C-627109-622-2 0.272481060830272 125000 -734.849385904084 0 0 122 (C1) n - 1
REM
REM in /home/nfs/bkarasulu/CARBON/AIRSS/Generating-Clusters/LCBOP/Only-C1/SD-CG/FIRE-CG
REM
REM
REM
REM
REM
REM ./C.cell (11c1c37f851c82e70ff6c80c92926a4b)
REM AIRSS Version 0.9.1 bugfix July 2018 build 013d7b7c2542+ Fri, 06 Jul 2018 19:26:36 +0100
REM compiler GCC version 9.2.1 20190827 (Red Hat 9.2.1-1)
REM options -cpp -mtune=generic -march=x86-64 -g -O0 -fpre-include=/usr/include/finclude/math-vector-fortran.h
REM seed 1118196919 203033819 -609145586 -1408547602 -850847661 -285920764 2118879784 1984214362 -837331306 1181761224 932313966 -1833443015 2129189922 1995945733 -2013432335 204763324 -576066249 684993812 8146001 -1346300803 833136900 1520843507 768629438 -2033906335 711129868 -1920645039 948665922 2078857518 -119533091 821822134 -1294991711 22143431 1290689281
REM
CELL 1.54180   50.00000   50.00000   50.00000   90.00000   90.00000   90.00000
LATT -1
SFAC C  
C      1  0.4810470000000  0.4678000000000  0.6002710000000 1.0
C      1  0.4934820000000  0.4931320000000  0.5579240000000 1.0
C      1  0.5060380000000  0.3887180000000  0.4778610000000 1.0
C      1  0.5324050000000  0.4095040000000  0.5166110000000 1.0
C      1  0.4461890000000  0.5104650000000  0.5687070000000 1.0
C      1  0.4800540000000  0.5885700000000  0.5144290000000 1.0
C      1  0.4458300000000  0.4438060000000  0.5716500000000 1.0
C      1  0.5251600000000  0.4293440000000  0.5372580000000 1.0
C      1  0.4811100000000  0.4280920000000  0.4192700000000 1.0
C      1  0.5110740000000  0.5144280000000  0.4338040000000 1.0
C      1  0.4116000000000  0.4835200000000  0.5507420000000 1.0
C      1  0.4347450000000  0.4406200000000  0.5452050000000 1.0
C      1  0.5041390000000  0.5561590000000  0.5425260000000 1.0
C      1  0.4644540000000  0.4092460000000  0.5145640000000 1.0
C      1  0.5181450000000  0.5534230000000  0.5690580000000 1.0
C      1  0.5543810000000  0.4119560000000  0.4309570000000 1.0
C      1  0.4986220000000  0.5018510000000  0.4582570000000 1.0
C      1  0.5290700000000  0.6636290000000  0.4308920000000 1.0
C      1  0.4746980000000  0.4920440000000  0.5133840000000 1.0
C      1  0.6031500000000  0.5659060000000  0.5417390000000 1.0
C      1  0.4938530000000  0.6354150000000  0.4145040000000 1.0
C      1  0.5282240000000  0.5480010000000  0.4585660000000 1.0
C      1  0.4661050000000  0.4496450000000  0.4061670000000 1.0
C      1  0.4795410000000  0.5194820000000  0.4756340000000 1.0
C      1  0.4705600000000  0.4266300000000  0.4925810000000 1.0
C      1  0.4826600000000  0.5174310000000  0.5047060000000 1.0
C      1  0.4200460000000  0.4623600000000  0.5335340000000 1.0
C      1  0.4325750000000  0.4369580000000  0.4651160000000 1.0
C      1  0.5161080000000  0.6395490000000  0.4309230000000 1.0
C      1  0.4892370000000  0.4951460000000  0.6059520000000 1.0
C      1  0.5678210000000  0.5211780000000  0.4734940000000 1.0
C      1  0.5235270000000  0.4792700000000  0.4932110000000 1.0
C      1  0.5614570000000  0.5590870000000  0.5184810000000 1.0
C      1  0.4736100000000  0.5309690000000  0.4027470000000 1.0
C      1  0.4736610000000  0.6060460000000  0.4937450000000 1.0
C      1  0.5345710000000  0.4786090000000  0.5182050000000 1.0
C      1  0.4863280000000  0.3922900000000  0.5206940000000 1.0
C      1  0.4947520000000  0.3929870000000  0.4520390000000 1.0
C      1  0.6248200000000  0.5807690000000  0.5451170000000 1.0
C      1  0.5090370000000  0.4348040000000  0.4198290000000 1.0
C      1  0.5789650000000  0.4794780000000  0.5655290000000 1.0
C      1  0.4123770000000  0.4749260000000  0.4452990000000 1.0
C      1  0.5203320000000  0.5307570000000  0.5873910000000 1.0
C      1  0.4495660000000  0.5589120000000  0.3629250000000 1.0
C      1  0.5365720000000  0.4607530000000  0.4468600000000 1.0
C      1  0.5107990000000  0.3936800000000  0.5055070000000 1.0
C      1  0.5910270000000  0.4700600000000  0.5892600000000 1.0
C      1  0.4579350000000  0.4231380000000  0.4668390000000 1.0
C      1  0.5323750000000  0.5766160000000  0.5778160000000 1.0
C      1  0.4842350000000  0.4492460000000  0.6211560000000 1.0
C      1  0.4593600000000  0.5825680000000  0.4514300000000 1.0
C      1  0.5273720000000  0.4120910000000  0.4223750000000 1.0
C      1  0.4760220000000  0.5021400000000  0.3976650000000 1.0
C      1  0.4318480000000  0.4611600000000  0.4831860000000 1.0
C      1  0.4806180000000  0.4656020000000  0.5219290000000 1.0
C      1  0.4359300000000  0.4823500000000  0.4626270000000 1.0
C      1  0.5322630000000  0.5017390000000  0.5320780000000 1.0
C      1  0.5144430000000  0.4226720000000  0.5613660000000 1.0
C      1  0.4192160000000  0.4707650000000  0.5062400000000 1.0
C      1  0.6017310000000  0.4614290000000  0.6113970000000 1.0
C      1  0.5202550000000  0.4998110000000  0.5566700000000 1.0
C      1  0.5558550000000  0.4263490000000  0.4770090000000 1.0
C      1  0.5863020000000  0.4622400000000  0.4391350000000 1.0
C      1  0.6461050000000  0.5954540000000  0.5484180000000 1.0
C      1  0.5099060000000  0.5429470000000  0.4357400000000 1.0
C      1  0.4275660000000  0.5559800000000  0.5472300000000 1.0
C      1  0.5663850000000  0.4441030000000  0.5247820000000 1.0
C      1  0.5129870000000  0.3888150000000  0.4305720000000 1.0
C      1  0.4758410000000  0.5431160000000  0.6031620000000 1.0
C      1  0.5338950000000  0.4435420000000  0.4701370000000 1.0
C      1  0.4200510000000  0.5240850000000  0.5066910000000 1.0
C      1  0.5609780000000  0.4718110000000  0.4385470000000 1.0
C      1  0.4575440000000  0.5361880000000  0.4673420000000 1.0
C      1  0.4749450000000  0.4747310000000  0.3937580000000 1.0
C      1  0.4877080000000  0.4316290000000  0.6400420000000 1.0
C      1  0.4229650000000  0.5091640000000  0.5532050000000 1.0
C      1  0.4434430000000  0.4178580000000  0.5309750000000 1.0
C      1  0.4595510000000  0.4752090000000  0.4454360000000 1.0
C      1  0.4863750000000  0.5408140000000  0.5217950000000 1.0
C      1  0.5112970000000  0.4601670000000  0.4337360000000 1.0
C      1  0.5128740000000  0.4535470000000  0.4866270000000 1.0
C      1  0.5390490000000  0.4538640000000  0.5309580000000 1.0
C      1  0.4823820000000  0.5470440000000  0.4262530000000 1.0
C      1  0.4885040000000  0.4763240000000  0.4463010000000 1.0
C      1  0.5302290000000  0.5969220000000  0.4614120000000 1.0
C      1  0.4636100000000  0.5552260000000  0.4465390000000 1.0
C      1  0.4963130000000  0.5231400000000  0.6023590000000 1.0
C      1  0.4740780000000  0.4129430000000  0.4448410000000 1.0
C      1  0.4208740000000  0.5314160000000  0.5346690000000 1.0
C      1  0.5652580000000  0.5056840000000  0.5682340000000 1.0
C      1  0.4840860000000  0.4668060000000  0.5506980000000 1.0
C      1  0.5373550000000  0.5097420000000  0.5769010000000 1.0
C      1  0.5763890000000  0.5277990000000  0.5542090000000 1.0
C      1  0.5350510000000  0.5718580000000  0.4725160000000 1.0
C      1  0.5819670000000  0.4615370000000  0.5422590000000 1.0
C      1  0.4098840000000  0.4977810000000  0.5026870000000 1.0
C      1  0.4611950000000  0.5457860000000  0.3822010000000 1.0
C      1  0.5922230000000  0.4368570000000  0.4469390000000 1.0
C      1  0.4472450000000  0.4562840000000  0.4256860000000 1.0
C      1  0.5324500000000  0.6011400000000  0.5665320000000 1.0
C      1  0.4344970000000  0.5355800000000  0.4846620000000 1.0
C      1  0.4723330000000  0.5103420000000  0.5638800000000 1.0
C      1  0.4686550000000  0.5624790000000  0.5131140000000 1.0
C      1  0.5799570000000  0.5506400000000  0.5380680000000 1.0
C      1  0.4414980000000  0.5637410000000  0.5691100000000 1.0
C      1  0.5933420000000  0.5177080000000  0.4774870000000 1.0
C      1  0.4708990000000  0.4571980000000  0.5745600000000 1.0
C      1  0.5707680000000  0.4192830000000  0.4533540000000 1.0
C      1  0.4579410000000  0.5581900000000  0.5897350000000 1.0
C      1  0.4322190000000  0.4340120000000  0.5932970000000 1.0
C      1  0.5174580000000  0.6055190000000  0.5444900000000 1.0
C      1  0.4497640000000  0.6237960000000  0.3883870000000 1.0
C      1  0.5229450000000  0.5011860000000  0.4759320000000 1.0
C      1  0.5249170000000  0.6187370000000  0.4473840000000 1.0
C      1  0.5582800000000  0.4213790000000  0.5054100000000 1.0
C      1  0.5482530000000  0.5691590000000  0.4974840000000 1.0
C      1  0.5014970000000  0.5853200000000  0.5332170000000 1.0
C      1  0.4223070000000  0.4477940000000  0.4379820000000 1.0
C      1  0.5401300000000  0.5235350000000  0.4704890000000 1.0
C      1  0.4719370000000  0.6297250000000  0.4007460000000 1.0
C      1  0.4643240000000  0.6022830000000  0.4688500000000 1.0
C      1  0.4882370000000  0.4477650000000  0.4999330000000 1.0
END
