TITL C-627110-360-1506 0.639199524131247 125000 -270.769501263358 0 0 46 (C1) n - 1
REM
REM in /home/nfs/bkarasulu/CARBON/AIRSS/Generating-Clusters/LCBOP/Only-C1/SD-CG/FIRE-CG
REM
REM
REM
REM
REM
REM ./C.cell (11c1c37f851c82e70ff6c80c92926a4b)
REM AIRSS Version 0.9.1 bugfix July 2018 build 013d7b7c2542+ Fri, 06 Jul 2018 19:26:36 +0100
REM compiler GCC version 9.2.1 20190827 (Red Hat 9.2.1-1)
REM options -cpp -mtune=generic -march=x86-64 -g -O0 -fpre-include=/usr/include/finclude/math-vector-fortran.h
REM seed -424668560 563190880 -1406298802 1898817183 -562232197 -777602714 -1369246723 -1994060075 -169507066 -1694201598 1431602271 -390006207 1306972381 -1068448865 1051897146 812996871 1843781216 1018977748 2075185831 -139529363 468185222 737010973 1254238818 -830356895 -438933480 652116334 -2138767722 -1452599385 791724415 -527799610 187475894 1382163579 -1732375923
REM
CELL 1.54180   50.00000   50.00000   50.00000   90.00000   90.00000   90.00000
LATT -1
SFAC C  
C      1  0.4483310000000  0.5007630000000  0.5261610000000 1.0
C      1  0.5278400000000  0.5221970000000  0.4591270000000 1.0
C      1  0.4376940000000  0.5103400000000  0.4799890000000 1.0
C      1  0.5460630000000  0.4519700000000  0.5544810000000 1.0
C      1  0.5507270000000  0.5233850000000  0.5791840000000 1.0
C      1  0.5034000000000  0.4671670000000  0.5039060000000 1.0
C      1  0.3737410000000  0.4644200000000  0.3866690000000 1.0
C      1  0.4343260000000  0.4768180000000  0.4381220000000 1.0
C      1  0.4579100000000  0.4618680000000  0.4363650000000 1.0
C      1  0.5342940000000  0.6915180000000  0.5511440000000 1.0
C      1  0.4828450000000  0.4552790000000  0.4425990000000 1.0
C      1  0.5070630000000  0.4587750000000  0.4559930000000 1.0
C      1  0.5540230000000  0.4826410000000  0.4175370000000 1.0
C      1  0.4615220000000  0.5429950000000  0.5070710000000 1.0
C      1  0.5536010000000  0.5090390000000  0.4212270000000 1.0
C      1  0.5297320000000  0.6658810000000  0.5498750000000 1.0
C      1  0.5204590000000  0.6137690000000  0.5472940000000 1.0
C      1  0.4706010000000  0.4633550000000  0.5576990000000 1.0
C      1  0.4777380000000  0.5621130000000  0.5157040000000 1.0
C      1  0.5457850000000  0.4590890000000  0.4269240000000 1.0
C      1  0.5080810000000  0.4768030000000  0.4781410000000 1.0
C      1  0.5324040000000  0.4410690000000  0.5327360000000 1.0
C      1  0.5440100000000  0.5298650000000  0.4374700000000 1.0
C      1  0.5313350000000  0.4465320000000  0.4473640000000 1.0
C      1  0.5500430000000  0.5559920000000  0.4325030000000 1.0
C      1  0.3933760000000  0.4684360000000  0.4033410000000 1.0
C      1  0.4671000000000  0.3923230000000  0.5422180000000 1.0
C      1  0.5155730000000  0.5863130000000  0.5459330000000 1.0
C      1  0.5548760000000  0.4971860000000  0.5785650000000 1.0
C      1  0.4749340000000  0.4171760000000  0.5423900000000 1.0
C      1  0.4724830000000  0.4633760000000  0.5849760000000 1.0
C      1  0.5425630000000  0.4264850000000  0.4633470000000 1.0
C      1  0.5535070000000  0.4720420000000  0.5701760000000 1.0
C      1  0.4133320000000  0.4725160000000  0.4202850000000 1.0
C      1  0.5250940000000  0.6398160000000  0.5485840000000 1.0
C      1  0.4323070000000  0.4961960000000  0.4582160000000 1.0
C      1  0.4957730000000  0.5764090000000  0.5288600000000 1.0
C      1  0.5421900000000  0.5477250000000  0.5729940000000 1.0
C      1  0.5155010000000  0.5033570000000  0.4732870000000 1.0
C      1  0.5478330000000  0.4186720000000  0.4882760000000 1.0
C      1  0.5304610000000  0.5686120000000  0.5616380000000 1.0
C      1  0.4486800000000  0.5183220000000  0.5044010000000 1.0
C      1  0.5446180000000  0.4239940000000  0.5141950000000 1.0
C      1  0.4840190000000  0.4435780000000  0.5422990000000 1.0
C      1  0.4558400000000  0.4829410000000  0.5442630000000 1.0
C      1  0.5063670000000  0.4508840000000  0.5264700000000 1.0
END
