TITL C-627107-135-1858 -7.35385073670558e-07 125000 -651.826139124879 0 0 105 (C1) n - 1
REM
REM in /home/nfs/bkarasulu/CARBON/AIRSS/Generating-Clusters/LCBOP/Only-C1/SD-CG/FIRE-CG
REM
REM
REM
REM
REM
REM ./C.cell (11c1c37f851c82e70ff6c80c92926a4b)
REM AIRSS Version 0.9.1 bugfix July 2018 build 013d7b7c2542+ Fri, 06 Jul 2018 19:26:36 +0100
REM compiler GCC version 9.2.1 20190827 (Red Hat 9.2.1-1)
REM options -cpp -mtune=generic -march=x86-64 -g -O0 -fpre-include=/usr/include/finclude/math-vector-fortran.h
REM seed -1689775449 -522454268 -437328408 -369810231 418887118 2091315845 -817918975 1871205037 -577000646 -1032331800 1138169119 1063092069 -1478484232 1346320891 1425094313 -2100321658 1904654335 790650385 1190524181 224155953 998446028 122132411 -270776204 1190306381 1669440855 27994525 1080957055 -307373021 1062613488 -899696969 -327338894 1871548979 1059908833
REM
CELL 1.54180   50.00000   50.00000   50.00000   90.00000   90.00000   90.00000
LATT -1
SFAC C  
C      1  0.4371390000000  0.4813940000000  0.4392490000000 1.0
C      1  0.5219950000000  0.5728970000000  0.4869960000000 1.0
C      1  0.4904010000000  0.4971010000000  0.6028170000000 1.0
C      1  0.5155940000000  0.4759800000000  0.4071340000000 1.0
C      1  0.4720140000000  0.4369790000000  0.4736150000000 1.0
C      1  0.5223660000000  0.4814150000000  0.4353060000000 1.0
C      1  0.5151890000000  0.5084980000000  0.5431550000000 1.0
C      1  0.4355810000000  0.4413940000000  0.5126150000000 1.0
C      1  0.4786420000000  0.5560590000000  0.4753670000000 1.0
C      1  0.5068970000000  0.4001550000000  0.5471870000000 1.0
C      1  0.5407530000000  0.4983400000000  0.5516060000000 1.0
C      1  0.5949800000000  0.5177350000000  0.5060140000000 1.0
C      1  0.4944430000000  0.5402350000000  0.6281860000000 1.0
C      1  0.4890990000000  0.5539260000000  0.5811200000000 1.0
C      1  0.5266030000000  0.5741920000000  0.5158540000000 1.0
C      1  0.5636430000000  0.5117390000000  0.5413400000000 1.0
C      1  0.4329500000000  0.4497120000000  0.5416200000000 1.0
C      1  0.4440820000000  0.5650830000000  0.5388090000000 1.0
C      1  0.5413810000000  0.4111890000000  0.5130830000000 1.0
C      1  0.4882490000000  0.5130130000000  0.4357190000000 1.0
C      1  0.5324470000000  0.4382980000000  0.5151690000000 1.0
C      1  0.5258120000000  0.3937330000000  0.5289110000000 1.0
C      1  0.4542910000000  0.4833710000000  0.5699790000000 1.0
C      1  0.4820630000000  0.5063250000000  0.4083380000000 1.0
C      1  0.4578210000000  0.5389870000000  0.5471030000000 1.0
C      1  0.5022220000000  0.4937670000000  0.5226970000000 1.0
C      1  0.5005050000000  0.4457760000000  0.4739970000000 1.0
C      1  0.6243350000000  0.4335490000000  0.5500530000000 1.0
C      1  0.5861170000000  0.4176340000000  0.4863740000000 1.0
C      1  0.4947160000000  0.5796170000000  0.4804680000000 1.0
C      1  0.5885500000000  0.5018130000000  0.5294600000000 1.0
C      1  0.4535530000000  0.4938810000000  0.5081760000000 1.0
C      1  0.4734940000000  0.5972840000000  0.4912840000000 1.0
C      1  0.5435830000000  0.4534590000000  0.5360610000000 1.0
C      1  0.4980690000000  0.4237240000000  0.5601200000000 1.0
C      1  0.4564500000000  0.4550520000000  0.5588950000000 1.0
C      1  0.5250360000000  0.4615910000000  0.5806570000000 1.0
C      1  0.4827120000000  0.4499590000000  0.5192200000000 1.0
C      1  0.5506570000000  0.5845820000000  0.3595770000000 1.0
C      1  0.4306530000000  0.5423250000000  0.4705160000000 1.0
C      1  0.5117320000000  0.4990280000000  0.4962730000000 1.0
C      1  0.5123300000000  0.5845190000000  0.5399280000000 1.0
C      1  0.4708020000000  0.5324930000000  0.5736880000000 1.0
C      1  0.4712480000000  0.5038500000000  0.5824020000000 1.0
C      1  0.3346070000000  0.5122840000000  0.4962480000000 1.0
C      1  0.4917710000000  0.5135370000000  0.6257330000000 1.0
C      1  0.5373240000000  0.4925420000000  0.4883350000000 1.0
C      1  0.6112130000000  0.4879430000000  0.4702090000000 1.0
C      1  0.4907020000000  0.5118530000000  0.4827750000000 1.0
C      1  0.5080990000000  0.4452550000000  0.5024330000000 1.0
C      1  0.5093950000000  0.5377450000000  0.5401690000000 1.0
C      1  0.4939590000000  0.5584520000000  0.6083140000000 1.0
C      1  0.4303870000000  0.4946110000000  0.5563520000000 1.0
C      1  0.5497690000000  0.5692410000000  0.3806360000000 1.0
C      1  0.5334740000000  0.5482150000000  0.5257700000000 1.0
C      1  0.4560860000000  0.4381100000000  0.4501570000000 1.0
C      1  0.4817880000000  0.5379300000000  0.5248150000000 1.0
C      1  0.4524090000000  0.4880580000000  0.4623700000000 1.0
C      1  0.5582920000000  0.5368380000000  0.5278360000000 1.0
C      1  0.5114260000000  0.4795040000000  0.5972810000000 1.0
C      1  0.4344530000000  0.5667890000000  0.5118720000000 1.0
C      1  0.4648270000000  0.4586930000000  0.4073510000000 1.0
C      1  0.4412040000000  0.4802270000000  0.4867070000000 1.0
C      1  0.3558460000000  0.4990090000000  0.5034800000000 1.0
C      1  0.6033240000000  0.4803410000000  0.5387980000000 1.0
C      1  0.4201000000000  0.5037900000000  0.4348580000000 1.0
C      1  0.4510430000000  0.5629520000000  0.4692550000000 1.0
C      1  0.4796120000000  0.4417390000000  0.5481560000000 1.0
C      1  0.4365330000000  0.5165830000000  0.5143300000000 1.0
C      1  0.5149200000000  0.4352850000000  0.5795530000000 1.0
C      1  0.4615470000000  0.4367120000000  0.5012680000000 1.0
C      1  0.5666340000000  0.5465790000000  0.4797020000000 1.0
C      1  0.4857910000000  0.4767400000000  0.4046080000000 1.0
C      1  0.4756240000000  0.5042540000000  0.4598520000000 1.0
C      1  0.5852460000000  0.5312320000000  0.4621800000000 1.0
C      1  0.6006870000000  0.5125290000000  0.4782050000000 1.0
C      1  0.5175340000000  0.5111510000000  0.4411820000000 1.0
C      1  0.4151290000000  0.4737180000000  0.5427910000000 1.0
C      1  0.5388230000000  0.5524330000000  0.4708830000000 1.0
C      1  0.4277500000000  0.5397500000000  0.4996200000000 1.0
C      1  0.6110170000000  0.4612410000000  0.4708410000000 1.0
C      1  0.4024070000000  0.4749970000000  0.5166540000000 1.0
C      1  0.4469780000000  0.5838490000000  0.4913380000000 1.0
C      1  0.4358700000000  0.5187780000000  0.5426210000000 1.0
C      1  0.5147590000000  0.4606200000000  0.4541400000000 1.0
C      1  0.3778050000000  0.4859960000000  0.5105660000000 1.0
C      1  0.5534220000000  0.5400310000000  0.4258370000000 1.0
C      1  0.4197970000000  0.5268040000000  0.4496270000000 1.0
C      1  0.5579990000000  0.4783450000000  0.4814220000000 1.0
C      1  0.5329630000000  0.5355260000000  0.4461090000000 1.0
C      1  0.5044240000000  0.5625610000000  0.5586930000000 1.0
C      1  0.6146370000000  0.4572440000000  0.5451520000000 1.0
C      1  0.5792530000000  0.5327190000000  0.4348450000000 1.0
C      1  0.5224240000000  0.4975250000000  0.3883050000000 1.0
C      1  0.4211060000000  0.4626660000000  0.4977450000000 1.0
C      1  0.5758190000000  0.5403690000000  0.5061630000000 1.0
C      1  0.5006410000000  0.5171480000000  0.3875860000000 1.0
C      1  0.4476920000000  0.4564000000000  0.4296200000000 1.0
C      1  0.4825320000000  0.5358750000000  0.4951840000000 1.0
C      1  0.4966340000000  0.5382950000000  0.3712150000000 1.0
C      1  0.5401500000000  0.4707090000000  0.5581010000000 1.0
C      1  0.5650290000000  0.4069440000000  0.4988150000000 1.0
C      1  0.4770310000000  0.4805640000000  0.5203000000000 1.0
C      1  0.5491130000000  0.5536570000000  0.4020590000000 1.0
C      1  0.6019730000000  0.4368600000000  0.4768420000000 1.0
END
