TITL C-627108-131-234 0.104673014440615 125000 -746.318866709545 0 0 121 (C1) n - 1
REM
REM in /home/nfs/bkarasulu/CARBON/AIRSS/Generating-Clusters/LCBOP/Only-C1/SD-CG/FIRE-CG
REM
REM
REM
REM
REM
REM ./C.cell (11c1c37f851c82e70ff6c80c92926a4b)
REM AIRSS Version 0.9.1 bugfix July 2018 build 013d7b7c2542+ Fri, 06 Jul 2018 19:26:36 +0100
REM compiler GCC version 9.2.1 20190827 (Red Hat 9.2.1-1)
REM options -cpp -mtune=generic -march=x86-64 -g -O0 -fpre-include=/usr/include/finclude/math-vector-fortran.h
REM seed -659705268 1826458310 -1767938546 -1304506661 1365483348 -1338924937 727982192 927277173 -243531934 1387652578 -1483961780 1707319207 -1819635353 2138022215 -847413948 736595335 1052176023 -2112607838 1728691210 -1257216634 -1160260018 -247629612 -1414060779 301278958 1008779679 -1692523359 1169272823 1816366567 239081215 -250698203 -1096064959 -1784793451 -1020372556
REM
CELL 1.54180   50.00000   50.00000   50.00000   90.00000   90.00000   90.00000
LATT -1
SFAC C  
C      1  0.5579890000000  0.5655380000000  0.4742380000000 1.0
C      1  0.4226340000000  0.4332660000000  0.4447870000000 1.0
C      1  0.6662990000000  0.4957530000000  0.5905670000000 1.0
C      1  0.4941150000000  0.4030250000000  0.5047040000000 1.0
C      1  0.5156820000000  0.4916370000000  0.5896430000000 1.0
C      1  0.5221290000000  0.4728910000000  0.4903540000000 1.0
C      1  0.5967640000000  0.5068650000000  0.4371780000000 1.0
C      1  0.4723750000000  0.4718400000000  0.4790480000000 1.0
C      1  0.5161600000000  0.5193370000000  0.5866490000000 1.0
C      1  0.5382160000000  0.5219460000000  0.3965580000000 1.0
C      1  0.5938760000000  0.4334060000000  0.4995700000000 1.0
C      1  0.4525670000000  0.4548260000000  0.4912200000000 1.0
C      1  0.4927290000000  0.4896460000000  0.5239900000000 1.0
C      1  0.5089350000000  0.4665680000000  0.5771660000000 1.0
C      1  0.5567060000000  0.4559060000000  0.4297940000000 1.0
C      1  0.5572620000000  0.4524530000000  0.5596700000000 1.0
C      1  0.4621360000000  0.4058220000000  0.4632430000000 1.0
C      1  0.4904750000000  0.4342690000000  0.4366850000000 1.0
C      1  0.5563790000000  0.5008840000000  0.4048260000000 1.0
C      1  0.5320660000000  0.4523420000000  0.5691370000000 1.0
C      1  0.5659800000000  0.4898270000000  0.4711080000000 1.0
C      1  0.5838980000000  0.4610570000000  0.4368660000000 1.0
C      1  0.4659490000000  0.5469970000000  0.4689950000000 1.0
C      1  0.4133140000000  0.5011310000000  0.5300340000000 1.0
C      1  0.4622840000000  0.5187490000000  0.4606760000000 1.0
C      1  0.5045190000000  0.5557850000000  0.5564360000000 1.0
C      1  0.5003360000000  0.5298210000000  0.3662000000000 1.0
C      1  0.4264590000000  0.4648820000000  0.4973690000000 1.0
C      1  0.4590260000000  0.4751880000000  0.4214780000000 1.0
C      1  0.4532140000000  0.5248610000000  0.5222540000000 1.0
C      1  0.5417320000000  0.4460700000000  0.4544620000000 1.0
C      1  0.4201580000000  0.4607570000000  0.4496620000000 1.0
C      1  0.5020900000000  0.3862350000000  0.4449360000000 1.0
C      1  0.4485120000000  0.5809230000000  0.5976450000000 1.0
C      1  0.5181770000000  0.4715930000000  0.4018330000000 1.0
C      1  0.5004870000000  0.5858380000000  0.5937670000000 1.0
C      1  0.5436830000000  0.5483740000000  0.4041820000000 1.0
C      1  0.5957830000000  0.5562440000000  0.6020030000000 1.0
C      1  0.4857790000000  0.6098970000000  0.4573890000000 1.0
C      1  0.4026280000000  0.5920720000000  0.6055450000000 1.0
C      1  0.4124920000000  0.5154190000000  0.4691690000000 1.0
C      1  0.6438100000000  0.5062050000000  0.5825570000000 1.0
C      1  0.5802450000000  0.4598300000000  0.5448390000000 1.0
C      1  0.5392710000000  0.4125620000000  0.4920080000000 1.0
C      1  0.4955210000000  0.4226930000000  0.5272360000000 1.0
C      1  0.4089530000000  0.4685060000000  0.4750570000000 1.0
C      1  0.4211650000000  0.5743970000000  0.5957450000000 1.0
C      1  0.4560520000000  0.5158700000000  0.5895310000000 1.0
C      1  0.4621560000000  0.4519540000000  0.5524560000000 1.0
C      1  0.4686120000000  0.5272860000000  0.5676070000000 1.0
C      1  0.4998530000000  0.4932070000000  0.3987180000000 1.0
C      1  0.4203070000000  0.5984290000000  0.4928780000000 1.0
C      1  0.5152040000000  0.3786050000000  0.4672990000000 1.0
C      1  0.4623190000000  0.5411750000000  0.5430410000000 1.0
C      1  0.5107440000000  0.4485560000000  0.4512880000000 1.0
C      1  0.5472320000000  0.5669770000000  0.4228410000000 1.0
C      1  0.5024980000000  0.6234380000000  0.4426830000000 1.0
C      1  0.4696640000000  0.4339380000000  0.5318680000000 1.0
C      1  0.4841070000000  0.5598540000000  0.5362490000000 1.0
C      1  0.4839430000000  0.4077170000000  0.4446430000000 1.0
C      1  0.5979290000000  0.5365320000000  0.4770010000000 1.0
C      1  0.4562230000000  0.4931590000000  0.6037790000000 1.0
C      1  0.4256920000000  0.5222300000000  0.5154530000000 1.0
C      1  0.4090130000000  0.5033300000000  0.5588380000000 1.0
C      1  0.4427650000000  0.6049510000000  0.4802620000000 1.0
C      1  0.5923260000000  0.4847380000000  0.5494800000000 1.0
C      1  0.3725800000000  0.5554550000000  0.4794890000000 1.0
C      1  0.5277870000000  0.5165410000000  0.4626150000000 1.0
C      1  0.5532500000000  0.5812470000000  0.4960310000000 1.0
C      1  0.5826190000000  0.5086890000000  0.4127300000000 1.0
C      1  0.5010450000000  0.4722530000000  0.4682270000000 1.0
C      1  0.5063790000000  0.5001040000000  0.4551470000000 1.0
C      1  0.4235560000000  0.4742550000000  0.5238720000000 1.0
C      1  0.5166520000000  0.4416290000000  0.5250830000000 1.0
C      1  0.4681040000000  0.5954010000000  0.4732270000000 1.0
C      1  0.5908730000000  0.4439770000000  0.5240060000000 1.0
C      1  0.6196760000000  0.5170490000000  0.5736170000000 1.0
C      1  0.4837400000000  0.5102080000000  0.4411760000000 1.0
C      1  0.3958080000000  0.5842220000000  0.5317610000000 1.0
C      1  0.5695130000000  0.5397000000000  0.4766570000000 1.0
C      1  0.4742100000000  0.5881100000000  0.5988510000000 1.0
C      1  0.5398930000000  0.4286790000000  0.5154050000000 1.0
C      1  0.4206080000000  0.4787660000000  0.5691870000000 1.0
C      1  0.4722690000000  0.5063130000000  0.5117110000000 1.0
C      1  0.5289680000000  0.5443790000000  0.5943570000000 1.0
C      1  0.4052890000000  0.5272200000000  0.5726960000000 1.0
C      1  0.6129490000000  0.5219200000000  0.5255930000000 1.0
C      1  0.4043070000000  0.5797350000000  0.5061720000000 1.0
C      1  0.5450500000000  0.4743140000000  0.4106500000000 1.0
C      1  0.4366130000000  0.4119710000000  0.4531470000000 1.0
C      1  0.4747510000000  0.5696170000000  0.4834380000000 1.0
C      1  0.4675550000000  0.4999210000000  0.4846570000000 1.0
C      1  0.5821580000000  0.4248720000000  0.4767920000000 1.0
C      1  0.5170890000000  0.5675760000000  0.5801710000000 1.0
C      1  0.3968210000000  0.5560390000000  0.4923560000000 1.0
C      1  0.4970960000000  0.5289860000000  0.5677310000000 1.0
C      1  0.5118380000000  0.4690590000000  0.5164880000000 1.0
C      1  0.4780940000000  0.4961300000000  0.4170300000000 1.0
C      1  0.5515050000000  0.5737640000000  0.4482060000000 1.0
C      1  0.4580620000000  0.4312570000000  0.5052350000000 1.0
C      1  0.6081910000000  0.5078100000000  0.5493170000000 1.0
C      1  0.4688690000000  0.4087050000000  0.4907240000000 1.0
C      1  0.6107490000000  0.5329840000000  0.5015260000000 1.0
C      1  0.6067980000000  0.5369420000000  0.5883920000000 1.0
C      1  0.4121930000000  0.5503540000000  0.5841060000000 1.0
C      1  0.5544760000000  0.4227970000000  0.4700210000000 1.0
C      1  0.4656460000000  0.4686170000000  0.5979710000000 1.0
C      1  0.5470000000000  0.4692990000000  0.4764390000000 1.0
C      1  0.4358460000000  0.4639660000000  0.5492160000000 1.0
C      1  0.5174230000000  0.3946650000000  0.4903440000000 1.0
C      1  0.6084780000000  0.5275120000000  0.4522850000000 1.0
C      1  0.3952800000000  0.4931020000000  0.4733530000000 1.0
C      1  0.4135430000000  0.5330570000000  0.4918570000000 1.0
C      1  0.4854360000000  0.5682970000000  0.5095760000000 1.0
C      1  0.4801270000000  0.4597690000000  0.5749150000000 1.0
C      1  0.5876040000000  0.4844680000000  0.4525060000000 1.0
C      1  0.5543920000000  0.5161990000000  0.4716690000000 1.0
C      1  0.4348220000000  0.5087640000000  0.4515590000000 1.0
C      1  0.5121430000000  0.5157580000000  0.3863500000000 1.0
C      1  0.4709270000000  0.4493870000000  0.4225340000000 1.0
C      1  0.4357550000000  0.4821130000000  0.4374360000000 1.0
END
