TITL C-627111-6168-1554 4.24467588090025e-08 125000 -1109.30188524254 0 0 179 (C1) n - 1
REM
REM in /home/nfs/bkarasulu/CARBON/AIRSS/Generating-Clusters/LCBOP/Only-C1/SD-CG/FIRE-CG
REM
REM
REM
REM
REM
REM ./C.cell (11c1c37f851c82e70ff6c80c92926a4b)
REM AIRSS Version 0.9.1 bugfix July 2018 build 013d7b7c2542+ Fri, 06 Jul 2018 19:26:36 +0100
REM compiler GCC version 9.2.1 20190827 (Red Hat 9.2.1-1)
REM options -cpp -mtune=generic -march=x86-64 -g -O0 -fpre-include=/usr/include/finclude/math-vector-fortran.h
REM seed 506303581 -1722533821 39229804 -631695638 -1502529958 209598425 2121438979 2131500600 -1213194284 717759972 -785273310 -1178293167 -180320627 1142194277 1877335904 2105806296 -1174224084 -813121265 -1231111376 705217765 -378923168 37149809 -728873812 -363521354 -585631079 2079519137 1418795372 -24342650 -1799296348 -499626679 -1674797939 1626507132 -1019606233
REM
CELL 1.54180   50.00000   50.00000   50.00000   90.00000   90.00000   90.00000
LATT -1
SFAC C  
C      1  0.4281420000000  0.5681460000000  0.4054160000000 1.0
C      1  0.5377410000000  0.4790690000000  0.4646570000000 1.0
C      1  0.3888490000000  0.5674030000000  0.4973190000000 1.0
C      1  0.5175160000000  0.4848030000000  0.5676260000000 1.0
C      1  0.5830690000000  0.5125440000000  0.5129020000000 1.0
C      1  0.4575720000000  0.5665100000000  0.4644990000000 1.0
C      1  0.3979380000000  0.5659000000000  0.4489230000000 1.0
C      1  0.4464860000000  0.4342770000000  0.4113930000000 1.0
C      1  0.5049560000000  0.5619140000000  0.4074500000000 1.0
C      1  0.5259610000000  0.4349390000000  0.4758080000000 1.0
C      1  0.4893090000000  0.5312550000000  0.4925630000000 1.0
C      1  0.5786560000000  0.5472120000000  0.4222230000000 1.0
C      1  0.5143290000000  0.4486340000000  0.6704200000000 1.0
C      1  0.5897180000000  0.5511790000000  0.5774010000000 1.0
C      1  0.4377050000000  0.4420250000000  0.5679560000000 1.0
C      1  0.5531760000000  0.5418060000000  0.4065180000000 1.0
C      1  0.4968170000000  0.5890540000000  0.4517370000000 1.0
C      1  0.5284130000000  0.4766710000000  0.5924870000000 1.0
C      1  0.4784190000000  0.5101510000000  0.4489100000000 1.0
C      1  0.5250710000000  0.5880110000000  0.4561440000000 1.0
C      1  0.5490750000000  0.5876680000000  0.5495030000000 1.0
C      1  0.6415780000000  0.4814350000000  0.5727870000000 1.0
C      1  0.5475630000000  0.4884670000000  0.4008580000000 1.0
C      1  0.5206440000000  0.4445440000000  0.4086210000000 1.0
C      1  0.5288240000000  0.5618270000000  0.6137960000000 1.0
C      1  0.5403250000000  0.5168580000000  0.3979090000000 1.0
C      1  0.4961320000000  0.5503150000000  0.5143800000000 1.0
C      1  0.5571580000000  0.5244870000000  0.5169110000000 1.0
C      1  0.5174760000000  0.4617690000000  0.4725290000000 1.0
C      1  0.5370730000000  0.5685520000000  0.4990930000000 1.0
C      1  0.4329420000000  0.5369860000000  0.5284060000000 1.0
C      1  0.3470980000000  0.5700700000000  0.5240260000000 1.0
C      1  0.3885590000000  0.5215110000000  0.4172010000000 1.0
C      1  0.3890740000000  0.5513430000000  0.4723740000000 1.0
C      1  0.4838180000000  0.5394080000000  0.5382750000000 1.0
C      1  0.5898710000000  0.4726570000000  0.5369210000000 1.0
C      1  0.4293130000000  0.5942710000000  0.5269470000000 1.0
C      1  0.6068630000000  0.4890210000000  0.4701750000000 1.0
C      1  0.5692600000000  0.3639030000000  0.5347020000000 1.0
C      1  0.5099780000000  0.5162530000000  0.3928160000000 1.0
C      1  0.4779670000000  0.3885720000000  0.4829720000000 1.0
C      1  0.3710850000000  0.5580210000000  0.5172750000000 1.0
C      1  0.5637030000000  0.4613530000000  0.5322910000000 1.0
C      1  0.3963050000000  0.4421670000000  0.4668140000000 1.0
C      1  0.5919380000000  0.4819240000000  0.4213660000000 1.0
C      1  0.5913700000000  0.5720570000000  0.4719240000000 1.0
C      1  0.4745820000000  0.5893400000000  0.4711330000000 1.0
C      1  0.5520590000000  0.5448800000000  0.4987670000000 1.0
C      1  0.5733740000000  0.4126420000000  0.5283850000000 1.0
C      1  0.4016600000000  0.4705830000000  0.4640330000000 1.0
C      1  0.4357260000000  0.4789690000000  0.5068030000000 1.0
C      1  0.4595770000000  0.5252720000000  0.5301530000000 1.0
C      1  0.4605950000000  0.5279700000000  0.4355000000000 1.0
C      1  0.4881020000000  0.3828880000000  0.5340650000000 1.0
C      1  0.3244830000000  0.5813360000000  0.5304100000000 1.0
C      1  0.5212600000000  0.5262640000000  0.4543330000000 1.0
C      1  0.6279020000000  0.4703790000000  0.4747600000000 1.0
C      1  0.6109870000000  0.5179080000000  0.5503950000000 1.0
C      1  0.4721350000000  0.5082160000000  0.6133980000000 1.0
C      1  0.4114100000000  0.5714560000000  0.4262690000000 1.0
C      1  0.4694450000000  0.5439430000000  0.3781700000000 1.0
C      1  0.5377720000000  0.5680270000000  0.4402810000000 1.0
C      1  0.5445430000000  0.4805400000000  0.5248800000000 1.0
C      1  0.4496380000000  0.6088040000000  0.5132000000000 1.0
C      1  0.5798220000000  0.5296910000000  0.5932580000000 1.0
C      1  0.3727110000000  0.5095340000000  0.5207090000000 1.0
C      1  0.5241120000000  0.4320840000000  0.5243130000000 1.0
C      1  0.5726710000000  0.5811100000000  0.5344950000000 1.0
C      1  0.4237280000000  0.4728110000000  0.4455290000000 1.0
C      1  0.5032620000000  0.4651870000000  0.5538600000000 1.0
C      1  0.4416620000000  0.5037290000000  0.4908750000000 1.0
C      1  0.4253420000000  0.4252940000000  0.4254800000000 1.0
C      1  0.4111430000000  0.4792440000000  0.5213160000000 1.0
C      1  0.4074710000000  0.4141420000000  0.5379090000000 1.0
C      1  0.5114080000000  0.4294260000000  0.5935690000000 1.0
C      1  0.5608190000000  0.5387830000000  0.4730500000000 1.0
C      1  0.4149320000000  0.5122380000000  0.4222950000000 1.0
C      1  0.6425870000000  0.4545740000000  0.5723360000000 1.0
C      1  0.6221740000000  0.4451220000000  0.4859560000000 1.0
C      1  0.5712410000000  0.5928280000000  0.4740930000000 1.0
C      1  0.5945410000000  0.5632850000000  0.5280350000000 1.0
C      1  0.6079800000000  0.4227050000000  0.4952760000000 1.0
C      1  0.4612590000000  0.4656730000000  0.5134410000000 1.0
C      1  0.4967350000000  0.5238540000000  0.4659490000000 1.0
C      1  0.3889710000000  0.4911380000000  0.5070210000000 1.0
C      1  0.5530450000000  0.3866890000000  0.4942060000000 1.0
C      1  0.4997940000000  0.4887930000000  0.3961150000000 1.0
C      1  0.5393810000000  0.5075440000000  0.5313360000000 1.0
C      1  0.5050230000000  0.4084160000000  0.5778080000000 1.0
C      1  0.5535640000000  0.4342640000000  0.5312670000000 1.0
C      1  0.4332560000000  0.5221730000000  0.4417800000000 1.0
C      1  0.4692750000000  0.5109880000000  0.5038370000000 1.0
C      1  0.5531490000000  0.5860510000000  0.5774190000000 1.0
C      1  0.4138600000000  0.5770700000000  0.5090230000000 1.0
C      1  0.5231770000000  0.6170360000000  0.5214050000000 1.0
C      1  0.4073360000000  0.5344450000000  0.5428810000000 1.0
C      1  0.3796680000000  0.5295420000000  0.3927740000000 1.0
C      1  0.3950240000000  0.4185600000000  0.5147350000000 1.0
C      1  0.5654960000000  0.3864050000000  0.5198600000000 1.0
C      1  0.4315480000000  0.5547940000000  0.5059680000000 1.0
C      1  0.6015260000000  0.4174560000000  0.5231200000000 1.0
C      1  0.6019320000000  0.5454690000000  0.5514760000000 1.0
C      1  0.6315400000000  0.5050880000000  0.5648300000000 1.0
C      1  0.4816640000000  0.4831290000000  0.5021480000000 1.0
C      1  0.5656070000000  0.4027670000000  0.4734090000000 1.0
C      1  0.4976590000000  0.3915320000000  0.5579960000000 1.0
C      1  0.3902250000000  0.4942790000000  0.4782550000000 1.0
C      1  0.4746350000000  0.3931040000000  0.5109930000000 1.0
C      1  0.5930300000000  0.4080980000000  0.4761720000000 1.0
C      1  0.4337690000000  0.5233590000000  0.4710850000000 1.0
C      1  0.4979940000000  0.4634590000000  0.6276140000000 1.0
C      1  0.4034080000000  0.5212450000000  0.5675890000000 1.0
C      1  0.6536580000000  0.4770200000000  0.4683060000000 1.0
C      1  0.5913470000000  0.5583650000000  0.4449300000000 1.0
C      1  0.5024080000000  0.5295470000000  0.5567340000000 1.0
C      1  0.5158770000000  0.5701340000000  0.5179570000000 1.0
C      1  0.4572530000000  0.5143930000000  0.5902050000000 1.0
C      1  0.6350730000000  0.4308000000000  0.5621920000000 1.0
C      1  0.5618540000000  0.4860270000000  0.4571040000000 1.0
C      1  0.4121340000000  0.4778810000000  0.5501170000000 1.0
C      1  0.4754770000000  0.4824290000000  0.4552740000000 1.0
C      1  0.5193620000000  0.4197830000000  0.4989260000000 1.0
C      1  0.4666970000000  0.5556090000000  0.4389280000000 1.0
C      1  0.4759440000000  0.4734340000000  0.3971210000000 1.0
C      1  0.4947670000000  0.5406100000000  0.3913200000000 1.0
C      1  0.4732170000000  0.4423930000000  0.5238920000000 1.0
C      1  0.4506640000000  0.4911990000000  0.5749200000000 1.0
C      1  0.5332360000000  0.5821080000000  0.5967440000000 1.0
C      1  0.4478490000000  0.5583380000000  0.3899200000000 1.0
C      1  0.5683220000000  0.4451330000000  0.3998110000000 1.0
C      1  0.5425460000000  0.5432860000000  0.4532210000000 1.0
C      1  0.6132190000000  0.4597820000000  0.5321910000000 1.0
C      1  0.5327690000000  0.6179840000000  0.4958020000000 1.0
C      1  0.5330730000000  0.5628090000000  0.4126220000000 1.0
C      1  0.4917700000000  0.4131970000000  0.4372750000000 1.0
C      1  0.5415400000000  0.5937050000000  0.4807820000000 1.0
C      1  0.5001520000000  0.4448880000000  0.5350230000000 1.0
C      1  0.4068600000000  0.4266140000000  0.4451250000000 1.0
C      1  0.5254560000000  0.3921670000000  0.4963150000000 1.0
C      1  0.4240650000000  0.4213160000000  0.5576120000000 1.0
C      1  0.4954430000000  0.4334960000000  0.4175220000000 1.0
C      1  0.3720750000000  0.5198170000000  0.4401080000000 1.0
C      1  0.4659320000000  0.5330270000000  0.3532330000000 1.0
C      1  0.4848960000000  0.4883970000000  0.6260560000000 1.0
C      1  0.6205730000000  0.4170730000000  0.5440990000000 1.0
C      1  0.4350040000000  0.5837770000000  0.5534010000000 1.0
C      1  0.5482250000000  0.4227920000000  0.4621830000000 1.0
C      1  0.5792260000000  0.5765610000000  0.5839270000000 1.0
C      1  0.4835250000000  0.3982140000000  0.4582330000000 1.0
C      1  0.4432220000000  0.5650440000000  0.5714710000000 1.0
C      1  0.5395380000000  0.5376910000000  0.6182940000000 1.0
C      1  0.3816190000000  0.5348710000000  0.5292200000000 1.0
C      1  0.5452910000000  0.4312640000000  0.4042540000000 1.0
C      1  0.4503000000000  0.5414430000000  0.5831840000000 1.0
C      1  0.4176670000000  0.4843670000000  0.4206280000000 1.0
C      1  0.5983480000000  0.5073380000000  0.4898860000000 1.0
C      1  0.4508670000000  0.4695950000000  0.4515310000000 1.0
C      1  0.5142330000000  0.4552320000000  0.6054840000000 1.0
C      1  0.5717510000000  0.4732680000000  0.4036280000000 1.0
C      1  0.3900280000000  0.4298330000000  0.4911060000000 1.0
C      1  0.5219250000000  0.5096250000000  0.5539730000000 1.0
C      1  0.4922100000000  0.4737520000000  0.4771020000000 1.0
C      1  0.3825130000000  0.5217860000000  0.4670390000000 1.0
C      1  0.5485930000000  0.4925430000000  0.6037390000000 1.0
C      1  0.4666780000000  0.6057590000000  0.4924870000000 1.0
C      1  0.3968150000000  0.4949680000000  0.5666830000000 1.0
C      1  0.4883720000000  0.5715710000000  0.4288460000000 1.0
C      1  0.4741980000000  0.4299530000000  0.6527380000000 1.0
C      1  0.4624450000000  0.4177420000000  0.5168690000000 1.0
C      1  0.4358900000000  0.4697180000000  0.5639880000000 1.0
C      1  0.4407440000000  0.5498840000000  0.4802100000000 1.0
C      1  0.4954640000000  0.4470820000000  0.6506280000000 1.0
C      1  0.4715780000000  0.4468100000000  0.4072770000000 1.0
C      1  0.5228730000000  0.4726260000000  0.4024500000000 1.0
C      1  0.5885640000000  0.4857450000000  0.4489440000000 1.0
C      1  0.5573390000000  0.5190690000000  0.6067200000000 1.0
C      1  0.6013970000000  0.5638440000000  0.4989570000000 1.0
C      1  0.5243790000000  0.5920890000000  0.5353580000000 1.0
C      1  0.5934240000000  0.5008210000000  0.5361500000000 1.0
END
