TITL C-627112-676-312 -27583.7427696652 125000 -699.799278388302 0 0 117 (C1) n - 1
REM
REM in /home/nfs/bkarasulu/CARBON/AIRSS/Generating-Clusters/LCBOP/Only-C1/SD-CG/FIRE-CG
REM
REM
REM
REM
REM
REM ./C.cell (11c1c37f851c82e70ff6c80c92926a4b)
REM AIRSS Version 0.9.1 bugfix July 2018 build 013d7b7c2542+ Fri, 06 Jul 2018 19:26:36 +0100
REM compiler GCC version 9.2.1 20190827 (Red Hat 9.2.1-1)
REM options -cpp -mtune=generic -march=x86-64 -g -O0 -fpre-include=/usr/include/finclude/math-vector-fortran.h
REM seed 1559270239 2040993354 -787083120 -1126468476 -2131624006 -1946479505 1019212361 -1499806096 1695473630 1546854269 -1167004972 16451135 -1874808434 -354734448 -787660442 -18894320 -983692795 1260932217 351361099 634559669 -292456180 1246144444 -710057771 304953582 -2078613617 1761387044 -1756422259 -78111410 -1582281545 -1379970464 1571557335 466310128 -440544673
REM
CELL 1.54180   50.00000   50.00000   50.00000   90.00000   90.00000   90.00000
LATT -1
SFAC C  
C      1  0.5785070000000  0.5137500000000  0.5500440000000 1.0
C      1  0.5768700000000  0.5699330000000  0.4826210000000 1.0
C      1  0.5187650000000  0.4046120000000  0.4852280000000 1.0
C      1  0.5517250000000  0.5557380000000  0.5439550000000 1.0
C      1  0.5422920000000  0.4797860000000  0.6005030000000 1.0
C      1  0.5904360000000  0.5181660000000  0.5014760000000 1.0
C      1  0.5306980000000  0.5139970000000  0.5541220000000 1.0
C      1  0.4730560000000  0.5914190000000  0.4957970000000 1.0
C      1  0.4821060000000  0.5357680000000  0.4654030000000 1.0
C      1  0.5888490000000  0.4851630000000  0.4417080000000 1.0
C      1  0.5084730000000  0.4691470000000  0.5522420000000 1.0
C      1  0.5155800000000  0.4627380000000  0.5038550000000 1.0
C      1  0.5230250000000  0.4909350000000  0.5393750000000 1.0
C      1  0.5437910000000  0.5547510000000  0.4340170000000 1.0
C      1  0.4767360000000  0.5307070000000  0.3835270000000 1.0
C      1  0.5109250000000  0.5719550000000  0.5627060000000 1.0
C      1  0.4550940000000  0.5046130000000  0.5586600000000 1.0
C      1  0.3870190000000  0.4162330000000  0.4354750000000 1.0
C      1  0.4403680000000  0.4322240000000  0.5088850000000 1.0
C      1  0.5020010000000  0.5682690000000  0.4033100000000 1.0
C      1  0.5276820000000  0.5698440000000  0.5389070000000 1.0
C      1  0.4093060000000  0.4943390000000  0.5162070000000 1.0
C      1  0.4969410000000  0.4765260000000  0.5771190000000 1.0
C      1  0.5586060000000  0.5896950000000  0.4745500000000 1.0
C      1  0.4976490000000  0.5476920000000  0.3847130000000 1.0
C      1  0.4521320000000  0.4854600000000  0.4636260000000 1.0
C      1  0.5087560000000  0.4362140000000  0.4169600000000 1.0
C      1  0.5277420000000  0.4856010000000  0.5123810000000 1.0
C      1  0.4670390000000  0.4833410000000  0.5776880000000 1.0
C      1  0.5086700000000  0.4447600000000  0.5394560000000 1.0
C      1  0.4833910000000  0.4087820000000  0.5190960000000 1.0
C      1  0.4909810000000  0.3976830000000  0.4929300000000 1.0
C      1  0.4911820000000  0.4544170000000  0.5030900000000 1.0
C      1  0.4013720000000  0.4877130000000  0.4462840000000 1.0
C      1  0.5636160000000  0.5424430000000  0.4185250000000 1.0
C      1  0.4989120000000  0.5628790000000  0.5872220000000 1.0
C      1  0.5741580000000  0.4655170000000  0.5424070000000 1.0
C      1  0.4096030000000  0.5111510000000  0.4604290000000 1.0
C      1  0.4498460000000  0.5294780000000  0.4995630000000 1.0
C      1  0.4484720000000  0.5134720000000  0.4241400000000 1.0
C      1  0.4791790000000  0.4754580000000  0.4184780000000 1.0
C      1  0.4151630000000  0.4433000000000  0.5153340000000 1.0
C      1  0.5304120000000  0.4892610000000  0.4647310000000 1.0
C      1  0.5148390000000  0.4233160000000  0.5775240000000 1.0
C      1  0.5221480000000  0.5705080000000  0.4240870000000 1.0
C      1  0.6044050000000  0.4473280000000  0.5095190000000 1.0
C      1  0.4721280000000  0.5496920000000  0.5922700000000 1.0
C      1  0.5964040000000  0.5203440000000  0.5293800000000 1.0
C      1  0.4505320000000  0.5800110000000  0.5634470000000 1.0
C      1  0.5068470000000  0.4295930000000  0.4444320000000 1.0
C      1  0.5168240000000  0.4902500000000  0.5934070000000 1.0
C      1  0.4641990000000  0.4336030000000  0.5577620000000 1.0
C      1  0.4760430000000  0.5763470000000  0.4418010000000 1.0
C      1  0.4122780000000  0.5147570000000  0.5360610000000 1.0
C      1  0.5544430000000  0.5286140000000  0.5497780000000 1.0
C      1  0.5048080000000  0.4745560000000  0.4594290000000 1.0
C      1  0.4496010000000  0.4415430000000  0.4831440000000 1.0
C      1  0.5272840000000  0.4203090000000  0.4625780000000 1.0
C      1  0.4132060000000  0.4679250000000  0.5287560000000 1.0
C      1  0.4654310000000  0.5740930000000  0.5418930000000 1.0
C      1  0.4996030000000  0.5343250000000  0.6249370000000 1.0
C      1  0.5110940000000  0.5850780000000  0.4476230000000 1.0
C      1  0.4771120000000  0.5791980000000  0.4137590000000 1.0
C      1  0.4926270000000  0.5293100000000  0.4905260000000 1.0
C      1  0.4308120000000  0.5196470000000  0.5567100000000 1.0
C      1  0.4612430000000  0.4904100000000  0.4357800000000 1.0
C      1  0.5765540000000  0.4874560000000  0.5612100000000 1.0
C      1  0.5558740000000  0.4014200000000  0.5183940000000 1.0
C      1  0.4474510000000  0.5592550000000  0.5822320000000 1.0
C      1  0.5094830000000  0.4192320000000  0.5290100000000 1.0
C      1  0.5403730000000  0.4302730000000  0.5693520000000 1.0
C      1  0.5785160000000  0.4804180000000  0.4676960000000 1.0
C      1  0.5591290000000  0.4430500000000  0.5536430000000 1.0
C      1  0.5197590000000  0.5280050000000  0.4938520000000 1.0
C      1  0.4257420000000  0.4655820000000  0.5546510000000 1.0
C      1  0.4365330000000  0.4604220000000  0.4660000000000 1.0
C      1  0.5224620000000  0.5060600000000  0.4169970000000 1.0
C      1  0.4373870000000  0.5548690000000  0.4949940000000 1.0
C      1  0.5526200000000  0.4682520000000  0.4659040000000 1.0
C      1  0.5307220000000  0.4092460000000  0.5117160000000 1.0
C      1  0.4753890000000  0.5264580000000  0.6106250000000 1.0
C      1  0.5762470000000  0.4919320000000  0.4168710000000 1.0
C      1  0.4873940000000  0.4238760000000  0.5734360000000 1.0
C      1  0.4116410000000  0.4612880000000  0.4516610000000 1.0
C      1  0.5268320000000  0.4807410000000  0.4048950000000 1.0
C      1  0.4451320000000  0.5045330000000  0.4860580000000 1.0
C      1  0.4657290000000  0.5002670000000  0.6041750000000 1.0
C      1  0.5870340000000  0.4682540000000  0.5157720000000 1.0
C      1  0.4158870000000  0.5030550000000  0.4884760000000 1.0
C      1  0.5479750000000  0.4401020000000  0.4654370000000 1.0
C      1  0.5215010000000  0.5729290000000  0.5102210000000 1.0
C      1  0.4564920000000  0.5214110000000  0.3984620000000 1.0
C      1  0.4772870000000  0.4444100000000  0.4814170000000 1.0
C      1  0.5659950000000  0.4828010000000  0.5873850000000 1.0
C      1  0.4600190000000  0.4228300000000  0.5294610000000 1.0
C      1  0.5422840000000  0.5513520000000  0.4626970000000 1.0
C      1  0.5299820000000  0.5089440000000  0.4427220000000 1.0
C      1  0.4277510000000  0.5401950000000  0.5757120000000 1.0
C      1  0.5317230000000  0.5531990000000  0.4901750000000 1.0
C      1  0.5331230000000  0.5957150000000  0.4640940000000 1.0
C      1  0.4488750000000  0.5795000000000  0.4933510000000 1.0
C      1  0.5040640000000  0.4632480000000  0.4085520000000 1.0
C      1  0.5757830000000  0.5197340000000  0.4110860000000 1.0
C      1  0.5553280000000  0.4758370000000  0.4045870000000 1.0
C      1  0.5200460000000  0.5154250000000  0.5801500000000 1.0
C      1  0.4762480000000  0.5515860000000  0.5319270000000 1.0
C      1  0.3984230000000  0.4383150000000  0.4433140000000 1.0
C      1  0.5130780000000  0.5548770000000  0.6116230000000 1.0
C      1  0.5855490000000  0.5440600000000  0.4883320000000 1.0
C      1  0.4749670000000  0.5324690000000  0.5119110000000 1.0
C      1  0.4358160000000  0.5299700000000  0.4437190000000 1.0
C      1  0.5857930000000  0.4897050000000  0.4943450000000 1.0
C      1  0.4990460000000  0.5889230000000  0.5026280000000 1.0
C      1  0.4918080000000  0.4494290000000  0.4582980000000 1.0
C      1  0.4511030000000  0.4584930000000  0.5666790000000 1.0
C      1  0.4637020000000  0.5517380000000  0.4515150000000 1.0
C      1  0.5313120000000  0.5031720000000  0.4912320000000 1.0
END
