TITL C-627111-6168-530 1.8149276661898 125000 -350.527817770336 0 0 59 (C1) n - 1
REM
REM in /home/nfs/bkarasulu/CARBON/AIRSS/Generating-Clusters/LCBOP/Only-C1/SD-CG/FIRE-CG
REM
REM
REM
REM
REM
REM ./C.cell (11c1c37f851c82e70ff6c80c92926a4b)
REM AIRSS Version 0.9.1 bugfix July 2018 build 013d7b7c2542+ Fri, 06 Jul 2018 19:26:36 +0100
REM compiler GCC version 9.2.1 20190827 (Red Hat 9.2.1-1)
REM options -cpp -mtune=generic -march=x86-64 -g -O0 -fpre-include=/usr/include/finclude/math-vector-fortran.h
REM seed -1437252244 -1410957390 -1453272574 854100575 1386514593 -1416208949 -1841090409 1244171555 -2066443863 -1549127072 -1112096008 -499549057 75836335 -1485108427 347175849 703263276 -474038464 -1209434708 -1071734072 -1056015809 -1696633618 -952998661 1142874602 -805506218 1638245248 333202404 -1571553384 -251476269 -1465808885 -1071476635 -54860174 1037576560 -184746351
REM
CELL 1.54180   50.00000   50.00000   50.00000   90.00000   90.00000   90.00000
LATT -1
SFAC C  
C      1  0.5132590000000  0.4354000000000  0.4760480000000 1.0
C      1  0.5079430000000  0.5425810000000  0.5094310000000 1.0
C      1  0.4840900000000  0.5569540000000  0.4586870000000 1.0
C      1  0.5456800000000  0.4832900000000  0.4790670000000 1.0
C      1  0.5006570000000  0.5877740000000  0.4908000000000 1.0
C      1  0.4930070000000  0.4820570000000  0.5815110000000 1.0
C      1  0.4458200000000  0.4785440000000  0.5004320000000 1.0
C      1  0.5545270000000  0.4399700000000  0.5829870000000 1.0
C      1  0.4876750000000  0.5838640000000  0.4672670000000 1.0
C      1  0.4961520000000  0.5083370000000  0.4611160000000 1.0
C      1  0.4472620000000  0.5743530000000  0.4924910000000 1.0
C      1  0.4573710000000  0.5318210000000  0.5441190000000 1.0
C      1  0.4495440000000  0.5343300000000  0.4271810000000 1.0
C      1  0.5107500000000  0.4608370000000  0.5774970000000 1.0
C      1  0.4952240000000  0.4682430000000  0.5063160000000 1.0
C      1  0.4693260000000  0.4564310000000  0.4663860000000 1.0
C      1  0.5297240000000  0.5472100000000  0.4598540000000 1.0
C      1  0.5136810000000  0.4540560000000  0.4539640000000 1.0
C      1  0.5160620000000  0.4134700000000  0.5689940000000 1.0
C      1  0.5579330000000  0.5260400000000  0.4273950000000 1.0
C      1  0.5133550000000  0.5086200000000  0.4359940000000 1.0
C      1  0.5682650000000  0.4751720000000  0.4934680000000 1.0
C      1  0.5268880000000  0.4380750000000  0.5765670000000 1.0
C      1  0.5289370000000  0.5035710000000  0.4906670000000 1.0
C      1  0.4411490000000  0.4890840000000  0.5265730000000 1.0
C      1  0.5545980000000  0.5453580000000  0.4461640000000 1.0
C      1  0.5817130000000  0.4555820000000  0.5395380000000 1.0
C      1  0.5059840000000  0.3908890000000  0.5607680000000 1.0
C      1  0.4392270000000  0.4948280000000  0.4776760000000 1.0
C      1  0.4384460000000  0.5180760000000  0.5274110000000 1.0
C      1  0.4353230000000  0.5310210000000  0.5023270000000 1.0
C      1  0.4775120000000  0.4915130000000  0.5600120000000 1.0
C      1  0.4574980000000  0.5596410000000  0.5401940000000 1.0
C      1  0.5726760000000  0.4469910000000  0.5629370000000 1.0
C      1  0.4547910000000  0.4780970000000  0.5491030000000 1.0
C      1  0.5061130000000  0.5512910000000  0.4410160000000 1.0
C      1  0.4939370000000  0.5680670000000  0.5100080000000 1.0
C      1  0.4495180000000  0.5214340000000  0.4792600000000 1.0
C      1  0.4653040000000  0.5701410000000  0.5152380000000 1.0
C      1  0.4817920000000  0.5167100000000  0.5467540000000 1.0
C      1  0.5632520000000  0.4349320000000  0.6090090000000 1.0
C      1  0.5488730000000  0.4783950000000  0.4311660000000 1.0
C      1  0.4386060000000  0.5535000000000  0.4437570000000 1.0
C      1  0.5709360000000  0.4301780000000  0.6334530000000 1.0
C      1  0.4997950000000  0.5183230000000  0.5245990000000 1.0
C      1  0.4991090000000  0.5299780000000  0.4224050000000 1.0
C      1  0.4379640000000  0.5680960000000  0.4672050000000 1.0
C      1  0.5259280000000  0.5337470000000  0.4863460000000 1.0
C      1  0.4755210000000  0.5294930000000  0.4688700000000 1.0
C      1  0.4867630000000  0.4646860000000  0.4447690000000 1.0
C      1  0.5080200000000  0.4942010000000  0.5098590000000 1.0
C      1  0.5382030000000  0.4686950000000  0.4551000000000 1.0
C      1  0.5804410000000  0.4654310000000  0.5149340000000 1.0
C      1  0.5108700000000  0.4447300000000  0.5017050000000 1.0
C      1  0.5399860000000  0.5042380000000  0.4259460000000 1.0
C      1  0.4906380000000  0.4935150000000  0.6062520000000 1.0
C      1  0.4750920000000  0.4865580000000  0.4269840000000 1.0
C      1  0.4692750000000  0.4646550000000  0.4938320000000 1.0
C      1  0.4720150000000  0.5169290000000  0.4205920000000 1.0
END
