TITL C-627112-676-1681 -19.9475242571235 125000 -1033.05968690133 0 0 169 (C1) n - 1
REM
REM in /home/nfs/bkarasulu/CARBON/AIRSS/Generating-Clusters/LCBOP/Only-C1/SD-CG/FIRE-CG
REM
REM
REM
REM
REM
REM ./C.cell (11c1c37f851c82e70ff6c80c92926a4b)
REM AIRSS Version 0.9.1 bugfix July 2018 build 013d7b7c2542+ Fri, 06 Jul 2018 19:26:36 +0100
REM compiler GCC version 9.2.1 20190827 (Red Hat 9.2.1-1)
REM options -cpp -mtune=generic -march=x86-64 -g -O0 -fpre-include=/usr/include/finclude/math-vector-fortran.h
REM seed 785292805 -1556554993 1259413251 -832826764 -1569051202 995720629 -1745921012 -1682309704 -466065163 215753918 -736312533 -579484726 -621184848 1361041875 -60520814 616511279 -63089227 -128265741 1411145909 1570003432 -1257710267 1814250769 -1313450560 -1078918820 -1389787300 1079455540 -1680636045 2145106188 -244412940 -1794685637 102688363 -1688233772 821058746
REM
CELL 1.54180   50.00000   50.00000   50.00000   90.00000   90.00000   90.00000
LATT -1
SFAC C  
C      1  0.4933470000000  0.4545220000000  0.6001500000000 1.0
C      1  0.3971210000000  0.4104110000000  0.5499670000000 1.0
C      1  0.4163850000000  0.3953860000000  0.5387430000000 1.0
C      1  0.5943920000000  0.5313840000000  0.5375920000000 1.0
C      1  0.5236750000000  0.5454770000000  0.5112280000000 1.0
C      1  0.5408490000000  0.5346230000000  0.4525920000000 1.0
C      1  0.5100190000000  0.4296170000000  0.5507620000000 1.0
C      1  0.5000050000000  0.4723920000000  0.6225030000000 1.0
C      1  0.4505180000000  0.5278630000000  0.4474110000000 1.0
C      1  0.5212120000000  0.4429440000000  0.5934240000000 1.0
C      1  0.4654080000000  0.5037280000000  0.6401040000000 1.0
C      1  0.4858000000000  0.4854190000000  0.5527980000000 1.0
C      1  0.5256820000000  0.4237140000000  0.5737040000000 1.0
C      1  0.4871140000000  0.4850290000000  0.5015370000000 1.0
C      1  0.4950600000000  0.4438200000000  0.4516080000000 1.0
C      1  0.4619910000000  0.4841390000000  0.4871290000000 1.0
C      1  0.5408010000000  0.6127430000000  0.4938290000000 1.0
C      1  0.4588720000000  0.4808610000000  0.4335090000000 1.0
C      1  0.5366200000000  0.5582300000000  0.4672240000000 1.0
C      1  0.5035420000000  0.5395320000000  0.6077870000000 1.0
C      1  0.6135200000000  0.5100470000000  0.5478590000000 1.0
C      1  0.5652240000000  0.5205740000000  0.4577040000000 1.0
C      1  0.3890950000000  0.4818930000000  0.5455010000000 1.0
C      1  0.5339370000000  0.4942940000000  0.4859820000000 1.0
C      1  0.4349560000000  0.5843970000000  0.4678590000000 1.0
C      1  0.4313550000000  0.5636480000000  0.4245160000000 1.0
C      1  0.4788720000000  0.6506310000000  0.5069600000000 1.0
C      1  0.4635050000000  0.3902520000000  0.4794140000000 1.0
C      1  0.4477420000000  0.5115970000000  0.5609040000000 1.0
C      1  0.4399800000000  0.6860020000000  0.5069800000000 1.0
C      1  0.5078560000000  0.5025160000000  0.4938930000000 1.0
C      1  0.6111520000000  0.4653780000000  0.5298180000000 1.0
C      1  0.4178640000000  0.5691950000000  0.4503740000000 1.0
C      1  0.5536690000000  0.5091140000000  0.5539490000000 1.0
C      1  0.4673250000000  0.4579550000000  0.5846560000000 1.0
C      1  0.3995810000000  0.4344480000000  0.5644480000000 1.0
C      1  0.3866340000000  0.4580100000000  0.5569550000000 1.0
C      1  0.5611650000000  0.4125010000000  0.5399640000000 1.0
C      1  0.4007940000000  0.5400380000000  0.4893750000000 1.0
C      1  0.4854420000000  0.5445500000000  0.4768830000000 1.0
C      1  0.5028190000000  0.5876160000000  0.4833810000000 1.0
C      1  0.5563290000000  0.4410790000000  0.4188340000000 1.0
C      1  0.5002350000000  0.5311720000000  0.4988150000000 1.0
C      1  0.4352290000000  0.4691190000000  0.4221620000000 1.0
C      1  0.4274950000000  0.5340200000000  0.5583560000000 1.0
C      1  0.4749240000000  0.5823720000000  0.4338650000000 1.0
C      1  0.4795360000000  0.5722790000000  0.4804020000000 1.0
C      1  0.5565850000000  0.6045330000000  0.4439250000000 1.0
C      1  0.4775640000000  0.5314950000000  0.4533960000000 1.0
C      1  0.5737460000000  0.5195920000000  0.4845270000000 1.0
C      1  0.5536570000000  0.6124350000000  0.4697860000000 1.0
C      1  0.5851070000000  0.4279190000000  0.5412410000000 1.0
C      1  0.5939840000000  0.5513380000000  0.5616060000000 1.0
C      1  0.4601510000000  0.4768550000000  0.4609240000000 1.0
C      1  0.5558610000000  0.4435810000000  0.4746850000000 1.0
C      1  0.4057320000000  0.5289510000000  0.5392320000000 1.0
C      1  0.5215000000000  0.5222270000000  0.4364850000000 1.0
C      1  0.4031830000000  0.5012690000000  0.5314280000000 1.0
C      1  0.5656850000000  0.4768290000000  0.5920260000000 1.0
C      1  0.5687040000000  0.5151780000000  0.5313910000000 1.0
C      1  0.4798310000000  0.4746440000000  0.5277870000000 1.0
C      1  0.4510100000000  0.4352070000000  0.5739120000000 1.0
C      1  0.5432240000000  0.4597860000000  0.6034190000000 1.0
C      1  0.4400990000000  0.4794250000000  0.5057780000000 1.0
C      1  0.5890090000000  0.4410010000000  0.5667380000000 1.0
C      1  0.4441870000000  0.3980250000000  0.5340260000000 1.0
C      1  0.5658030000000  0.4683720000000  0.4131230000000 1.0
C      1  0.5294530000000  0.4756220000000  0.6237950000000 1.0
C      1  0.4626630000000  0.5830710000000  0.4606310000000 1.0
C      1  0.5572030000000  0.5049780000000  0.6003900000000 1.0
C      1  0.3744110000000  0.5040820000000  0.4459550000000 1.0
C      1  0.3909880000000  0.5277090000000  0.4421520000000 1.0
C      1  0.4964970000000  0.3539320000000  0.4815050000000 1.0
C      1  0.5280720000000  0.5709490000000  0.4141990000000 1.0
C      1  0.5093280000000  0.4447190000000  0.4054720000000 1.0
C      1  0.4232820000000  0.4364140000000  0.5795790000000 1.0
C      1  0.5870530000000  0.4693950000000  0.5728420000000 1.0
C      1  0.4411460000000  0.4404470000000  0.4188140000000 1.0
C      1  0.5388780000000  0.4728570000000  0.4669320000000 1.0
C      1  0.3985540000000  0.5493070000000  0.4609090000000 1.0
C      1  0.4400570000000  0.5603710000000  0.5556100000000 1.0
C      1  0.5089040000000  0.4567870000000  0.4315260000000 1.0
C      1  0.4543510000000  0.3892820000000  0.5076280000000 1.0
C      1  0.4895300000000  0.5710530000000  0.5730440000000 1.0
C      1  0.5923130000000  0.4744110000000  0.4057910000000 1.0
C      1  0.5084080000000  0.5005930000000  0.5575620000000 1.0
C      1  0.4613450000000  0.4353430000000  0.3992220000000 1.0
C      1  0.4309050000000  0.5922920000000  0.4946040000000 1.0
C      1  0.4897520000000  0.4982660000000  0.6294460000000 1.0
C      1  0.5491110000000  0.5516120000000  0.5788800000000 1.0
C      1  0.4118790000000  0.4863050000000  0.4227740000000 1.0
C      1  0.5800690000000  0.5764150000000  0.5545370000000 1.0
C      1  0.5448270000000  0.5552300000000  0.4944710000000 1.0
C      1  0.4628160000000  0.4856940000000  0.5713840000000 1.0
C      1  0.5334280000000  0.5955280000000  0.5533960000000 1.0
C      1  0.3974240000000  0.5466430000000  0.5172830000000 1.0
C      1  0.4913330000000  0.4351550000000  0.4761130000000 1.0
C      1  0.4844280000000  0.5833390000000  0.5476560000000 1.0
C      1  0.5372650000000  0.6211650000000  0.5634920000000 1.0
C      1  0.5426980000000  0.4213500000000  0.4917450000000 1.0
C      1  0.3860770000000  0.4810610000000  0.4354360000000 1.0
C      1  0.4567340000000  0.4364550000000  0.5132900000000 1.0
C      1  0.5333120000000  0.4895500000000  0.5504880000000 1.0
C      1  0.4621970000000  0.5138350000000  0.3760770000000 1.0
C      1  0.6266090000000  0.4812350000000  0.4468460000000 1.0
C      1  0.4535460000000  0.5799520000000  0.4147350000000 1.0
C      1  0.5607120000000  0.4726120000000  0.5146070000000 1.0
C      1  0.5913660000000  0.5533390000000  0.5149180000000 1.0
C      1  0.4594370000000  0.6686510000000  0.5070030000000 1.0
C      1  0.5720820000000  0.5459400000000  0.4962260000000 1.0
C      1  0.5209280000000  0.3517010000000  0.5295470000000 1.0
C      1  0.5550190000000  0.5234090000000  0.5787980000000 1.0
C      1  0.5048050000000  0.5773830000000  0.4332250000000 1.0
C      1  0.4783790000000  0.5308030000000  0.5195710000000 1.0
C      1  0.5426190000000  0.4213140000000  0.5195970000000 1.0
C      1  0.6041730000000  0.4831350000000  0.5519650000000 1.0
C      1  0.4902820000000  0.3801690000000  0.4718550000000 1.0
C      1  0.5532560000000  0.4289110000000  0.4459070000000 1.0
C      1  0.4365300000000  0.5338630000000  0.4206480000000 1.0
C      1  0.4771680000000  0.4297340000000  0.4975590000000 1.0
C      1  0.5950740000000  0.4441000000000  0.5187920000000 1.0
C      1  0.4479430000000  0.4039790000000  0.4593060000000 1.0
C      1  0.4429190000000  0.5917970000000  0.5186380000000 1.0
C      1  0.5357990000000  0.5166570000000  0.4117450000000 1.0
C      1  0.4866820000000  0.4155260000000  0.5484070000000 1.0
C      1  0.5492200000000  0.5897120000000  0.4221950000000 1.0
C      1  0.4161530000000  0.5156490000000  0.4873980000000 1.0
C      1  0.5483670000000  0.4080590000000  0.5658430000000 1.0
C      1  0.5992780000000  0.4765760000000  0.3794390000000 1.0
C      1  0.5364030000000  0.5040660000000  0.6207010000000 1.0
C      1  0.5114950000000  0.3931240000000  0.4568290000000 1.0
C      1  0.4834460000000  0.4672210000000  0.3707450000000 1.0
C      1  0.5085740000000  0.5292740000000  0.5601080000000 1.0
C      1  0.4349100000000  0.5163830000000  0.4672270000000 1.0
C      1  0.5390030000000  0.4673950000000  0.5332300000000 1.0
C      1  0.5178830000000  0.5782830000000  0.4603810000000 1.0
C      1  0.4507970000000  0.5281450000000  0.3954520000000 1.0
C      1  0.5882720000000  0.5793350000000  0.5272110000000 1.0
C      1  0.5127790000000  0.6056110000000  0.5055710000000 1.0
C      1  0.4536140000000  0.5920580000000  0.3903150000000 1.0
C      1  0.5293210000000  0.4751950000000  0.4398260000000 1.0
C      1  0.4741370000000  0.4919210000000  0.3666420000000 1.0
C      1  0.4394390000000  0.4213100000000  0.4402200000000 1.0
C      1  0.5339810000000  0.4060050000000  0.4479400000000 1.0
C      1  0.4637950000000  0.5188400000000  0.5376220000000 1.0
C      1  0.4121600000000  0.5167730000000  0.4234600000000 1.0
C      1  0.5100180000000  0.5931840000000  0.5348370000000 1.0
C      1  0.4806210000000  0.4958030000000  0.4234140000000 1.0
C      1  0.4896970000000  0.3318810000000  0.4668190000000 1.0
C      1  0.4988180000000  0.5459070000000  0.5811210000000 1.0
C      1  0.4534510000000  0.4618400000000  0.5240460000000 1.0
C      1  0.5095700000000  0.3514450000000  0.5060920000000 1.0
C      1  0.4561170000000  0.5795870000000  0.5403920000000 1.0
C      1  0.4176320000000  0.4957970000000  0.5074500000000 1.0
C      1  0.4592080000000  0.4147850000000  0.5536980000000 1.0
C      1  0.5756540000000  0.4537310000000  0.4987420000000 1.0
C      1  0.5526870000000  0.5756920000000  0.5630760000000 1.0
C      1  0.5596100000000  0.5005620000000  0.5037920000000 1.0
C      1  0.5106900000000  0.5175920000000  0.6232690000000 1.0
C      1  0.6113270000000  0.4781680000000  0.4259570000000 1.0
C      1  0.4944830000000  0.5165460000000  0.4369990000000 1.0
C      1  0.5350210000000  0.4336060000000  0.4004880000000 1.0
C      1  0.5260510000000  0.4419450000000  0.5312460000000 1.0
C      1  0.4857040000000  0.4465110000000  0.3897090000000 1.0
C      1  0.5220940000000  0.5430500000000  0.5390710000000 1.0
C      1  0.4965580000000  0.6309400000000  0.5067160000000 1.0
C      1  0.6397360000000  0.5166400000000  0.5525370000000 1.0
C      1  0.5452380000000  0.4885520000000  0.4179090000000 1.0
C      1  0.5356960000000  0.5446820000000  0.4008910000000 1.0
END
