TITL C-627108-131-1763 0.915272503797804 125000 -526.577846414809 0 0 87 (C1) n - 1
REM
REM in /home/nfs/bkarasulu/CARBON/AIRSS/Generating-Clusters/LCBOP/Only-C1/SD-CG/FIRE-CG
REM
REM
REM
REM
REM
REM ./C.cell (11c1c37f851c82e70ff6c80c92926a4b)
REM AIRSS Version 0.9.1 bugfix July 2018 build 013d7b7c2542+ Fri, 06 Jul 2018 19:26:36 +0100
REM compiler GCC version 9.2.1 20190827 (Red Hat 9.2.1-1)
REM options -cpp -mtune=generic -march=x86-64 -g -O0 -fpre-include=/usr/include/finclude/math-vector-fortran.h
REM seed -1385033439 173200578 -1375892903 363482429 -410240670 -1281431460 2043898366 638068471 -471170851 86600630 -1586109523 -866229664 -1636046096 -1249046979 -231146640 -1698850066 1921315472 608983215 -815168161 -1839411549 -504192639 -1693987546 1736171823 -1702539611 -638726703 -638760785 -1105188928 -803552549 -56392955 1813319700 -1728435974 -1531281556 -678792567
REM
CELL 1.54180   50.00000   50.00000   50.00000   90.00000   90.00000   90.00000
LATT -1
SFAC C  
C      1  0.4800340000000  0.5609160000000  0.5498690000000 1.0
C      1  0.4718890000000  0.4126830000000  0.4866410000000 1.0
C      1  0.5309260000000  0.4942080000000  0.5227680000000 1.0
C      1  0.5172220000000  0.5148760000000  0.5387970000000 1.0
C      1  0.4360480000000  0.4409300000000  0.4584510000000 1.0
C      1  0.5515760000000  0.5118100000000  0.4622150000000 1.0
C      1  0.5286640000000  0.4949790000000  0.4683060000000 1.0
C      1  0.4380850000000  0.4577010000000  0.5489870000000 1.0
C      1  0.4810000000000  0.5354780000000  0.5624880000000 1.0
C      1  0.5707790000000  0.5039000000000  0.5778530000000 1.0
C      1  0.5609700000000  0.4270210000000  0.4978350000000 1.0
C      1  0.3984850000000  0.4933810000000  0.5096300000000 1.0
C      1  0.5626790000000  0.4502290000000  0.5641190000000 1.0
C      1  0.4566950000000  0.5355950000000  0.4895160000000 1.0
C      1  0.5587860000000  0.4567630000000  0.5370540000000 1.0
C      1  0.4986980000000  0.5029640000000  0.3845700000000 1.0
C      1  0.5037030000000  0.5228730000000  0.4971760000000 1.0
C      1  0.5031550000000  0.5301690000000  0.4256910000000 1.0
C      1  0.5346180000000  0.5332220000000  0.5824250000000 1.0
C      1  0.4988650000000  0.5005150000000  0.3586260000000 1.0
C      1  0.4451460000000  0.6157010000000  0.5159480000000 1.0
C      1  0.5636970000000  0.5177670000000  0.4371800000000 1.0
C      1  0.4732390000000  0.5582590000000  0.4511700000000 1.0
C      1  0.5312750000000  0.4339770000000  0.4615420000000 1.0
C      1  0.4340250000000  0.5300760000000  0.4466960000000 1.0
C      1  0.4522520000000  0.5912800000000  0.5233580000000 1.0
C      1  0.4796460000000  0.4957500000000  0.4703180000000 1.0
C      1  0.5595420000000  0.5286020000000  0.4850140000000 1.0
C      1  0.5186680000000  0.4357140000000  0.5196810000000 1.0
C      1  0.4400560000000  0.4798090000000  0.5302920000000 1.0
C      1  0.5763120000000  0.4179640000000  0.4525630000000 1.0
C      1  0.5179350000000  0.5509790000000  0.4693800000000 1.0
C      1  0.3874740000000  0.4743590000000  0.4945330000000 1.0
C      1  0.4381570000000  0.6396860000000  0.5085000000000 1.0
C      1  0.4781780000000  0.5174220000000  0.4878740000000 1.0
C      1  0.5604200000000  0.5739600000000  0.4721810000000 1.0
C      1  0.4453120000000  0.4840770000000  0.4257170000000 1.0
C      1  0.4198570000000  0.4375880000000  0.4815050000000 1.0
C      1  0.4628890000000  0.4446680000000  0.4492330000000 1.0
C      1  0.4680430000000  0.4675790000000  0.4311990000000 1.0
C      1  0.5462510000000  0.5530350000000  0.5638300000000 1.0
C      1  0.5322690000000  0.5581620000000  0.5169300000000 1.0
C      1  0.5036880000000  0.4687780000000  0.5870740000000 1.0
C      1  0.4633610000000  0.4447470000000  0.5563200000000 1.0
C      1  0.4579300000000  0.4185550000000  0.5112690000000 1.0
C      1  0.4271470000000  0.5279910000000  0.5287510000000 1.0
C      1  0.4220730000000  0.5003990000000  0.5230620000000 1.0
C      1  0.5052080000000  0.4510860000000  0.4995360000000 1.0
C      1  0.4506710000000  0.5457480000000  0.4633540000000 1.0
C      1  0.5773110000000  0.5196040000000  0.5051000000000 1.0
C      1  0.5429410000000  0.5554070000000  0.4879210000000 1.0
C      1  0.5499740000000  0.4579890000000  0.5865320000000 1.0
C      1  0.5429090000000  0.5054150000000  0.5867300000000 1.0
C      1  0.5569420000000  0.4259630000000  0.4699530000000 1.0
C      1  0.5042800000000  0.5762380000000  0.5515430000000 1.0
C      1  0.4840050000000  0.4681670000000  0.5074390000000 1.0
C      1  0.5219930000000  0.4995540000000  0.4957890000000 1.0
C      1  0.4312380000000  0.4259730000000  0.5049610000000 1.0
C      1  0.5729920000000  0.5457990000000  0.5563000000000 1.0
C      1  0.5470630000000  0.4374030000000  0.5199220000000 1.0
C      1  0.4115870000000  0.5403550000000  0.5477390000000 1.0
C      1  0.4683700000000  0.4824680000000  0.5259660000000 1.0
C      1  0.5136910000000  0.5363150000000  0.5195280000000 1.0
C      1  0.5762190000000  0.5049940000000  0.5294130000000 1.0
C      1  0.4983580000000  0.5051720000000  0.4122740000000 1.0
C      1  0.5066180000000  0.4406170000000  0.4728690000000 1.0
C      1  0.5036220000000  0.4879260000000  0.4554470000000 1.0
C      1  0.4934260000000  0.4825160000000  0.4294850000000 1.0
C      1  0.5722450000000  0.5656230000000  0.4492330000000 1.0
C      1  0.4943660000000  0.5117830000000  0.5549800000000 1.0
C      1  0.5564570000000  0.4840890000000  0.5293430000000 1.0
C      1  0.4334520000000  0.5071380000000  0.4327360000000 1.0
C      1  0.4817010000000  0.4297000000000  0.4653570000000 1.0
C      1  0.4829320000000  0.4647200000000  0.5679500000000 1.0
C      1  0.5797610000000  0.5180850000000  0.5546830000000 1.0
C      1  0.4998130000000  0.5483440000000  0.4475640000000 1.0
C      1  0.4723610000000  0.4246860000000  0.5365520000000 1.0
C      1  0.5762480000000  0.5433170000000  0.4322480000000 1.0
C      1  0.5305900000000  0.4787700000000  0.5898680000000 1.0
C      1  0.5638710000000  0.4986020000000  0.4175280000000 1.0
C      1  0.4474940000000  0.5432140000000  0.5154150000000 1.0
C      1  0.3956250000000  0.4514380000000  0.4834990000000 1.0
C      1  0.5311460000000  0.5686660000000  0.5444040000000 1.0
C      1  0.4600030000000  0.5651590000000  0.5296650000000 1.0
C      1  0.5007780000000  0.4208940000000  0.5357190000000 1.0
C      1  0.4811920000000  0.4877960000000  0.5507660000000 1.0
C      1  0.5928300000000  0.5461700000000  0.4105510000000 1.0
END
