TITL C-627113-6568-791 110.019042435961 125000 -832.470410347129 0 0 137 (C1) n - 1
REM
REM in /home/nfs/bkarasulu/CARBON/AIRSS/Generating-Clusters/LCBOP/Only-C1/SD-CG/FIRE-CG
REM
REM
REM
REM
REM
REM ./C.cell (11c1c37f851c82e70ff6c80c92926a4b)
REM AIRSS Version 0.9.1 bugfix July 2018 build 013d7b7c2542+ Fri, 06 Jul 2018 19:26:36 +0100
REM compiler GCC version 9.2.1 20190827 (Red Hat 9.2.1-1)
REM options -cpp -mtune=generic -march=x86-64 -g -O0 -fpre-include=/usr/include/finclude/math-vector-fortran.h
REM seed 245810241 1041340403 -1216314344 435064310 -1457844563 1740306141 1238375698 -50571153 1509916630 1479256531 1422072320 -1227330341 1626328084 -349956808 1522535496 1197374075 -1445024162 -1312260949 490275440 1140940724 1293178941 2131738498 528544715 1448254907 -1524406705 -1432023235 1537992757 -779743713 696503065 2067662880 87224693 978097805 2117040767
REM
CELL 1.54180   50.00000   50.00000   50.00000   90.00000   90.00000   90.00000
LATT -1
SFAC C  
C      1  0.4600450000000  0.4620630000000  0.4513320000000 1.0
C      1  0.5170240000000  0.5303170000000  0.5239740000000 1.0
C      1  0.4949750000000  0.4102420000000  0.5383690000000 1.0
C      1  0.4472420000000  0.3957760000000  0.5567140000000 1.0
C      1  0.5259010000000  0.6497940000000  0.5293690000000 1.0
C      1  0.4269960000000  0.4362770000000  0.5762650000000 1.0
C      1  0.4217210000000  0.4639630000000  0.5700570000000 1.0
C      1  0.5843100000000  0.4845870000000  0.4340100000000 1.0
C      1  0.5932810000000  0.5096280000000  0.4475020000000 1.0
C      1  0.5363800000000  0.4638060000000  0.4395640000000 1.0
C      1  0.4922250000000  0.6075590000000  0.5808940000000 1.0
C      1  0.5601230000000  0.5144110000000  0.5313850000000 1.0
C      1  0.4948190000000  0.5557940000000  0.4207800000000 1.0
C      1  0.5552820000000  0.4861240000000  0.5277290000000 1.0
C      1  0.5036260000000  0.4015730000000  0.5123180000000 1.0
C      1  0.5785490000000  0.5703150000000  0.5292040000000 1.0
C      1  0.6023500000000  0.5386700000000  0.4919560000000 1.0
C      1  0.3602260000000  0.4521380000000  0.4529120000000 1.0
C      1  0.5825060000000  0.5596480000000  0.4561660000000 1.0
C      1  0.4482550000000  0.4959860000000  0.4958420000000 1.0
C      1  0.5512030000000  0.4953580000000  0.4705290000000 1.0
C      1  0.5284350000000  0.4762020000000  0.5279900000000 1.0
C      1  0.5298220000000  0.5752350000000  0.5838780000000 1.0
C      1  0.5795250000000  0.4709720000000  0.5257510000000 1.0
C      1  0.5191630000000  0.4743780000000  0.3999940000000 1.0
C      1  0.4894680000000  0.4132480000000  0.4893420000000 1.0
C      1  0.5360300000000  0.4508250000000  0.4841610000000 1.0
C      1  0.5024440000000  0.4463690000000  0.5757620000000 1.0
C      1  0.5305510000000  0.4446220000000  0.5835940000000 1.0
C      1  0.5359110000000  0.5646410000000  0.5584920000000 1.0
C      1  0.4819620000000  0.5723900000000  0.4734830000000 1.0
C      1  0.4240530000000  0.5332880000000  0.6304060000000 1.0
C      1  0.4890980000000  0.4952950000000  0.4324720000000 1.0
C      1  0.4515080000000  0.5991320000000  0.5060380000000 1.0
C      1  0.4934880000000  0.6139900000000  0.5319630000000 1.0
C      1  0.4614410000000  0.4945790000000  0.4472930000000 1.0
C      1  0.5014900000000  0.4081040000000  0.4634770000000 1.0
C      1  0.4108090000000  0.5591420000000  0.5072560000000 1.0
C      1  0.4370350000000  0.5886310000000  0.4830010000000 1.0
C      1  0.5996550000000  0.4560640000000  0.4774430000000 1.0
C      1  0.5776580000000  0.5758850000000  0.4805820000000 1.0
C      1  0.5414750000000  0.4604510000000  0.4126830000000 1.0
C      1  0.5567140000000  0.4447120000000  0.5696780000000 1.0
C      1  0.4266390000000  0.4481090000000  0.4908200000000 1.0
C      1  0.4207640000000  0.5691230000000  0.5323420000000 1.0
C      1  0.4033120000000  0.4507120000000  0.4752760000000 1.0
C      1  0.4753940000000  0.4697730000000  0.5785880000000 1.0
C      1  0.5950070000000  0.5336570000000  0.4635730000000 1.0
C      1  0.4486110000000  0.3697580000000  0.5574960000000 1.0
C      1  0.5500830000000  0.5776900000000  0.4893380000000 1.0
C      1  0.4693700000000  0.5470790000000  0.5206570000000 1.0
C      1  0.4880260000000  0.4663010000000  0.4992270000000 1.0
C      1  0.5258230000000  0.5892950000000  0.4783150000000 1.0
C      1  0.4427060000000  0.4230930000000  0.5564890000000 1.0
C      1  0.5089500000000  0.5248320000000  0.4638680000000 1.0
C      1  0.5763490000000  0.4948000000000  0.5740050000000 1.0
C      1  0.4107560000000  0.4657320000000  0.5419760000000 1.0
C      1  0.5656340000000  0.4870000000000  0.4099420000000 1.0
C      1  0.4975330000000  0.5933970000000  0.4875140000000 1.0
C      1  0.5284820000000  0.5441980000000  0.4680090000000 1.0
C      1  0.4944230000000  0.4714820000000  0.4161390000000 1.0
C      1  0.4635590000000  0.4779170000000  0.5099820000000 1.0
C      1  0.5356630000000  0.4911940000000  0.4476640000000 1.0
C      1  0.5337340000000  0.4995690000000  0.3949250000000 1.0
C      1  0.5520890000000  0.4740670000000  0.4867260000000 1.0
C      1  0.5723420000000  0.4680920000000  0.5763940000000 1.0
C      1  0.5038380000000  0.4351250000000  0.5488870000000 1.0
C      1  0.5294530000000  0.3706480000000  0.4458790000000 1.0
C      1  0.5724660000000  0.5160420000000  0.5572440000000 1.0
C      1  0.4153980000000  0.4966450000000  0.4281450000000 1.0
C      1  0.4756820000000  0.5398950000000  0.4050880000000 1.0
C      1  0.5259470000000  0.3922620000000  0.4629970000000 1.0
C      1  0.5217980000000  0.5698830000000  0.4557830000000 1.0
C      1  0.5752120000000  0.4310890000000  0.4484470000000 1.0
C      1  0.4812510000000  0.5081620000000  0.5502300000000 1.0
C      1  0.5117950000000  0.5932590000000  0.5922230000000 1.0
C      1  0.4412610000000  0.4817010000000  0.5824190000000 1.0
C      1  0.5787160000000  0.4423870000000  0.5225480000000 1.0
C      1  0.4916190000000  0.5251550000000  0.3856590000000 1.0
C      1  0.5018540000000  0.5121610000000  0.5079650000000 1.0
C      1  0.4808660000000  0.6054700000000  0.5074880000000 1.0
C      1  0.4405730000000  0.5298350000000  0.5602060000000 1.0
C      1  0.4239920000000  0.4497180000000  0.5201410000000 1.0
C      1  0.5539710000000  0.5798200000000  0.5415670000000 1.0
C      1  0.4643710000000  0.5297790000000  0.5437120000000 1.0
C      1  0.4481590000000  0.4412220000000  0.5350530000000 1.0
C      1  0.5445130000000  0.5314320000000  0.5146560000000 1.0
C      1  0.5646630000000  0.4284010000000  0.5447310000000 1.0
C      1  0.3352480000000  0.4436180000000  0.4505730000000 1.0
C      1  0.5330540000000  0.3507160000000  0.4294850000000 1.0
C      1  0.4512730000000  0.5291100000000  0.4137000000000 1.0
C      1  0.5122390000000  0.5059520000000  0.4442850000000 1.0
C      1  0.4224400000000  0.5505400000000  0.5536770000000 1.0
C      1  0.5208130000000  0.6229630000000  0.5319320000000 1.0
C      1  0.4524750000000  0.4471820000000  0.4758350000000 1.0
C      1  0.3106750000000  0.4352250000000  0.4482600000000 1.0
C      1  0.4375170000000  0.5107150000000  0.5825030000000 1.0
C      1  0.5476610000000  0.5586640000000  0.4160550000000 1.0
C      1  0.4690560000000  0.5544830000000  0.4922200000000 1.0
C      1  0.5199220000000  0.5240740000000  0.3926900000000 1.0
C      1  0.5023620000000  0.4326390000000  0.4484990000000 1.0
C      1  0.4259360000000  0.5609310000000  0.4828500000000 1.0
C      1  0.5464220000000  0.4008320000000  0.4818630000000 1.0
C      1  0.3865300000000  0.4610560000000  0.4553820000000 1.0
C      1  0.5339830000000  0.4065870000000  0.5093510000000 1.0
C      1  0.4899610000000  0.5180830000000  0.4829890000000 1.0
C      1  0.5255480000000  0.4465910000000  0.4580180000000 1.0
C      1  0.4177760000000  0.5446930000000  0.6534950000000 1.0
C      1  0.5225190000000  0.4487520000000  0.5315720000000 1.0
C      1  0.4386230000000  0.5921270000000  0.5314020000000 1.0
C      1  0.4413270000000  0.5069550000000  0.4282790000000 1.0
C      1  0.4597750000000  0.5123360000000  0.4736100000000 1.0
C      1  0.4515840000000  0.6032830000000  0.5537920000000 1.0
C      1  0.5080050000000  0.4847460000000  0.5100470000000 1.0
C      1  0.4630440000000  0.4659740000000  0.5351300000000 1.0
C      1  0.4775650000000  0.4397990000000  0.4901920000000 1.0
C      1  0.5913710000000  0.5631960000000  0.5042170000000 1.0
C      1  0.4831910000000  0.4500140000000  0.4345370000000 1.0
C      1  0.5224230000000  0.5479840000000  0.4097980000000 1.0
C      1  0.5851600000000  0.4345520000000  0.4942770000000 1.0
C      1  0.5884870000000  0.4578960000000  0.4498560000000 1.0
C      1  0.6134600000000  0.4756880000000  0.4923170000000 1.0
C      1  0.5168240000000  0.5469710000000  0.5468250000000 1.0
C      1  0.6035150000000  0.4830460000000  0.5164640000000 1.0
C      1  0.4778960000000  0.4806800000000  0.5538800000000 1.0
C      1  0.5698070000000  0.4173580000000  0.4747100000000 1.0
C      1  0.4304400000000  0.5219840000000  0.6073220000000 1.0
C      1  0.5689610000000  0.5628040000000  0.4317490000000 1.0
C      1  0.5510790000000  0.4045860000000  0.5346200000000 1.0
C      1  0.5439270000000  0.5482490000000  0.4919330000000 1.0
C      1  0.4945030000000  0.5680390000000  0.4469110000000 1.0
C      1  0.4116530000000  0.5559190000000  0.6762130000000 1.0
C      1  0.5317160000000  0.4364890000000  0.5075640000000 1.0
C      1  0.4467530000000  0.5408390000000  0.4782280000000 1.0
C      1  0.4787970000000  0.6104370000000  0.5564990000000 1.0
C      1  0.5425720000000  0.6049530000000  0.5344290000000 1.0
C      1  0.3967100000000  0.4805450000000  0.4380240000000 1.0
END
