TITL C-627110-360-1335 -90520.0697119715 125000 -1062.76011764361 0 0 174 (C1) n - 1
REM
REM in /home/nfs/bkarasulu/CARBON/AIRSS/Generating-Clusters/LCBOP/Only-C1/SD-CG/FIRE-CG
REM
REM
REM
REM
REM
REM ./C.cell (11c1c37f851c82e70ff6c80c92926a4b)
REM AIRSS Version 0.9.1 bugfix July 2018 build 013d7b7c2542+ Fri, 06 Jul 2018 19:26:36 +0100
REM compiler GCC version 9.2.1 20190827 (Red Hat 9.2.1-1)
REM options -cpp -mtune=generic -march=x86-64 -g -O0 -fpre-include=/usr/include/finclude/math-vector-fortran.h
REM seed -1152585712 -821957009 420612343 639132577 2001107614 -1420977637 -1893823562 243367988 -1323025334 -480927244 2028469592 -1175715022 32854775 1590939067 1386969766 895107540 718269753 1459631941 391414491 1016468040 261763624 618053468 -718517197 97856417 -1929834767 -1306809868 -940474879 -1655040992 -1980686052 928652293 -540110948 -1310450563 -1799973532
REM
CELL 1.54180   50.00000   50.00000   50.00000   90.00000   90.00000   90.00000
LATT -1
SFAC C  
C      1  0.4664970000000  0.6112750000000  0.5475260000000 1.0
C      1  0.4392670000000  0.5579360000000  0.5485080000000 1.0
C      1  0.4743390000000  0.3951940000000  0.5379760000000 1.0
C      1  0.5965800000000  0.5561580000000  0.4656390000000 1.0
C      1  0.4276070000000  0.4795340000000  0.5024060000000 1.0
C      1  0.4620420000000  0.4521600000000  0.4925490000000 1.0
C      1  0.5038280000000  0.5053510000000  0.5494760000000 1.0
C      1  0.4360920000000  0.4113860000000  0.5060060000000 1.0
C      1  0.4155560000000  0.5406740000000  0.4125990000000 1.0
C      1  0.5019160000000  0.5537450000000  0.3898560000000 1.0
C      1  0.5053790000000  0.3921350000000  0.5421360000000 1.0
C      1  0.4210540000000  0.4401600000000  0.5726730000000 1.0
C      1  0.5076460000000  0.5464470000000  0.4613300000000 1.0
C      1  0.6164310000000  0.5196570000000  0.5175890000000 1.0
C      1  0.5421550000000  0.4567480000000  0.4051190000000 1.0
C      1  0.5805790000000  0.6090300000000  0.4988490000000 1.0
C      1  0.4695550000000  0.4141560000000  0.5841730000000 1.0
C      1  0.4557640000000  0.5466090000000  0.5279460000000 1.0
C      1  0.4306090000000  0.4819310000000  0.4347930000000 1.0
C      1  0.5536070000000  0.5246070000000  0.5085950000000 1.0
C      1  0.5782760000000  0.4544270000000  0.4840280000000 1.0
C      1  0.5063430000000  0.5085370000000  0.6177260000000 1.0
C      1  0.4612540000000  0.3961580000000  0.5110400000000 1.0
C      1  0.4591480000000  0.5211470000000  0.4582200000000 1.0
C      1  0.4955250000000  0.5728540000000  0.5579950000000 1.0
C      1  0.5556070000000  0.4549110000000  0.5897690000000 1.0
C      1  0.4882940000000  0.4524750000000  0.5624680000000 1.0
C      1  0.5134500000000  0.3787200000000  0.4419540000000 1.0
C      1  0.5870310000000  0.5720280000000  0.5385900000000 1.0
C      1  0.5520490000000  0.5531050000000  0.4484850000000 1.0
C      1  0.5115810000000  0.4035850000000  0.4545030000000 1.0
C      1  0.3924860000000  0.4584550000000  0.5332540000000 1.0
C      1  0.4886960000000  0.6028720000000  0.4469730000000 1.0
C      1  0.4169970000000  0.4589720000000  0.5210080000000 1.0
C      1  0.5394200000000  0.5502390000000  0.5147280000000 1.0
C      1  0.4237800000000  0.4918620000000  0.5687580000000 1.0
C      1  0.4799630000000  0.5965050000000  0.5038370000000 1.0
C      1  0.4206550000000  0.4157140000000  0.4813900000000 1.0
C      1  0.4354700000000  0.5290120000000  0.3962530000000 1.0
C      1  0.5343600000000  0.5813560000000  0.5839640000000 1.0
C      1  0.5961360000000  0.6315940000000  0.5003200000000 1.0
C      1  0.5168060000000  0.4549940000000  0.3903960000000 1.0
C      1  0.4389440000000  0.6108170000000  0.5396050000000 1.0
C      1  0.5474780000000  0.5124420000000  0.4043060000000 1.0
C      1  0.4755900000000  0.5920510000000  0.5654730000000 1.0
C      1  0.4599460000000  0.4952080000000  0.5335160000000 1.0
C      1  0.4145500000000  0.5196150000000  0.5718100000000 1.0
C      1  0.4007460000000  0.5316700000000  0.5471470000000 1.0
C      1  0.5629680000000  0.5774410000000  0.5835780000000 1.0
C      1  0.4313600000000  0.4763730000000  0.4073830000000 1.0
C      1  0.4654540000000  0.4455710000000  0.3953790000000 1.0
C      1  0.5711000000000  0.4012310000000  0.5355960000000 1.0
C      1  0.5202720000000  0.4140650000000  0.5025480000000 1.0
C      1  0.4511220000000  0.4930380000000  0.5602650000000 1.0
C      1  0.4528330000000  0.4709720000000  0.3901410000000 1.0
C      1  0.4207380000000  0.5687950000000  0.4797210000000 1.0
C      1  0.5895790000000  0.4950250000000  0.4342050000000 1.0
C      1  0.5148360000000  0.5231300000000  0.4483860000000 1.0
C      1  0.5170540000000  0.4272370000000  0.4401880000000 1.0
C      1  0.5901750000000  0.5835430000000  0.5106610000000 1.0
C      1  0.4804820000000  0.4389890000000  0.5844290000000 1.0
C      1  0.4857080000000  0.5782340000000  0.6074480000000 1.0
C      1  0.5596520000000  0.4747400000000  0.4812680000000 1.0
C      1  0.5323080000000  0.4379000000000  0.5154500000000 1.0
C      1  0.5133430000000  0.5813450000000  0.6043660000000 1.0
C      1  0.4488170000000  0.4686470000000  0.4520870000000 1.0
C      1  0.4571620000000  0.4060140000000  0.5599660000000 1.0
C      1  0.6014470000000  0.5118090000000  0.4953670000000 1.0
C      1  0.5442170000000  0.5401970000000  0.4162850000000 1.0
C      1  0.5837590000000  0.4833660000000  0.4092730000000 1.0
C      1  0.5443530000000  0.4337110000000  0.4330320000000 1.0
C      1  0.4391540000000  0.4139270000000  0.4300200000000 1.0
C      1  0.4899980000000  0.5191330000000  0.5689150000000 1.0
C      1  0.5614170000000  0.4008100000000  0.4809840000000 1.0
C      1  0.4635240000000  0.5922670000000  0.4504460000000 1.0
C      1  0.5741020000000  0.5363960000000  0.4614810000000 1.0
C      1  0.4899420000000  0.4873700000000  0.3636830000000 1.0
C      1  0.3760790000000  0.5001540000000  0.5094820000000 1.0
C      1  0.4569650000000  0.5190200000000  0.6023560000000 1.0
C      1  0.5306180000000  0.5099100000000  0.5472210000000 1.0
C      1  0.4927740000000  0.4462980000000  0.4038560000000 1.0
C      1  0.5596300000000  0.4476320000000  0.5271520000000 1.0
C      1  0.5716150000000  0.4382660000000  0.5735240000000 1.0
C      1  0.4872810000000  0.5009010000000  0.5274860000000 1.0
C      1  0.4847080000000  0.4540040000000  0.4768830000000 1.0
C      1  0.5684700000000  0.5107390000000  0.4456300000000 1.0
C      1  0.5856450000000  0.4403460000000  0.4608380000000 1.0
C      1  0.4151020000000  0.5038890000000  0.4434140000000 1.0
C      1  0.4347510000000  0.4236840000000  0.5539410000000 1.0
C      1  0.4408370000000  0.4672380000000  0.4802710000000 1.0
C      1  0.6134630000000  0.4954500000000  0.4754580000000 1.0
C      1  0.5785000000000  0.5596320000000  0.5656280000000 1.0
C      1  0.6065570000000  0.4731100000000  0.5465000000000 1.0
C      1  0.5097400000000  0.4545430000000  0.5176920000000 1.0
C      1  0.4152910000000  0.4662790000000  0.5770170000000 1.0
C      1  0.4788950000000  0.3941530000000  0.4891240000000 1.0
C      1  0.4959410000000  0.5736820000000  0.4971470000000 1.0
C      1  0.5052170000000  0.4644450000000  0.4915660000000 1.0
C      1  0.5384060000000  0.4914550000000  0.4758940000000 1.0
C      1  0.5530860000000  0.4853770000000  0.5936940000000 1.0
C      1  0.4643660000000  0.5352290000000  0.4810010000000 1.0
C      1  0.6338830000000  0.5278140000000  0.5351600000000 1.0
C      1  0.4357490000000  0.4348030000000  0.5264040000000 1.0
C      1  0.6021190000000  0.5681180000000  0.4895430000000 1.0
C      1  0.4660790000000  0.4932840000000  0.3777550000000 1.0
C      1  0.5544290000000  0.6098230000000  0.4858220000000 1.0
C      1  0.6083640000000  0.4821460000000  0.4510500000000 1.0
C      1  0.4508910000000  0.5293710000000  0.5053690000000 1.0
C      1  0.5850170000000  0.4476490000000  0.5099280000000 1.0
C      1  0.3980790000000  0.5596610000000  0.4019510000000 1.0
C      1  0.5686680000000  0.5308650000000  0.5696740000000 1.0
C      1  0.5138900000000  0.4901980000000  0.4881490000000 1.0
C      1  0.5158210000000  0.3997430000000  0.5681620000000 1.0
C      1  0.4495470000000  0.4250540000000  0.4077150000000 1.0
C      1  0.5034110000000  0.4056210000000  0.4813580000000 1.0
C      1  0.5177860000000  0.4612170000000  0.6142090000000 1.0
C      1  0.5393900000000  0.6155930000000  0.4618870000000 1.0
C      1  0.5138980000000  0.3558450000000  0.4294820000000 1.0
C      1  0.4442380000000  0.5858820000000  0.4708610000000 1.0
C      1  0.4888850000000  0.5464450000000  0.5649240000000 1.0
C      1  0.3969520000000  0.4320460000000  0.4817560000000 1.0
C      1  0.5681800000000  0.4270890000000  0.5478520000000 1.0
C      1  0.4121530000000  0.5317450000000  0.4396950000000 1.0
C      1  0.3841460000000  0.5159880000000  0.5298490000000 1.0
C      1  0.5263510000000  0.4891880000000  0.6095760000000 1.0
C      1  0.5561180000000  0.4832140000000  0.4020010000000 1.0
C      1  0.4417960000000  0.5024250000000  0.5125610000000 1.0
C      1  0.5470300000000  0.5012340000000  0.5258640000000 1.0
C      1  0.5237240000000  0.4814740000000  0.4340280000000 1.0
C      1  0.5375370000000  0.5032050000000  0.4490010000000 1.0
C      1  0.4630250000000  0.5788720000000  0.5882630000000 1.0
C      1  0.5419760000000  0.5328270000000  0.5583610000000 1.0
C      1  0.4629890000000  0.4466150000000  0.5203310000000 1.0
C      1  0.5367690000000  0.5983020000000  0.5048490000000 1.0
C      1  0.5324800000000  0.6123930000000  0.5278100000000 1.0
C      1  0.4872510000000  0.4510410000000  0.5345210000000 1.0
C      1  0.4316470000000  0.5973630000000  0.5157520000000 1.0
C      1  0.6074940000000  0.4535320000000  0.4486820000000 1.0
C      1  0.4802190000000  0.5399450000000  0.3830320000000 1.0
C      1  0.5317940000000  0.4410520000000  0.5996300000000 1.0
C      1  0.4767900000000  0.4566690000000  0.4493490000000 1.0
C      1  0.4312270000000  0.4100330000000  0.4554790000000 1.0
C      1  0.4342490000000  0.5349120000000  0.5902200000000 1.0
C      1  0.4841620000000  0.6144450000000  0.5253340000000 1.0
C      1  0.4985920000000  0.5077530000000  0.5028960000000 1.0
C      1  0.5362890000000  0.5558160000000  0.5427580000000 1.0
C      1  0.5752530000000  0.5236000000000  0.4900850000000 1.0
C      1  0.4950270000000  0.4434130000000  0.4317840000000 1.0
C      1  0.4677310000000  0.5057310000000  0.5790430000000 1.0
C      1  0.4598780000000  0.5205520000000  0.3848760000000 1.0
C      1  0.4104150000000  0.5498110000000  0.4614690000000 1.0
C      1  0.5317720000000  0.5619390000000  0.4664760000000 1.0
C      1  0.3819630000000  0.4545620000000  0.4832050000000 1.0
C      1  0.4526180000000  0.5973170000000  0.4957750000000 1.0
C      1  0.6078950000000  0.4561150000000  0.5249860000000 1.0
C      1  0.5254890000000  0.5558560000000  0.4021870000000 1.0
C      1  0.5820160000000  0.4851610000000  0.5542540000000 1.0
C      1  0.4147730000000  0.5731250000000  0.5104170000000 1.0
C      1  0.5607050000000  0.4779530000000  0.5351370000000 1.0
C      1  0.3792960000000  0.5743380000000  0.3914120000000 1.0
C      1  0.3748700000000  0.4789990000000  0.4925880000000 1.0
C      1  0.5645180000000  0.4225980000000  0.4532150000000 1.0
C      1  0.4430850000000  0.5597280000000  0.5777830000000 1.0
C      1  0.4801990000000  0.5178050000000  0.6203100000000 1.0
C      1  0.5273200000000  0.5712970000000  0.4965050000000 1.0
C      1  0.5114000000000  0.4716260000000  0.3681240000000 1.0
C      1  0.5232340000000  0.5760150000000  0.5576690000000 1.0
C      1  0.5719840000000  0.5016110000000  0.5764280000000 1.0
C      1  0.5263090000000  0.3923790000000  0.5204080000000 1.0
C      1  0.4868540000000  0.5523050000000  0.4797160000000 1.0
C      1  0.5243050000000  0.4164160000000  0.5877530000000 1.0
C      1  0.5143130000000  0.6116550000000  0.4511790000000 1.0
C      1  0.4125110000000  0.5562870000000  0.5355840000000 1.0
C      1  0.5552900000000  0.3905630000000  0.5141930000000 1.0
END
