TITL C-627111-6168-1585 1.36431531478514 125000 -236.713758736645 0 0 40 (C1) n - 1
REM
REM in /home/nfs/bkarasulu/CARBON/AIRSS/Generating-Clusters/LCBOP/Only-C1/SD-CG/FIRE-CG
REM
REM
REM
REM
REM
REM ./C.cell (11c1c37f851c82e70ff6c80c92926a4b)
REM AIRSS Version 0.9.1 bugfix July 2018 build 013d7b7c2542+ Fri, 06 Jul 2018 19:26:36 +0100
REM compiler GCC version 9.2.1 20190827 (Red Hat 9.2.1-1)
REM options -cpp -mtune=generic -march=x86-64 -g -O0 -fpre-include=/usr/include/finclude/math-vector-fortran.h
REM seed -1525332841 -768330319 -198310905 1379379683 -1335822088 1178428180 -875888793 694115976 1736039420 1100339354 -1585441129 1923425390 494444713 -1637008041 -2047979896 -188080396 -62573190 785687005 1747490712 -1899740487 -719114011 -1493912601 601586085 -1541175182 -1309855912 1079142908 790825823 824989288 -506954245 -2096247558 1680471403 982791847 1497855519
REM
CELL 1.54180   50.00000   50.00000   50.00000   90.00000   90.00000   90.00000
LATT -1
SFAC C  
C      1  0.4888060000000  0.4875570000000  0.4698870000000 1.0
C      1  0.4404720000000  0.4056310000000  0.4520340000000 1.0
C      1  0.4676570000000  0.6187990000000  0.4614290000000 1.0
C      1  0.5181300000000  0.5488570000000  0.4517490000000 1.0
C      1  0.5129320000000  0.5725210000000  0.4409330000000 1.0
C      1  0.4768460000000  0.4784090000000  0.5513420000000 1.0
C      1  0.5398100000000  0.5210700000000  0.4852370000000 1.0
C      1  0.5557660000000  0.5160160000000  0.5057890000000 1.0
C      1  0.4693870000000  0.4391720000000  0.4836250000000 1.0
C      1  0.5024940000000  0.5965970000000  0.4370080000000 1.0
C      1  0.5192270000000  0.4554830000000  0.5625090000000 1.0
C      1  0.4123030000000  0.3729290000000  0.4212650000000 1.0
C      1  0.4638340000000  0.5010190000000  0.5465730000000 1.0
C      1  0.4725930000000  0.5289480000000  0.4885120000000 1.0
C      1  0.6615280000000  0.5530180000000  0.5575400000000 1.0
C      1  0.4937680000000  0.4079440000000  0.5479340000000 1.0
C      1  0.4926590000000  0.5146770000000  0.4753070000000 1.0
C      1  0.6384580000000  0.5427490000000  0.5510600000000 1.0
C      1  0.5530740000000  0.4946910000000  0.5490920000000 1.0
C      1  0.5138750000000  0.4072700000000  0.5662070000000 1.0
C      1  0.4565470000000  0.5226950000000  0.5330690000000 1.0
C      1  0.5668580000000  0.5108840000000  0.5309400000000 1.0
C      1  0.5263340000000  0.4302800000000  0.5735520000000 1.0
C      1  0.4851560000000  0.4321650000000  0.5358160000000 1.0
C      1  0.6150030000000  0.5323080000000  0.5444710000000 1.0
C      1  0.4803360000000  0.4626260000000  0.4730190000000 1.0
C      1  0.4583830000000  0.5389770000000  0.5104410000000 1.0
C      1  0.5173600000000  0.5276650000000  0.4699570000000 1.0
C      1  0.4892390000000  0.6412440000000  0.4246670000000 1.0
C      1  0.4545480000000  0.4219730000000  0.4674100000000 1.0
C      1  0.5915630000000  0.5218750000000  0.5378880000000 1.0
C      1  0.3984490000000  0.3568450000000  0.4061320000000 1.0
C      1  0.4935210000000  0.4561520000000  0.5494650000000 1.0
C      1  0.4734410000000  0.4331110000000  0.5106150000000 1.0
C      1  0.4471210000000  0.5893430000000  0.4988970000000 1.0
C      1  0.4263900000000  0.3892830000000  0.4366510000000 1.0
C      1  0.4483370000000  0.5649750000000  0.5093890000000 1.0
C      1  0.4540720000000  0.6083460000000  0.4816970000000 1.0
C      1  0.5372070000000  0.4765800000000  0.5601750000000 1.0
C      1  0.4865150000000  0.6193150000000  0.4407190000000 1.0
END
