TITL C-627109-622-2029 3059.71366524993 125000 -1118.78957508268 0 0 184 (C1) n - 1
REM
REM in /home/nfs/bkarasulu/CARBON/AIRSS/Generating-Clusters/LCBOP/Only-C1/SD-CG/FIRE-CG
REM
REM
REM
REM
REM
REM ./C.cell (11c1c37f851c82e70ff6c80c92926a4b)
REM AIRSS Version 0.9.1 bugfix July 2018 build 013d7b7c2542+ Fri, 06 Jul 2018 19:26:36 +0100
REM compiler GCC version 9.2.1 20190827 (Red Hat 9.2.1-1)
REM options -cpp -mtune=generic -march=x86-64 -g -O0 -fpre-include=/usr/include/finclude/math-vector-fortran.h
REM seed -1047481251 817171182 787170159 -848501702 302397396 -1256521143 1493557339 -1761044495 1360144941 -1718133929 1143649609 -70816254 -423633184 -1819500758 -909096026 -1339223866 -1860861841 466337508 593952374 101556384 190245210 -513032380 1821507977 -1858140014 875491007 2052159871 -1017865986 -1777682549 -1574808284 656864079 -571801779 -950346923 11219642
REM
CELL 1.54180   50.00000   50.00000   50.00000   90.00000   90.00000   90.00000
LATT -1
SFAC C  
C      1  0.4758450000000  0.5014570000000  0.5762980000000 1.0
C      1  0.4962060000000  0.5493250000000  0.4731480000000 1.0
C      1  0.4005520000000  0.5048080000000  0.5640780000000 1.0
C      1  0.4471850000000  0.5739660000000  0.4038220000000 1.0
C      1  0.4188270000000  0.4546720000000  0.5324360000000 1.0
C      1  0.4858830000000  0.5959960000000  0.4599140000000 1.0
C      1  0.5063220000000  0.5448110000000  0.6173660000000 1.0
C      1  0.5850980000000  0.5112860000000  0.4242370000000 1.0
C      1  0.6063630000000  0.4648320000000  0.4782400000000 1.0
C      1  0.4981880000000  0.5344700000000  0.5397640000000 1.0
C      1  0.4997670000000  0.3975870000000  0.4715230000000 1.0
C      1  0.5618210000000  0.5536950000000  0.5974580000000 1.0
C      1  0.4189170000000  0.5870840000000  0.4981590000000 1.0
C      1  0.4740380000000  0.5348200000000  0.5189070000000 1.0
C      1  0.4915450000000  0.4670980000000  0.5483840000000 1.0
C      1  0.5055910000000  0.4142700000000  0.5208900000000 1.0
C      1  0.4525950000000  0.5382460000000  0.4507620000000 1.0
C      1  0.5437870000000  0.4276310000000  0.4497590000000 1.0
C      1  0.5520120000000  0.5753290000000  0.5822850000000 1.0
C      1  0.4737060000000  0.5785720000000  0.4179160000000 1.0
C      1  0.5153330000000  0.4699230000000  0.6379970000000 1.0
C      1  0.4577740000000  0.5690830000000  0.4899300000000 1.0
C      1  0.5904650000000  0.4456870000000  0.5499830000000 1.0
C      1  0.4994110000000  0.4540480000000  0.3646030000000 1.0
C      1  0.5239100000000  0.5595740000000  0.4800100000000 1.0
C      1  0.5205750000000  0.4095490000000  0.4520510000000 1.0
C      1  0.5755660000000  0.4244470000000  0.5635930000000 1.0
C      1  0.5079530000000  0.4211490000000  0.5996270000000 1.0
C      1  0.4253990000000  0.4688550000000  0.4221580000000 1.0
C      1  0.4476330000000  0.3823590000000  0.4597890000000 1.0
C      1  0.4894440000000  0.4769710000000  0.4034210000000 1.0
C      1  0.5820600000000  0.5361370000000  0.4420480000000 1.0
C      1  0.4198320000000  0.5918540000000  0.4674750000000 1.0
C      1  0.4501400000000  0.5161410000000  0.5230140000000 1.0
C      1  0.5151070000000  0.5596080000000  0.5459060000000 1.0
C      1  0.4656930000000  0.4802760000000  0.4829140000000 1.0
C      1  0.5275070000000  0.5915340000000  0.4306410000000 1.0
C      1  0.4757610000000  0.4125060000000  0.5594180000000 1.0
C      1  0.4459250000000  0.4540920000000  0.4098510000000 1.0
C      1  0.3692980000000  0.4880590000000  0.5249480000000 1.0
C      1  0.6090590000000  0.5018270000000  0.5185090000000 1.0
C      1  0.4262090000000  0.5141770000000  0.5720300000000 1.0
C      1  0.4538750000000  0.4284510000000  0.4195660000000 1.0
C      1  0.4742460000000  0.4178950000000  0.4379390000000 1.0
C      1  0.4669900000000  0.5971880000000  0.4397610000000 1.0
C      1  0.4345040000000  0.5489400000000  0.4709590000000 1.0
C      1  0.4098120000000  0.5634370000000  0.4589170000000 1.0
C      1  0.5597590000000  0.4474430000000  0.4689070000000 1.0
C      1  0.5461780000000  0.4365900000000  0.4216700000000 1.0
C      1  0.5771840000000  0.4055120000000  0.5177910000000 1.0
C      1  0.5196520000000  0.5175440000000  0.5233740000000 1.0
C      1  0.5501820000000  0.4066760000000  0.5107700000000 1.0
C      1  0.4410370000000  0.4668950000000  0.5742060000000 1.0
C      1  0.4717850000000  0.4328790000000  0.4898920000000 1.0
C      1  0.4419940000000  0.4097880000000  0.5247890000000 1.0
C      1  0.4367150000000  0.4805790000000  0.4849560000000 1.0
C      1  0.5335010000000  0.5711630000000  0.5614550000000 1.0
C      1  0.5120760000000  0.4628310000000  0.3892670000000 1.0
C      1  0.5262690000000  0.4392090000000  0.5861790000000 1.0
C      1  0.5121230000000  0.5471930000000  0.6431170000000 1.0
C      1  0.4319060000000  0.5419410000000  0.5662650000000 1.0
C      1  0.5540490000000  0.6283440000000  0.5194280000000 1.0
C      1  0.4145030000000  0.5570620000000  0.5480310000000 1.0
C      1  0.5411630000000  0.4917360000000  0.3037820000000 1.0
C      1  0.4441590000000  0.5451520000000  0.3997460000000 1.0
C      1  0.5596480000000  0.5247170000000  0.5477910000000 1.0
C      1  0.4113160000000  0.4764240000000  0.4456270000000 1.0
C      1  0.4821010000000  0.5383330000000  0.4464520000000 1.0
C      1  0.4940450000000  0.3994970000000  0.5418670000000 1.0
C      1  0.4800460000000  0.5746620000000  0.4775010000000 1.0
C      1  0.4259990000000  0.5290030000000  0.5116550000000 1.0
C      1  0.5099120000000  0.6590360000000  0.5699560000000 1.0
C      1  0.6069120000000  0.5352010000000  0.4611020000000 1.0
C      1  0.4244580000000  0.3956540000000  0.4648670000000 1.0
C      1  0.5503720000000  0.5500350000000  0.4748230000000 1.0
C      1  0.5126610000000  0.4942530000000  0.5112980000000 1.0
C      1  0.4921860000000  0.6183080000000  0.5518310000000 1.0
C      1  0.4744100000000  0.4709750000000  0.5271250000000 1.0
C      1  0.6045100000000  0.5627790000000  0.5091600000000 1.0
C      1  0.5069080000000  0.3474640000000  0.5480310000000 1.0
C      1  0.4846750000000  0.4140780000000  0.5857440000000 1.0
C      1  0.5685740000000  0.5304440000000  0.6086470000000 1.0
C      1  0.5784190000000  0.5098030000000  0.3709250000000 1.0
C      1  0.3991160000000  0.4378630000000  0.4791720000000 1.0
C      1  0.6217690000000  0.5099970000000  0.4588310000000 1.0
C      1  0.5677710000000  0.4544650000000  0.6035450000000 1.0
C      1  0.3812000000000  0.4984290000000  0.5466520000000 1.0
C      1  0.4368750000000  0.4472230000000  0.5542590000000 1.0
C      1  0.5136610000000  0.5988990000000  0.4549740000000 1.0
C      1  0.4293060000000  0.4745450000000  0.5137940000000 1.0
C      1  0.4283190000000  0.5920340000000  0.4167520000000 1.0
C      1  0.3965230000000  0.4378310000000  0.5265120000000 1.0
C      1  0.5896280000000  0.4393750000000  0.4776370000000 1.0
C      1  0.4239690000000  0.5330740000000  0.4171730000000 1.0
C      1  0.5478360000000  0.5008860000000  0.5595530000000 1.0
C      1  0.5631920000000  0.6150740000000  0.4981740000000 1.0
C      1  0.4235940000000  0.4992300000000  0.4637450000000 1.0
C      1  0.4722470000000  0.5346160000000  0.3993840000000 1.0
C      1  0.5474980000000  0.5238880000000  0.5216040000000 1.0
C      1  0.5606000000000  0.6007020000000  0.5879450000000 1.0
C      1  0.5654190000000  0.5113870000000  0.5031010000000 1.0
C      1  0.4212730000000  0.5245690000000  0.4837780000000 1.0
C      1  0.4755140000000  0.5976150000000  0.5517280000000 1.0
C      1  0.5556870000000  0.5960520000000  0.4795230000000 1.0
C      1  0.5356190000000  0.6348990000000  0.5374390000000 1.0
C      1  0.4373380000000  0.6000030000000  0.4438370000000 1.0
C      1  0.5125430000000  0.6375750000000  0.5531700000000 1.0
C      1  0.6054700000000  0.5104040000000  0.5460300000000 1.0
C      1  0.5995280000000  0.4899640000000  0.5643070000000 1.0
C      1  0.5028080000000  0.4137950000000  0.4280210000000 1.0
C      1  0.5531320000000  0.4742410000000  0.5495040000000 1.0
C      1  0.3864640000000  0.5606430000000  0.5467530000000 1.0
C      1  0.5082200000000  0.4445240000000  0.6440890000000 1.0
C      1  0.5996940000000  0.4744610000000  0.5076200000000 1.0
C      1  0.5001100000000  0.3724660000000  0.5452580000000 1.0
C      1  0.5160210000000  0.4674640000000  0.5896020000000 1.0
C      1  0.4360290000000  0.5173070000000  0.4386480000000 1.0
C      1  0.6002840000000  0.4473300000000  0.5229810000000 1.0
C      1  0.5134650000000  0.4751410000000  0.4429790000000 1.0
C      1  0.4762530000000  0.4603920000000  0.5009570000000 1.0
C      1  0.5192520000000  0.5484120000000  0.6681620000000 1.0
C      1  0.4934700000000  0.4891130000000  0.4283560000000 1.0
C      1  0.4473770000000  0.4946970000000  0.5773350000000 1.0
C      1  0.4953970000000  0.4795960000000  0.5733930000000 1.0
C      1  0.3683800000000  0.4689310000000  0.5058820000000 1.0
C      1  0.4787180000000  0.4387050000000  0.4601750000000 1.0
C      1  0.4641760000000  0.4666640000000  0.3922980000000 1.0
C      1  0.5677460000000  0.5049640000000  0.3471560000000 1.0
C      1  0.6031090000000  0.5428450000000  0.4887000000000 1.0
C      1  0.4935080000000  0.4126550000000  0.4955950000000 1.0
C      1  0.4718720000000  0.4564940000000  0.3662910000000 1.0
C      1  0.5276740000000  0.5891140000000  0.4777960000000 1.0
C      1  0.5364130000000  0.5185430000000  0.4391180000000 1.0
C      1  0.3958060000000  0.4106560000000  0.5342880000000 1.0
C      1  0.4180070000000  0.3954810000000  0.5302740000000 1.0
C      1  0.4855650000000  0.5083040000000  0.4473290000000 1.0
C      1  0.3842450000000  0.5596300000000  0.4748760000000 1.0
C      1  0.5928450000000  0.4256910000000  0.5044380000000 1.0
C      1  0.5508860000000  0.4619220000000  0.4979730000000 1.0
C      1  0.5314620000000  0.4253210000000  0.5215510000000 1.0
C      1  0.5929090000000  0.5199670000000  0.5019060000000 1.0
C      1  0.6084020000000  0.4845690000000  0.4575200000000 1.0
C      1  0.5022370000000  0.4546160000000  0.4574640000000 1.0
C      1  0.5684740000000  0.4831120000000  0.5018010000000 1.0
C      1  0.4576020000000  0.5627020000000  0.5189750000000 1.0
C      1  0.4858380000000  0.5269960000000  0.4915210000000 1.0
C      1  0.5411010000000  0.4527060000000  0.5233080000000 1.0
C      1  0.4060860000000  0.5520240000000  0.4306800000000 1.0
C      1  0.5673440000000  0.5737660000000  0.4656760000000 1.0
C      1  0.5252220000000  0.5427090000000  0.4231220000000 1.0
C      1  0.4446370000000  0.4218840000000  0.4984660000000 1.0
C      1  0.5613420000000  0.4750540000000  0.4489000000000 1.0
C      1  0.5566180000000  0.5279770000000  0.4578020000000 1.0
C      1  0.3707600000000  0.5595850000000  0.4980760000000 1.0
C      1  0.4522810000000  0.4235340000000  0.5481480000000 1.0
C      1  0.5963340000000  0.5574770000000  0.5349280000000 1.0
C      1  0.5547410000000  0.4985610000000  0.3249650000000 1.0
C      1  0.4908760000000  0.5499610000000  0.4199140000000 1.0
C      1  0.4267270000000  0.5595260000000  0.5205390000000 1.0
C      1  0.3839810000000  0.4455330000000  0.5024380000000 1.0
C      1  0.5275950000000  0.4781880000000  0.6138630000000 1.0
C      1  0.5711860000000  0.5654920000000  0.4367260000000 1.0
C      1  0.5850000000000  0.5121390000000  0.3964790000000 1.0
C      1  0.5805710000000  0.4702280000000  0.5580610000000 1.0
C      1  0.5374810000000  0.4891380000000  0.4427870000000 1.0
C      1  0.5426610000000  0.5671660000000  0.4245420000000 1.0
C      1  0.5855940000000  0.4866060000000  0.4400710000000 1.0
C      1  0.4736340000000  0.3924750000000  0.4561120000000 1.0
C      1  0.4513880000000  0.4885540000000  0.5273730000000 1.0
C      1  0.5563490000000  0.4791520000000  0.6128110000000 1.0
C      1  0.4217140000000  0.4192670000000  0.4804870000000 1.0
C      1  0.5562570000000  0.4352330000000  0.5843750000000 1.0
C      1  0.4645190000000  0.5725170000000  0.5468340000000 1.0
C      1  0.3968060000000  0.4557890000000  0.4577260000000 1.0
C      1  0.5072240000000  0.4229100000000  0.6278930000000 1.0
C      1  0.3704940000000  0.5608000000000  0.5249240000000 1.0
C      1  0.4595560000000  0.5505230000000  0.5656060000000 1.0
C      1  0.4804430000000  0.5029370000000  0.4755060000000 1.0
C      1  0.5340870000000  0.4501330000000  0.4015670000000 1.0
C      1  0.5874460000000  0.5334290000000  0.5479880000000 1.0
C      1  0.5795120000000  0.4017170000000  0.5464780000000 1.0
C      1  0.4834610000000  0.5304520000000  0.5687700000000 1.0
C      1  0.5000720000000  0.5395360000000  0.5921630000000 1.0
C      1  0.5684400000000  0.5043380000000  0.6142650000000 1.0
END
