TITL C-627107-135-1253 3991.07272652759 125000 -857.336224843958 0 0 142 (C1) n - 1
REM
REM in /home/nfs/bkarasulu/CARBON/AIRSS/Generating-Clusters/LCBOP/Only-C1/SD-CG/FIRE-CG
REM
REM
REM
REM
REM
REM ./C.cell (11c1c37f851c82e70ff6c80c92926a4b)
REM AIRSS Version 0.9.1 bugfix July 2018 build 013d7b7c2542+ Fri, 06 Jul 2018 19:26:36 +0100
REM compiler GCC version 9.2.1 20190827 (Red Hat 9.2.1-1)
REM options -cpp -mtune=generic -march=x86-64 -g -O0 -fpre-include=/usr/include/finclude/math-vector-fortran.h
REM seed 1226265693 -2097492756 -1195154297 715441997 -1204232717 221495568 -1404135298 -2021521302 1526859377 -202254741 -512943068 211116050 1541576628 189348668 -172863069 1482811514 -2144018871 -1346019818 -1081067095 769210850 1129975966 -1344325497 415873386 1045284245 1490349301 -1062416212 419549442 1437863803 1310738461 -1884799910 -505781866 575830859 435973748
REM
CELL 1.54180   50.00000   50.00000   50.00000   90.00000   90.00000   90.00000
LATT -1
SFAC C  
C      1  0.4581680000000  0.3777890000000  0.5960040000000 1.0
C      1  0.4729190000000  0.4177890000000  0.4498350000000 1.0
C      1  0.4898950000000  0.5910450000000  0.4912920000000 1.0
C      1  0.4580170000000  0.5191320000000  0.5806260000000 1.0
C      1  0.4786260000000  0.5424870000000  0.4920830000000 1.0
C      1  0.4136370000000  0.5322690000000  0.3800580000000 1.0
C      1  0.5934930000000  0.4770440000000  0.4586490000000 1.0
C      1  0.4679420000000  0.5422430000000  0.5937990000000 1.0
C      1  0.4831860000000  0.4775830000000  0.4253810000000 1.0
C      1  0.4458790000000  0.5584700000000  0.4604240000000 1.0
C      1  0.4012220000000  0.5152070000000  0.5058790000000 1.0
C      1  0.5585840000000  0.5985470000000  0.5555660000000 1.0
C      1  0.4863950000000  0.5776290000000  0.5642640000000 1.0
C      1  0.5526270000000  0.4537490000000  0.4791290000000 1.0
C      1  0.5261640000000  0.4632540000000  0.4678510000000 1.0
C      1  0.5323170000000  0.5978080000000  0.4723470000000 1.0
C      1  0.4597470000000  0.5763650000000  0.5514630000000 1.0
C      1  0.5571750000000  0.4857350000000  0.5763600000000 1.0
C      1  0.4905580000000  0.5582290000000  0.5861410000000 1.0
C      1  0.5737380000000  0.5688520000000  0.4603430000000 1.0
C      1  0.4659270000000  0.4309100000000  0.4246130000000 1.0
C      1  0.4656290000000  0.5743370000000  0.4231240000000 1.0
C      1  0.5234580000000  0.5985150000000  0.5238520000000 1.0
C      1  0.5583850000000  0.5571150000000  0.4390210000000 1.0
C      1  0.4559040000000  0.5276310000000  0.5275060000000 1.0
C      1  0.4223130000000  0.4410980000000  0.5228400000000 1.0
C      1  0.4409570000000  0.5593780000000  0.4321630000000 1.0
C      1  0.5401850000000  0.4096980000000  0.4840890000000 1.0
C      1  0.5521070000000  0.4076550000000  0.5099120000000 1.0
C      1  0.5603730000000  0.5886110000000  0.4772650000000 1.0
C      1  0.4378760000000  0.4304530000000  0.5005770000000 1.0
C      1  0.4785940000000  0.5632150000000  0.4005130000000 1.0
C      1  0.5334450000000  0.5954820000000  0.5692460000000 1.0
C      1  0.4594590000000  0.4186080000000  0.3998020000000 1.0
C      1  0.6261010000000  0.5616970000000  0.5241750000000 1.0
C      1  0.4328230000000  0.5664590000000  0.5598340000000 1.0
C      1  0.4400330000000  0.4532930000000  0.3673170000000 1.0
C      1  0.4707180000000  0.5945310000000  0.4705240000000 1.0
C      1  0.5776360000000  0.4686280000000  0.4814030000000 1.0
C      1  0.5637590000000  0.4406880000000  0.5494120000000 1.0
C      1  0.5597610000000  0.5351280000000  0.6093970000000 1.0
C      1  0.4103350000000  0.5512530000000  0.5511940000000 1.0
C      1  0.5139800000000  0.5422960000000  0.4438360000000 1.0
C      1  0.3989440000000  0.5226720000000  0.4772330000000 1.0
C      1  0.4831880000000  0.5892090000000  0.4441100000000 1.0
C      1  0.6232640000000  0.5530230000000  0.4997640000000 1.0
C      1  0.4832940000000  0.5678230000000  0.5065030000000 1.0
C      1  0.5180490000000  0.5885320000000  0.4480790000000 1.0
C      1  0.5361270000000  0.5272250000000  0.5964670000000 1.0
C      1  0.4665270000000  0.5400660000000  0.4665760000000 1.0
C      1  0.4612950000000  0.4215970000000  0.5751220000000 1.0
C      1  0.4088380000000  0.5368240000000  0.5253470000000 1.0
C      1  0.4725480000000  0.4865630000000  0.5506580000000 1.0
C      1  0.4025210000000  0.4617270000000  0.5151940000000 1.0
C      1  0.5308000000000  0.5646780000000  0.4388400000000 1.0
C      1  0.4441400000000  0.4443790000000  0.5723290000000 1.0
C      1  0.4639970000000  0.5148680000000  0.4542950000000 1.0
C      1  0.4510060000000  0.4742960000000  0.5377580000000 1.0
C      1  0.4893590000000  0.4091020000000  0.5293030000000 1.0
C      1  0.5110470000000  0.4084540000000  0.4836080000000 1.0
C      1  0.4414700000000  0.4866160000000  0.5140890000000 1.0
C      1  0.4634890000000  0.4172040000000  0.6237390000000 1.0
C      1  0.5101060000000  0.5915740000000  0.5513730000000 1.0
C      1  0.6252770000000  0.5169840000000  0.5851730000000 1.0
C      1  0.5331100000000  0.5123840000000  0.4164610000000 1.0
C      1  0.4429610000000  0.4676780000000  0.5896330000000 1.0
C      1  0.5617140000000  0.4343410000000  0.4388080000000 1.0
C      1  0.5806060000000  0.5258980000000  0.4368760000000 1.0
C      1  0.6193180000000  0.5444630000000  0.4734080000000 1.0
C      1  0.5949160000000  0.5488530000000  0.4611430000000 1.0
C      1  0.4619130000000  0.5776720000000  0.5233130000000 1.0
C      1  0.4663780000000  0.3378860000000  0.5641750000000 1.0
C      1  0.4126290000000  0.4886780000000  0.5109470000000 1.0
C      1  0.5861690000000  0.5359140000000  0.6121470000000 1.0
C      1  0.4465440000000  0.4948250000000  0.5913170000000 1.0
C      1  0.6268940000000  0.5035890000000  0.5622820000000 1.0
C      1  0.5455430000000  0.5061260000000  0.3930570000000 1.0
C      1  0.5197530000000  0.5376180000000  0.5377730000000 1.0
C      1  0.4224940000000  0.5357760000000  0.4273020000000 1.0
C      1  0.4723370000000  0.5181760000000  0.5054300000000 1.0
C      1  0.4493930000000  0.4300360000000  0.3773360000000 1.0
C      1  0.4648550000000  0.4916140000000  0.4972900000000 1.0
C      1  0.6396250000000  0.5319050000000  0.4600250000000 1.0
C      1  0.4361400000000  0.4718100000000  0.4198200000000 1.0
C      1  0.4931780000000  0.4763010000000  0.5665650000000 1.0
C      1  0.4654670000000  0.4291880000000  0.6467970000000 1.0
C      1  0.5113150000000  0.5074550000000  0.4818870000000 1.0
C      1  0.5362060000000  0.5436050000000  0.5160200000000 1.0
C      1  0.4379090000000  0.4504860000000  0.5452920000000 1.0
C      1  0.5249300000000  0.5506150000000  0.4911160000000 1.0
C      1  0.5398140000000  0.5017850000000  0.4423790000000 1.0
C      1  0.5353830000000  0.4740410000000  0.4425590000000 1.0
C      1  0.5684210000000  0.5943870000000  0.5041420000000 1.0
C      1  0.4600770000000  0.3540050000000  0.5843520000000 1.0
C      1  0.4608210000000  0.4055370000000  0.5985210000000 1.0
C      1  0.4725920000000  0.4667700000000  0.4834690000000 1.0
C      1  0.4862600000000  0.3455730000000  0.5177050000000 1.0
C      1  0.5530970000000  0.5113270000000  0.4670250000000 1.0
C      1  0.4695170000000  0.5166000000000  0.5525550000000 1.0
C      1  0.4759620000000  0.3344830000000  0.5395920000000 1.0
C      1  0.5112760000000  0.5298620000000  0.4181160000000 1.0
C      1  0.4982470000000  0.4543300000000  0.4731500000000 1.0
C      1  0.5829430000000  0.4901880000000  0.4369450000000 1.0
C      1  0.4952120000000  0.5421370000000  0.3989450000000 1.0
C      1  0.4378840000000  0.5049420000000  0.4569400000000 1.0
C      1  0.5155600000000  0.4926040000000  0.5032570000000 1.0
C      1  0.4224550000000  0.5193250000000  0.4029240000000 1.0
C      1  0.4181780000000  0.4640680000000  0.4397060000000 1.0
C      1  0.4452350000000  0.5804090000000  0.4783110000000 1.0
C      1  0.5794840000000  0.4883220000000  0.5014240000000 1.0
C      1  0.4326910000000  0.4785740000000  0.3738540000000 1.0
C      1  0.4263230000000  0.4576690000000  0.4642230000000 1.0
C      1  0.4536990000000  0.4018420000000  0.4640270000000 1.0
C      1  0.4942670000000  0.3677040000000  0.5053080000000 1.0
C      1  0.5151710000000  0.5332060000000  0.4708590000000 1.0
C      1  0.4979330000000  0.5276290000000  0.5493440000000 1.0
C      1  0.5350620000000  0.5001890000000  0.5864970000000 1.0
C      1  0.4622390000000  0.4594510000000  0.4225830000000 1.0
C      1  0.5155040000000  0.6006630000000  0.4960470000000 1.0
C      1  0.4819150000000  0.5004410000000  0.4390110000000 1.0
C      1  0.4345870000000  0.5441530000000  0.5153810000000 1.0
C      1  0.4469840000000  0.4511020000000  0.4822580000000 1.0
C      1  0.4147200000000  0.5213930000000  0.4529420000000 1.0
C      1  0.5109630000000  0.4860670000000  0.5839170000000 1.0
C      1  0.4980700000000  0.3955030000000  0.5058740000000 1.0
C      1  0.5574130000000  0.4614150000000  0.4301010000000 1.0
C      1  0.5610380000000  0.5312950000000  0.5127250000000 1.0
C      1  0.4410720000000  0.4052050000000  0.4880580000000 1.0
C      1  0.4952210000000  0.4259560000000  0.4667620000000 1.0
C      1  0.6164140000000  0.4930160000000  0.5403060000000 1.0
C      1  0.4779650000000  0.4145790000000  0.5530150000000 1.0
C      1  0.5546900000000  0.4269760000000  0.4661580000000 1.0
C      1  0.5529550000000  0.5987140000000  0.5274680000000 1.0
C      1  0.4396960000000  0.5715410000000  0.5060430000000 1.0
C      1  0.5156850000000  0.5467390000000  0.5931480000000 1.0
C      1  0.5645310000000  0.4632790000000  0.5636940000000 1.0
C      1  0.5829480000000  0.6005680000000  0.5672860000000 1.0
C      1  0.5981650000000  0.4873890000000  0.5219110000000 1.0
C      1  0.6104000000000  0.5291720000000  0.6035330000000 1.0
C      1  0.5595790000000  0.4207980000000  0.5320450000000 1.0
C      1  0.5658230000000  0.5117460000000  0.4932390000000 1.0
C      1  0.4302280000000  0.4911150000000  0.3994760000000 1.0
END
