TITL C-627108-131-1183 214.810618161551 125000 -532.062469729291 0 0 89 (C1) n - 1
REM
REM in /home/nfs/bkarasulu/CARBON/AIRSS/Generating-Clusters/LCBOP/Only-C1/SD-CG/FIRE-CG
REM
REM
REM
REM
REM
REM ./C.cell (11c1c37f851c82e70ff6c80c92926a4b)
REM AIRSS Version 0.9.1 bugfix July 2018 build 013d7b7c2542+ Fri, 06 Jul 2018 19:26:36 +0100
REM compiler GCC version 9.2.1 20190827 (Red Hat 9.2.1-1)
REM options -cpp -mtune=generic -march=x86-64 -g -O0 -fpre-include=/usr/include/finclude/math-vector-fortran.h
REM seed 1185109626 947284983 -530620748 1491171263 -575726920 464573030 1910904523 -1347018434 -319841820 -1673170126 780611180 -1758904099 1952207757 -865610946 -928626890 2064009134 1252853136 2062514310 -1750712120 1203180680 53323474 -1110108954 338492940 -286314892 840259617 582426671 1118389945 758086012 1022557011 -2097156743 -2144678163 -987699740 -1744150622
REM
CELL 1.54180   50.00000   50.00000   50.00000   90.00000   90.00000   90.00000
LATT -1
SFAC C  
C      1  0.5341140000000  0.4124540000000  0.4923400000000 1.0
C      1  0.5988810000000  0.4880310000000  0.4753410000000 1.0
C      1  0.4691220000000  0.4795060000000  0.4155260000000 1.0
C      1  0.5637400000000  0.4591520000000  0.5560170000000 1.0
C      1  0.4701640000000  0.4241610000000  0.5355110000000 1.0
C      1  0.5859340000000  0.5005300000000  0.4975290000000 1.0
C      1  0.4429340000000  0.5690580000000  0.4775600000000 1.0
C      1  0.5778910000000  0.4438300000000  0.5103190000000 1.0
C      1  0.4732410000000  0.5024840000000  0.4731290000000 1.0
C      1  0.5212480000000  0.4167700000000  0.4668660000000 1.0
C      1  0.4638160000000  0.6317410000000  0.4585260000000 1.0
C      1  0.5188060000000  0.4848530000000  0.4226550000000 1.0
C      1  0.4343250000000  0.4495400000000  0.4762160000000 1.0
C      1  0.4728450000000  0.4336380000000  0.5637870000000 1.0
C      1  0.4137990000000  0.4296070000000  0.5143530000000 1.0
C      1  0.4869370000000  0.4501150000000  0.4716910000000 1.0
C      1  0.5316700000000  0.4994880000000  0.5644330000000 1.0
C      1  0.4782480000000  0.5305230000000  0.5641030000000 1.0
C      1  0.5116230000000  0.5684630000000  0.4614900000000 1.0
C      1  0.4723760000000  0.4706290000000  0.5241100000000 1.0
C      1  0.4820480000000  0.6159520000000  0.5555170000000 1.0
C      1  0.5387180000000  0.4717560000000  0.4881290000000 1.0
C      1  0.4369520000000  0.4550930000000  0.4502590000000 1.0
C      1  0.5439370000000  0.4549250000000  0.5770300000000 1.0
C      1  0.4598580000000  0.6500800000000  0.4404380000000 1.0
C      1  0.5758820000000  0.5190170000000  0.4291410000000 1.0
C      1  0.4973930000000  0.4397090000000  0.5791780000000 1.0
C      1  0.5090120000000  0.5224080000000  0.4455170000000 1.0
C      1  0.5199060000000  0.4954890000000  0.4507360000000 1.0
C      1  0.4998020000000  0.4413110000000  0.4272520000000 1.0
C      1  0.4406940000000  0.5236070000000  0.5227170000000 1.0
C      1  0.5107830000000  0.5216190000000  0.5270530000000 1.0
C      1  0.4871820000000  0.5358820000000  0.5373930000000 1.0
C      1  0.5355070000000  0.5616140000000  0.4762600000000 1.0
C      1  0.4986030000000  0.4758130000000  0.5339080000000 1.0
C      1  0.4845770000000  0.5719630000000  0.4522480000000 1.0
C      1  0.5255970000000  0.4324290000000  0.5809410000000 1.0
C      1  0.4242150000000  0.5297170000000  0.4999340000000 1.0
C      1  0.4750350000000  0.6182840000000  0.5036280000000 1.0
C      1  0.4616750000000  0.5074590000000  0.4112350000000 1.0
C      1  0.5192500000000  0.4278380000000  0.5355570000000 1.0
C      1  0.5813840000000  0.4776490000000  0.4556210000000 1.0
C      1  0.5018070000000  0.4332110000000  0.4544570000000 1.0
C      1  0.5756500000000  0.4850800000000  0.5481150000000 1.0
C      1  0.4357020000000  0.4419140000000  0.5032660000000 1.0
C      1  0.5692990000000  0.5236220000000  0.4885220000000 1.0
C      1  0.4876370000000  0.4773580000000  0.4772450000000 1.0
C      1  0.4963180000000  0.4680790000000  0.4173000000000 1.0
C      1  0.4549150000000  0.4568080000000  0.5708040000000 1.0
C      1  0.5815430000000  0.4927410000000  0.4318800000000 1.0
C      1  0.4282680000000  0.4625070000000  0.5631440000000 1.0
C      1  0.5283620000000  0.5082520000000  0.4075630000000 1.0
C      1  0.5849830000000  0.4823410000000  0.5199410000000 1.0
C      1  0.4813170000000  0.5183620000000  0.4507080000000 1.0
C      1  0.4725700000000  0.5577650000000  0.4297470000000 1.0
C      1  0.4387000000000  0.5073930000000  0.5470300000000 1.0
C      1  0.5385190000000  0.4620410000000  0.5145180000000 1.0
C      1  0.5410790000000  0.5763080000000  0.4988810000000 1.0
C      1  0.4811750000000  0.5499270000000  0.5838120000000 1.0
C      1  0.4653390000000  0.5844510000000  0.4697260000000 1.0
C      1  0.5145850000000  0.4088810000000  0.5149700000000 1.0
C      1  0.5158110000000  0.4547390000000  0.5288210000000 1.0
C      1  0.4791970000000  0.6212210000000  0.5296520000000 1.0
C      1  0.5294070000000  0.5312700000000  0.4265270000000 1.0
C      1  0.4487950000000  0.4640390000000  0.4280500000000 1.0
C      1  0.4834350000000  0.6003860000000  0.5770160000000 1.0
C      1  0.5088180000000  0.5144340000000  0.4990920000000 1.0
C      1  0.4859400000000  0.4044150000000  0.5198400000000 1.0
C      1  0.4681350000000  0.6115820000000  0.4773910000000 1.0
C      1  0.4308850000000  0.5433440000000  0.4752650000000 1.0
C      1  0.4353700000000  0.5312630000000  0.4494310000000 1.0
C      1  0.4713940000000  0.4811100000000  0.5774480000000 1.0
C      1  0.5549700000000  0.5346730000000  0.4399640000000 1.0
C      1  0.5543070000000  0.5404680000000  0.4687710000000 1.0
C      1  0.5633470000000  0.4225770000000  0.4951620000000 1.0
C      1  0.5578720000000  0.4666670000000  0.4673790000000 1.0
C      1  0.5593410000000  0.4489340000000  0.5300220000000 1.0
C      1  0.5260090000000  0.4782910000000  0.5824130000000 1.0
C      1  0.4588700000000  0.4458290000000  0.5193230000000 1.0
C      1  0.5590740000000  0.5057860000000  0.5585820000000 1.0
C      1  0.4796750000000  0.5198890000000  0.4946620000000 1.0
C      1  0.4621100000000  0.5067520000000  0.5658640000000 1.0
C      1  0.5134940000000  0.4989610000000  0.5429750000000 1.0
C      1  0.4830920000000  0.5761570000000  0.5880130000000 1.0
C      1  0.4207410000000  0.4858400000000  0.5513530000000 1.0
C      1  0.4977740000000  0.4699220000000  0.5848300000000 1.0
C      1  0.4674960000000  0.5315490000000  0.5170620000000 1.0
C      1  0.4608050000000  0.5296030000000  0.4323000000000 1.0
C      1  0.5163440000000  0.4890710000000  0.4799700000000 1.0
END
