TITL C-627113-6568-1366 3.72632781906165 125000 -326.702018625522 0 0 55 (C1) n - 1
REM
REM in /home/nfs/bkarasulu/CARBON/AIRSS/Generating-Clusters/LCBOP/Only-C1/SD-CG/FIRE-CG
REM
REM
REM
REM
REM
REM ./C.cell (11c1c37f851c82e70ff6c80c92926a4b)
REM AIRSS Version 0.9.1 bugfix July 2018 build 013d7b7c2542+ Fri, 06 Jul 2018 19:26:36 +0100
REM compiler GCC version 9.2.1 20190827 (Red Hat 9.2.1-1)
REM options -cpp -mtune=generic -march=x86-64 -g -O0 -fpre-include=/usr/include/finclude/math-vector-fortran.h
REM seed 1814256735 -820867949 -952008581 -537716171 -955535705 -187622242 -1915277087 -853123636 -863024631 -891316756 -1561382498 2012826320 -862029876 -2014228361 -1005946902 -1814957723 784371904 -1941345 -570732815 -1178478045 1733430372 -2055422445 767004124 203477356 -846528549 -1714070155 642011777 -1075436729 1710668546 2128013103 475371963 2093532187 -777668932
REM
CELL 1.54180   50.00000   50.00000   50.00000   90.00000   90.00000   90.00000
LATT -1
SFAC C  
C      1  0.4881160000000  0.5235050000000  0.4602120000000 1.0
C      1  0.5249160000000  0.5322210000000  0.5213460000000 1.0
C      1  0.5017290000000  0.5703290000000  0.4815220000000 1.0
C      1  0.5483380000000  0.4628870000000  0.5990070000000 1.0
C      1  0.4403290000000  0.6162200000000  0.5444440000000 1.0
C      1  0.5321590000000  0.5144040000000  0.4386010000000 1.0
C      1  0.4557780000000  0.4273760000000  0.5261310000000 1.0
C      1  0.5818630000000  0.5152940000000  0.4510660000000 1.0
C      1  0.5098720000000  0.4399010000000  0.4936640000000 1.0
C      1  0.5041860000000  0.4812910000000  0.4549590000000 1.0
C      1  0.4977570000000  0.5417130000000  0.5209630000000 1.0
C      1  0.5352880000000  0.4538040000000  0.5772110000000 1.0
C      1  0.6012370000000  0.5219020000000  0.4681340000000 1.0
C      1  0.5724620000000  0.5327130000000  0.5934920000000 1.0
C      1  0.5332640000000  0.4664430000000  0.5535370000000 1.0
C      1  0.4907650000000  0.5659700000000  0.5072810000000 1.0
C      1  0.4607710000000  0.4400300000000  0.5023990000000 1.0
C      1  0.4852210000000  0.4855760000000  0.4981970000000 1.0
C      1  0.5654690000000  0.5031860000000  0.5553660000000 1.0
C      1  0.5423240000000  0.4911320000000  0.5432800000000 1.0
C      1  0.5355970000000  0.4372880000000  0.4848300000000 1.0
C      1  0.3601950000000  0.4510640000000  0.3781760000000 1.0
C      1  0.4224120000000  0.4936900000000  0.5409130000000 1.0
C      1  0.4772720000000  0.5245740000000  0.5311200000000 1.0
C      1  0.5617040000000  0.4861650000000  0.6009690000000 1.0
C      1  0.4645490000000  0.5317830000000  0.5553370000000 1.0
C      1  0.4092150000000  0.4433740000000  0.4402980000000 1.0
C      1  0.5464220000000  0.5556280000000  0.4834850000000 1.0
C      1  0.4419700000000  0.4912740000000  0.5225910000000 1.0
C      1  0.4220020000000  0.5098260000000  0.5626010000000 1.0
C      1  0.3928760000000  0.4459360000000  0.4195930000000 1.0
C      1  0.5569610000000  0.5028960000000  0.4497770000000 1.0
C      1  0.4255850000000  0.4408670000000  0.4609840000000 1.0
C      1  0.5559950000000  0.4517160000000  0.4729670000000 1.0
C      1  0.4850310000000  0.4542540000000  0.4985920000000 1.0
C      1  0.3765380000000  0.4484990000000  0.3988870000000 1.0
C      1  0.4681260000000  0.5006800000000  0.5173710000000 1.0
C      1  0.6030530000000  0.5169260000000  0.5191670000000 1.0
C      1  0.5875990000000  0.5097490000000  0.5395130000000 1.0
C      1  0.4739870000000  0.5848100000000  0.5190900000000 1.0
C      1  0.5515890000000  0.4793280000000  0.4662380000000 1.0
C      1  0.6087120000000  0.5219550000000  0.4936850000000 1.0
C      1  0.3441220000000  0.4535860000000  0.3578070000000 1.0
C      1  0.5227370000000  0.5566610000000  0.4679830000000 1.0
C      1  0.4825140000000  0.4963110000000  0.4686110000000 1.0
C      1  0.4571290000000  0.6009270000000  0.5316580000000 1.0
C      1  0.5250290000000  0.4827490000000  0.4758900000000 1.0
C      1  0.4418360000000  0.5270570000000  0.5689700000000 1.0
C      1  0.5280770000000  0.5039600000000  0.5225620000000 1.0
C      1  0.5668370000000  0.5078340000000  0.5836430000000 1.0
C      1  0.5147670000000  0.5340200000000  0.4527030000000 1.0
C      1  0.5143670000000  0.4924780000000  0.4307320000000 1.0
C      1  0.5154000000000  0.4901160000000  0.5017640000000 1.0
C      1  0.4422450000000  0.4390580000000  0.4814930000000 1.0
C      1  0.5457020000000  0.5470660000000  0.5091880000000 1.0
END
