TITL C-627108-131-1660 -3.07000384976056e-06 125000 -840.144980463424 0 0 136 (C1) n - 1
REM
REM in /home/nfs/bkarasulu/CARBON/AIRSS/Generating-Clusters/LCBOP/Only-C1/SD-CG/FIRE-CG
REM
REM
REM
REM
REM
REM ./C.cell (11c1c37f851c82e70ff6c80c92926a4b)
REM AIRSS Version 0.9.1 bugfix July 2018 build 013d7b7c2542+ Fri, 06 Jul 2018 19:26:36 +0100
REM compiler GCC version 9.2.1 20190827 (Red Hat 9.2.1-1)
REM options -cpp -mtune=generic -march=x86-64 -g -O0 -fpre-include=/usr/include/finclude/math-vector-fortran.h
REM seed -598232381 -1496440371 -1261464514 -448221317 -261911176 -421595314 1016310276 -1272852651 -1945724496 226357259 -1997543512 -1492005135 98143615 1925368520 -961231974 2000523192 -1757097128 543544485 -1570874078 117253734 753346585 -2062837387 -1714085177 698646843 -1330592387 781252475 1280168672 -648442349 -282108775 -1792475040 -1308051081 -1693368108 1368380305
REM
CELL 1.54180   50.00000   50.00000   50.00000   90.00000   90.00000   90.00000
LATT -1
SFAC C  
C      1  0.5200850000000  0.5230820000000  0.4404820000000 1.0
C      1  0.6005640000000  0.4274050000000  0.5240090000000 1.0
C      1  0.5530220000000  0.4453120000000  0.4953990000000 1.0
C      1  0.4919740000000  0.4354160000000  0.5358770000000 1.0
C      1  0.4351830000000  0.5960240000000  0.4926750000000 1.0
C      1  0.4761350000000  0.3921070000000  0.5207760000000 1.0
C      1  0.5480820000000  0.5047520000000  0.5130660000000 1.0
C      1  0.3869340000000  0.5620830000000  0.5372730000000 1.0
C      1  0.4786990000000  0.5404600000000  0.5932870000000 1.0
C      1  0.5541860000000  0.4612120000000  0.5687260000000 1.0
C      1  0.4063290000000  0.4490940000000  0.5402350000000 1.0
C      1  0.4934760000000  0.5187680000000  0.5826750000000 1.0
C      1  0.4597930000000  0.5845220000000  0.4854420000000 1.0
C      1  0.4451620000000  0.4396910000000  0.4801110000000 1.0
C      1  0.5519930000000  0.4917320000000  0.4086520000000 1.0
C      1  0.5488990000000  0.4702710000000  0.4822270000000 1.0
C      1  0.4262710000000  0.4538760000000  0.4961180000000 1.0
C      1  0.4497440000000  0.5017130000000  0.5704490000000 1.0
C      1  0.6074730000000  0.4506990000000  0.5123500000000 1.0
C      1  0.5489950000000  0.3757020000000  0.5267260000000 1.0
C      1  0.5723200000000  0.5787580000000  0.4788860000000 1.0
C      1  0.4681320000000  0.5910510000000  0.5794890000000 1.0
C      1  0.5861880000000  0.4076810000000  0.5353580000000 1.0
C      1  0.5809270000000  0.6156180000000  0.5073280000000 1.0
C      1  0.5869140000000  0.5307020000000  0.5605860000000 1.0
C      1  0.3762660000000  0.5469550000000  0.5565410000000 1.0
C      1  0.3851610000000  0.5320600000000  0.5768880000000 1.0
C      1  0.5527330000000  0.4309660000000  0.4501090000000 1.0
C      1  0.5182130000000  0.5237920000000  0.5699560000000 1.0
C      1  0.5980750000000  0.4843980000000  0.4769210000000 1.0
C      1  0.5018850000000  0.5803350000000  0.4624800000000 1.0
C      1  0.5579930000000  0.4235390000000  0.4771180000000 1.0
C      1  0.5270380000000  0.4784270000000  0.3981310000000 1.0
C      1  0.5499010000000  0.3972780000000  0.4818730000000 1.0
C      1  0.4360970000000  0.5240640000000  0.5820060000000 1.0
C      1  0.5622710000000  0.6092760000000  0.5256420000000 1.0
C      1  0.5661340000000  0.5234900000000  0.5789330000000 1.0
C      1  0.5197210000000  0.5914060000000  0.5460690000000 1.0
C      1  0.4541630000000  0.3763050000000  0.5143330000000 1.0
C      1  0.4090570000000  0.4412880000000  0.5145370000000 1.0
C      1  0.4696750000000  0.4340870000000  0.4933230000000 1.0
C      1  0.5055820000000  0.3815640000000  0.5589190000000 1.0
C      1  0.4943290000000  0.5904030000000  0.5861580000000 1.0
C      1  0.5028940000000  0.6333150000000  0.5084320000000 1.0
C      1  0.5232380000000  0.3767230000000  0.5141010000000 1.0
C      1  0.4523770000000  0.5470010000000  0.5845080000000 1.0
C      1  0.4374500000000  0.4900320000000  0.5481640000000 1.0
C      1  0.5003690000000  0.3807730000000  0.5309890000000 1.0
C      1  0.5180680000000  0.5461750000000  0.5225680000000 1.0
C      1  0.4184920000000  0.4695660000000  0.5526560000000 1.0
C      1  0.4865120000000  0.4918880000000  0.3727170000000 1.0
C      1  0.4117950000000  0.5474110000000  0.4547510000000 1.0
C      1  0.5864060000000  0.4863800000000  0.4522170000000 1.0
C      1  0.4770380000000  0.5042250000000  0.4882000000000 1.0
C      1  0.4770240000000  0.4958240000000  0.5771920000000 1.0
C      1  0.4622760000000  0.4850390000000  0.3819410000000 1.0
C      1  0.4076870000000  0.5591630000000  0.4787310000000 1.0
C      1  0.4438650000000  0.4978950000000  0.5214210000000 1.0
C      1  0.5646860000000  0.3916650000000  0.5442880000000 1.0
C      1  0.5923950000000  0.4944950000000  0.5266650000000 1.0
C      1  0.5276570000000  0.5677960000000  0.4651340000000 1.0
C      1  0.5048070000000  0.3866620000000  0.4670770000000 1.0
C      1  0.5249520000000  0.3847470000000  0.4868700000000 1.0
C      1  0.5445290000000  0.4459750000000  0.5228980000000 1.0
C      1  0.4862980000000  0.5953830000000  0.4819200000000 1.0
C      1  0.4224750000000  0.5095040000000  0.4244860000000 1.0
C      1  0.5265410000000  0.4394660000000  0.4458500000000 1.0
C      1  0.5078390000000  0.4652480000000  0.4143840000000 1.0
C      1  0.4607510000000  0.5558240000000  0.4865120000000 1.0
C      1  0.4461730000000  0.4252380000000  0.3827690000000 1.0
C      1  0.5191230000000  0.5256000000000  0.5417390000000 1.0
C      1  0.6026980000000  0.4779130000000  0.5048690000000 1.0
C      1  0.5183480000000  0.5829750000000  0.5738160000000 1.0
C      1  0.4322110000000  0.3637660000000  0.5064200000000 1.0
C      1  0.5413460000000  0.5651880000000  0.5780170000000 1.0
C      1  0.5868300000000  0.6003120000000  0.4859150000000 1.0
C      1  0.5089080000000  0.5447960000000  0.3812020000000 1.0
C      1  0.4913210000000  0.4485750000000  0.4833800000000 1.0
C      1  0.5870010000000  0.5590190000000  0.5554190000000 1.0
C      1  0.4646310000000  0.5152910000000  0.5116050000000 1.0
C      1  0.4103450000000  0.3521090000000  0.4983210000000 1.0
C      1  0.5100080000000  0.6582390000000  0.5111190000000 1.0
C      1  0.4086390000000  0.5241320000000  0.5868090000000 1.0
C      1  0.4696780000000  0.5442140000000  0.5113460000000 1.0
C      1  0.4756210000000  0.4204460000000  0.5176260000000 1.0
C      1  0.4962640000000  0.6064680000000  0.5058700000000 1.0
C      1  0.4437200000000  0.4434030000000  0.4516540000000 1.0
C      1  0.4789400000000  0.5168130000000  0.4631260000000 1.0
C      1  0.4921190000000  0.5591640000000  0.5221230000000 1.0
C      1  0.4914630000000  0.3988270000000  0.4470150000000 1.0
C      1  0.5521870000000  0.3943930000000  0.5696360000000 1.0
C      1  0.5136160000000  0.4962530000000  0.3788740000000 1.0
C      1  0.4235130000000  0.5369620000000  0.4309990000000 1.0
C      1  0.4157340000000  0.5763000000000  0.5001640000000 1.0
C      1  0.4507130000000  0.4425850000000  0.4034310000000 1.0
C      1  0.5083940000000  0.4386400000000  0.4242590000000 1.0
C      1  0.6098520000000  0.5727150000000  0.5494870000000 1.0
C      1  0.4856500000000  0.4216800000000  0.4308650000000 1.0
C      1  0.4394790000000  0.5527350000000  0.4137970000000 1.0
C      1  0.4316730000000  0.4812840000000  0.5015390000000 1.0
C      1  0.5196290000000  0.4355330000000  0.5304650000000 1.0
C      1  0.5645550000000  0.4901500000000  0.5305390000000 1.0
C      1  0.4299800000000  0.6227370000000  0.4924560000000 1.0
C      1  0.5261910000000  0.3887230000000  0.5748310000000 1.0
C      1  0.5318240000000  0.5459710000000  0.4475320000000 1.0
C      1  0.4307710000000  0.4829320000000  0.4216120000000 1.0
C      1  0.4820840000000  0.4511480000000  0.5567700000000 1.0
C      1  0.4320340000000  0.5750150000000  0.5483290000000 1.0
C      1  0.4843260000000  0.5633840000000  0.4469430000000 1.0
C      1  0.5617070000000  0.5719540000000  0.5579570000000 1.0
C      1  0.5559150000000  0.4652160000000  0.5410790000000 1.0
C      1  0.4880150000000  0.4697660000000  0.5769920000000 1.0
C      1  0.5368230000000  0.4609070000000  0.5890020000000 1.0
C      1  0.4273130000000  0.4653060000000  0.4434790000000 1.0
C      1  0.4969620000000  0.5075260000000  0.4437540000000 1.0
C      1  0.5399000000000  0.5638280000000  0.5133480000000 1.0
C      1  0.4594700000000  0.4331630000000  0.4294460000000 1.0
C      1  0.4117640000000  0.5717350000000  0.5282580000000 1.0
C      1  0.5506480000000  0.5179320000000  0.3951880000000 1.0
C      1  0.4981530000000  0.5876540000000  0.5273240000000 1.0
C      1  0.5702110000000  0.4868460000000  0.4301790000000 1.0
C      1  0.4463950000000  0.4711040000000  0.4005200000000 1.0
C      1  0.4931180000000  0.4837440000000  0.4299540000000 1.0
C      1  0.5258400000000  0.5225500000000  0.3809020000000 1.0
C      1  0.4850300000000  0.5552140000000  0.3873340000000 1.0
C      1  0.6038940000000  0.5126690000000  0.5455930000000 1.0
C      1  0.4606190000000  0.5572630000000  0.3980420000000 1.0
C      1  0.5129080000000  0.4491730000000  0.4684960000000 1.0
C      1  0.4488440000000  0.5720080000000  0.5711230000000 1.0
C      1  0.5105760000000  0.4642110000000  0.5929090000000 1.0
C      1  0.4702680000000  0.5438750000000  0.4622130000000 1.0
C      1  0.6309320000000  0.5124860000000  0.5500880000000 1.0
C      1  0.5419910000000  0.4953590000000  0.4886770000000 1.0
C      1  0.5465860000000  0.5695430000000  0.4860170000000 1.0
C      1  0.5476560000000  0.5852810000000  0.5344790000000 1.0
C      1  0.5406710000000  0.5365220000000  0.5821480000000 1.0
END
