TITL C-627113-6568-1244 1.95292927535628e-08 125000 -187.453955444859 0 0 32 (C1) n - 1
REM
REM in /home/nfs/bkarasulu/CARBON/AIRSS/Generating-Clusters/LCBOP/Only-C1/SD-CG/FIRE-CG
REM
REM
REM
REM
REM
REM ./C.cell (11c1c37f851c82e70ff6c80c92926a4b)
REM AIRSS Version 0.9.1 bugfix July 2018 build 013d7b7c2542+ Fri, 06 Jul 2018 19:26:36 +0100
REM compiler GCC version 9.2.1 20190827 (Red Hat 9.2.1-1)
REM options -cpp -mtune=generic -march=x86-64 -g -O0 -fpre-include=/usr/include/finclude/math-vector-fortran.h
REM seed 1879043354 -904342601 -1852065510 1809891196 1885095996 -1334120969 -2104748806 -526973081 -1738835037 -29558734 -1620365532 574570415 1317685593 1082428064 161579305 326879411 1517187586 1106817147 1270700925 101917884 1083736604 -1779042751 249459673 -1993088988 1639839292 -1098004549 -156496435 -649605324 -618677185 -413394402 -1757919166 2039408843 607577020
REM
CELL 1.54180   50.00000   50.00000   50.00000   90.00000   90.00000   90.00000
LATT -1
SFAC C  
C      1  0.4672950000000  0.4604320000000  0.5593480000000 1.0
C      1  0.4529490000000  0.5390490000000  0.4858030000000 1.0
C      1  0.4730600000000  0.5586950000000  0.4866950000000 1.0
C      1  0.4617860000000  0.5132100000000  0.4792960000000 1.0
C      1  0.4874330000000  0.4838930000000  0.4511660000000 1.0
C      1  0.4881080000000  0.4471950000000  0.4897480000000 1.0
C      1  0.4012640000000  0.5499450000000  0.4963200000000 1.0
C      1  0.5091230000000  0.5501480000000  0.5164310000000 1.0
C      1  0.5123620000000  0.4871230000000  0.4382290000000 1.0
C      1  0.5612800000000  0.4715050000000  0.5695450000000 1.0
C      1  0.5462150000000  0.4496240000000  0.4501640000000 1.0
C      1  0.4752600000000  0.4936140000000  0.4959880000000 1.0
C      1  0.4830740000000  0.4432140000000  0.5161440000000 1.0
C      1  0.4908970000000  0.5539640000000  0.5865600000000 1.0
C      1  0.5043330000000  0.5053240000000  0.5347050000000 1.0
C      1  0.4971420000000  0.5443220000000  0.5631690000000 1.0
C      1  0.5222060000000  0.5134200000000  0.4361200000000 1.0
C      1  0.5567580000000  0.4571810000000  0.5239200000000 1.0
C      1  0.5243910000000  0.5371050000000  0.4482300000000 1.0
C      1  0.4857240000000  0.4725040000000  0.4777680000000 1.0
C      1  0.5277910000000  0.4915530000000  0.5415820000000 1.0
C      1  0.5487700000000  0.4734000000000  0.5453020000000 1.0
C      1  0.5174900000000  0.5532450000000  0.4683210000000 1.0
C      1  0.5009300000000  0.5571690000000  0.4905830000000 1.0
C      1  0.5599980000000  0.4464800000000  0.4998570000000 1.0
C      1  0.4675810000000  0.5050890000000  0.4520260000000 1.0
C      1  0.5298690000000  0.4654000000000  0.4362640000000 1.0
C      1  0.4262900000000  0.5448130000000  0.4911700000000 1.0
C      1  0.5035880000000  0.5334820000000  0.5382850000000 1.0
C      1  0.5568390000000  0.4431990000000  0.4736840000000 1.0
C      1  0.4828860000000  0.4904070000000  0.5232550000000 1.0
C      1  0.4773100000000  0.4642980000000  0.5343250000000 1.0
END
