TITL C-627112-676-1509 0.000106657909211524 125000 -411.550533208358 0 0 69 (C1) n - 1
REM
REM in /home/nfs/bkarasulu/CARBON/AIRSS/Generating-Clusters/LCBOP/Only-C1/SD-CG/FIRE-CG
REM
REM
REM
REM
REM
REM ./C.cell (11c1c37f851c82e70ff6c80c92926a4b)
REM AIRSS Version 0.9.1 bugfix July 2018 build 013d7b7c2542+ Fri, 06 Jul 2018 19:26:36 +0100
REM compiler GCC version 9.2.1 20190827 (Red Hat 9.2.1-1)
REM options -cpp -mtune=generic -march=x86-64 -g -O0 -fpre-include=/usr/include/finclude/math-vector-fortran.h
REM seed -1616681869 -710372201 -47370089 -537040082 -1949448498 -1500900114 -454052901 -1558239569 -975351049 -169022491 1635370641 -1236008453 -1527345184 803210403 1000554693 1359335142 -1930532170 -1541387888 218769298 87233713 -1731231080 -100275178 2036807593 -2123510074 2053479242 2034127178 -1739066301 743871584 -561909102 -1444567115 1137903297 -250124181 -877996072
REM
CELL 1.54180   50.00000   50.00000   50.00000   90.00000   90.00000   90.00000
LATT -1
SFAC C  
C      1  0.5304990000000  0.5299190000000  0.5543680000000 1.0
C      1  0.4173810000000  0.5404020000000  0.5392900000000 1.0
C      1  0.4038200000000  0.6136010000000  0.5302120000000 1.0
C      1  0.5098000000000  0.5604170000000  0.4568830000000 1.0
C      1  0.4477490000000  0.5650820000000  0.5650960000000 1.0
C      1  0.4319500000000  0.4961420000000  0.5486710000000 1.0
C      1  0.5581510000000  0.4908120000000  0.5482290000000 1.0
C      1  0.5680120000000  0.4938450000000  0.4308530000000 1.0
C      1  0.4960030000000  0.5146440000000  0.4222570000000 1.0
C      1  0.5431090000000  0.5025800000000  0.4279140000000 1.0
C      1  0.4437210000000  0.4751480000000  0.5634550000000 1.0
C      1  0.6548840000000  0.5227930000000  0.3960370000000 1.0
C      1  0.4898850000000  0.5773100000000  0.4614280000000 1.0
C      1  0.4213920000000  0.5628130000000  0.4853100000000 1.0
C      1  0.5616650000000  0.4073690000000  0.5303640000000 1.0
C      1  0.4960880000000  0.5642650000000  0.5490440000000 1.0
C      1  0.5091220000000  0.5412270000000  0.5400550000000 1.0
C      1  0.4319060000000  0.4504730000000  0.5641650000000 1.0
C      1  0.4675400000000  0.4798240000000  0.5778950000000 1.0
C      1  0.5761180000000  0.4537830000000  0.5221120000000 1.0
C      1  0.4033790000000  0.5124570000000  0.4453090000000 1.0
C      1  0.5234440000000  0.4199550000000  0.4909310000000 1.0
C      1  0.5945300000000  0.4921580000000  0.4395920000000 1.0
C      1  0.6236670000000  0.5077910000000  0.4969680000000 1.0
C      1  0.5506260000000  0.4280890000000  0.4895430000000 1.0
C      1  0.4300310000000  0.4789740000000  0.5006180000000 1.0
C      1  0.4933220000000  0.4839880000000  0.5835000000000 1.0
C      1  0.6150970000000  0.5026890000000  0.4238860000000 1.0
C      1  0.3979170000000  0.5249770000000  0.4682950000000 1.0
C      1  0.5765250000000  0.4983430000000  0.5030690000000 1.0
C      1  0.4844260000000  0.4921110000000  0.4855620000000 1.0
C      1  0.4236190000000  0.4953950000000  0.4360040000000 1.0
C      1  0.5669850000000  0.4291210000000  0.5128840000000 1.0
C      1  0.4937990000000  0.4766710000000  0.5289560000000 1.0
C      1  0.4446050000000  0.5044240000000  0.4197630000000 1.0
C      1  0.6076430000000  0.4534240000000  0.4653530000000 1.0
C      1  0.4436820000000  0.5390250000000  0.5772840000000 1.0
C      1  0.5409000000000  0.5296670000000  0.4777530000000 1.0
C      1  0.4654060000000  0.5842890000000  0.4689060000000 1.0
C      1  0.4924160000000  0.4986680000000  0.5115890000000 1.0
C      1  0.4918690000000  0.4508550000000  0.5350500000000 1.0
C      1  0.5360570000000  0.3949860000000  0.5313180000000 1.0
C      1  0.6008300000000  0.4799380000000  0.4645110000000 1.0
C      1  0.5039740000000  0.4291440000000  0.4731670000000 1.0
C      1  0.4422760000000  0.4709120000000  0.4765610000000 1.0
C      1  0.5573870000000  0.5165480000000  0.4938680000000 1.0
C      1  0.5712030000000  0.4812350000000  0.5252660000000 1.0
C      1  0.4284550000000  0.4728490000000  0.4522200000000 1.0
C      1  0.5311060000000  0.3715410000000  0.5442310000000 1.0
C      1  0.4145610000000  0.5909020000000  0.5371810000000 1.0
C      1  0.6351230000000  0.5128190000000  0.4098060000000 1.0
C      1  0.4244370000000  0.4978570000000  0.5204270000000 1.0
C      1  0.5160350000000  0.4097360000000  0.5169830000000 1.0
C      1  0.6007570000000  0.4955310000000  0.4883550000000 1.0
C      1  0.4281860000000  0.5219770000000  0.5603430000000 1.0
C      1  0.5207480000000  0.5179130000000  0.4349590000000 1.0
C      1  0.4148250000000  0.5251000000000  0.5149920000000 1.0
C      1  0.4736640000000  0.5739400000000  0.5598870000000 1.0
C      1  0.4848640000000  0.4469410000000  0.4679020000000 1.0
C      1  0.4706270000000  0.4698890000000  0.4750960000000 1.0
C      1  0.4972800000000  0.4250770000000  0.5310880000000 1.0
C      1  0.5188030000000  0.4902930000000  0.5783560000000 1.0
C      1  0.4703020000000  0.5107350000000  0.4165880000000 1.0
C      1  0.4098850000000  0.5376830000000  0.4902040000000 1.0
C      1  0.4260310000000  0.5671640000000  0.5455620000000 1.0
C      1  0.4408600000000  0.5790610000000  0.4775180000000 1.0
C      1  0.5375410000000  0.5037480000000  0.5621730000000 1.0
C      1  0.5238730000000  0.5363350000000  0.4565320000000 1.0
C      1  0.4976280000000  0.5246250000000  0.5204540000000 1.0
END
