TITL C-627108-131-93 0.335965291860141 125000 -614.97125194854 0 0 104 (C1) n - 1
REM
REM in /home/nfs/bkarasulu/CARBON/AIRSS/Generating-Clusters/LCBOP/Only-C1/SD-CG/FIRE-CG
REM
REM
REM
REM
REM
REM ./C.cell (11c1c37f851c82e70ff6c80c92926a4b)
REM AIRSS Version 0.9.1 bugfix July 2018 build 013d7b7c2542+ Fri, 06 Jul 2018 19:26:36 +0100
REM compiler GCC version 9.2.1 20190827 (Red Hat 9.2.1-1)
REM options -cpp -mtune=generic -march=x86-64 -g -O0 -fpre-include=/usr/include/finclude/math-vector-fortran.h
REM seed -235346086 -733776665 953323326 210868405 -1970695271 1224554375 -1392189210 1191273172 -802224969 1662337242 728622443 -73192853 -481110873 -787604484 1456527499 1686862858 -1880294250 -1561550032 1485651927 1385900386 -961674886 1920120183 -1487610148 315154501 2025013022 1028254139 1599221926 496261233 -1298970314 1103337772 -327833181 441166676 1438020602
REM
CELL 1.54180   50.00000   50.00000   50.00000   90.00000   90.00000   90.00000
LATT -1
SFAC C  
C      1  0.5618210000000  0.5340330000000  0.4342660000000 1.0
C      1  0.5469570000000  0.5973000000000  0.4667560000000 1.0
C      1  0.4645000000000  0.4377520000000  0.5527160000000 1.0
C      1  0.4989350000000  0.3809200000000  0.5290300000000 1.0
C      1  0.4862030000000  0.5456980000000  0.5848840000000 1.0
C      1  0.6071680000000  0.4647750000000  0.5383530000000 1.0
C      1  0.5155510000000  0.4634550000000  0.6651630000000 1.0
C      1  0.5519010000000  0.5608510000000  0.5477640000000 1.0
C      1  0.4811490000000  0.4138340000000  0.4490860000000 1.0
C      1  0.4906140000000  0.4266740000000  0.5457910000000 1.0
C      1  0.4964370000000  0.4099220000000  0.4733850000000 1.0
C      1  0.4547940000000  0.4891810000000  0.4826160000000 1.0
C      1  0.4438750000000  0.4548780000000  0.5463350000000 1.0
C      1  0.3904760000000  0.5260540000000  0.4508340000000 1.0
C      1  0.3669650000000  0.5671660000000  0.4248860000000 1.0
C      1  0.5048540000000  0.5362320000000  0.4760770000000 1.0
C      1  0.5053160000000  0.5877100000000  0.4908740000000 1.0
C      1  0.4338690000000  0.5614390000000  0.5334760000000 1.0
C      1  0.4680660000000  0.4590130000000  0.4465960000000 1.0
C      1  0.4900520000000  0.5043900000000  0.4115830000000 1.0
C      1  0.3825930000000  0.5001830000000  0.4467560000000 1.0
C      1  0.4759390000000  0.5607250000000  0.5191850000000 1.0
C      1  0.4793120000000  0.5671690000000  0.5660040000000 1.0
C      1  0.4813690000000  0.4635340000000  0.5191460000000 1.0
C      1  0.5029350000000  0.4719420000000  0.4777640000000 1.0
C      1  0.5764920000000  0.4547510000000  0.4800820000000 1.0
C      1  0.4244550000000  0.5148200000000  0.5577750000000 1.0
C      1  0.4608340000000  0.5799670000000  0.4757150000000 1.0
C      1  0.5115610000000  0.5362510000000  0.5383550000000 1.0
C      1  0.5755660000000  0.5106190000000  0.4327940000000 1.0
C      1  0.5253960000000  0.5807230000000  0.4724230000000 1.0
C      1  0.5589680000000  0.4775810000000  0.5736810000000 1.0
C      1  0.5243590000000  0.4984950000000  0.4489100000000 1.0
C      1  0.4752510000000  0.4735990000000  0.4694770000000 1.0
C      1  0.4862860000000  0.4181780000000  0.4990580000000 1.0
C      1  0.5063390000000  0.5290540000000  0.5936190000000 1.0
C      1  0.4339250000000  0.5333780000000  0.4853360000000 1.0
C      1  0.4293510000000  0.5478920000000  0.5098840000000 1.0
C      1  0.5901930000000  0.6245820000000  0.4545570000000 1.0
C      1  0.5682300000000  0.4616640000000  0.4534320000000 1.0
C      1  0.4823720000000  0.5240600000000  0.4622800000000 1.0
C      1  0.5216230000000  0.5449040000000  0.4113510000000 1.0
C      1  0.3979450000000  0.5190740000000  0.5521870000000 1.0
C      1  0.5679720000000  0.5375060000000  0.5505410000000 1.0
C      1  0.5221650000000  0.5550010000000  0.4604480000000 1.0
C      1  0.4433420000000  0.4448180000000  0.4947380000000 1.0
C      1  0.5232390000000  0.4950770000000  0.6238900000000 1.0
C      1  0.5678900000000  0.5251200000000  0.5761620000000 1.0
C      1  0.5686460000000  0.6112550000000  0.4606980000000 1.0
C      1  0.5197130000000  0.5156370000000  0.4899770000000 1.0
C      1  0.4686070000000  0.5110770000000  0.5314550000000 1.0
C      1  0.4621780000000  0.5143790000000  0.4077890000000 1.0
C      1  0.5050660000000  0.5788930000000  0.5583530000000 1.0
C      1  0.4489720000000  0.5367140000000  0.4149190000000 1.0
C      1  0.4559840000000  0.4007830000000  0.4482800000000 1.0
C      1  0.5819200000000  0.4562760000000  0.5316840000000 1.0
C      1  0.4601370000000  0.5676080000000  0.5433290000000 1.0
C      1  0.4115640000000  0.5317830000000  0.4682430000000 1.0
C      1  0.5362930000000  0.5473000000000  0.4356100000000 1.0
C      1  0.5233460000000  0.4332070000000  0.5797220000000 1.0
C      1  0.4340870000000  0.5192380000000  0.5830260000000 1.0
C      1  0.5084330000000  0.5249000000000  0.3987330000000 1.0
C      1  0.5409920000000  0.5108180000000  0.4703790000000 1.0
C      1  0.3776610000000  0.5470480000000  0.4375390000000 1.0
C      1  0.5024190000000  0.4489290000000  0.4154260000000 1.0
C      1  0.5315920000000  0.4778690000000  0.5190920000000 1.0
C      1  0.5139830000000  0.4878860000000  0.4987790000000 1.0
C      1  0.5416500000000  0.4541950000000  0.4447970000000 1.0
C      1  0.5666090000000  0.5187050000000  0.5286450000000 1.0
C      1  0.4516420000000  0.5742440000000  0.4512410000000 1.0
C      1  0.5812410000000  0.5197130000000  0.5044430000000 1.0
C      1  0.5237420000000  0.5612230000000  0.5462030000000 1.0
C      1  0.5600540000000  0.4602590000000  0.5503320000000 1.0
C      1  0.4570580000000  0.5174030000000  0.4769030000000 1.0
C      1  0.5665640000000  0.5148810000000  0.4809060000000 1.0
C      1  0.5300210000000  0.4427010000000  0.4214170000000 1.0
C      1  0.4288900000000  0.4254030000000  0.4810470000000 1.0
C      1  0.4958350000000  0.4751560000000  0.4045110000000 1.0
C      1  0.4796390000000  0.5775260000000  0.4966890000000 1.0
C      1  0.6080160000000  0.5248740000000  0.5038590000000 1.0
C      1  0.5750530000000  0.4154450000000  0.5072000000000 1.0
C      1  0.4337340000000  0.4068050000000  0.4622720000000 1.0
C      1  0.5193580000000  0.4793240000000  0.6448340000000 1.0
C      1  0.4837910000000  0.4865310000000  0.5359270000000 1.0
C      1  0.5211220000000  0.3980420000000  0.4716710000000 1.0
C      1  0.5224680000000  0.5118970000000  0.5467690000000 1.0
C      1  0.4855620000000  0.5346300000000  0.5260550000000 1.0
C      1  0.5335150000000  0.4554610000000  0.5379890000000 1.0
C      1  0.5155810000000  0.4387880000000  0.5537530000000 1.0
C      1  0.4355130000000  0.4770370000000  0.5288530000000 1.0
C      1  0.4830250000000  0.4384150000000  0.4341990000000 1.0
C      1  0.5222080000000  0.4706510000000  0.4567250000000 1.0
C      1  0.4413660000000  0.5037440000000  0.5379380000000 1.0
C      1  0.4709300000000  0.4416930000000  0.5027680000000 1.0
C      1  0.4973430000000  0.5087890000000  0.4411290000000 1.0
C      1  0.4378650000000  0.4727110000000  0.5001610000000 1.0
C      1  0.5777680000000  0.4429090000000  0.5061460000000 1.0
C      1  0.4471530000000  0.5588790000000  0.4298090000000 1.0
C      1  0.5272420000000  0.5097450000000  0.6001970000000 1.0
C      1  0.5039870000000  0.4918980000000  0.5547390000000 1.0
C      1  0.5518450000000  0.5033310000000  0.5853250000000 1.0
C      1  0.5790120000000  0.4846560000000  0.4399700000000 1.0
C      1  0.4925640000000  0.4070220000000  0.5246170000000 1.0
C      1  0.5440350000000  0.5017710000000  0.5309060000000 1.0
END
