TITL C-627113-6568-1022 3.9606086642327e-06 125000 -618.406751950987 0 0 104 (C1) n - 1
REM
REM in /home/nfs/bkarasulu/CARBON/AIRSS/Generating-Clusters/LCBOP/Only-C1/SD-CG/FIRE-CG
REM
REM
REM
REM
REM
REM ./C.cell (11c1c37f851c82e70ff6c80c92926a4b)
REM AIRSS Version 0.9.1 bugfix July 2018 build 013d7b7c2542+ Fri, 06 Jul 2018 19:26:36 +0100
REM compiler GCC version 9.2.1 20190827 (Red Hat 9.2.1-1)
REM options -cpp -mtune=generic -march=x86-64 -g -O0 -fpre-include=/usr/include/finclude/math-vector-fortran.h
REM seed -1598978739 -375675488 -1039998809 -1171773815 910897222 470514956 -273674908 -465616094 -836758576 -230678638 -634120236 -389825153 1941475309 -579448854 -919956782 -1481341153 -967575829 -2029051840 -2006544801 800419247 -1588975561 -928728049 120099232 -1221632324 1911704103 675079967 -1396666665 -633807472 -1158880041 1556710659 2007692246 -1688158179 -296973159
REM
CELL 1.54180   50.00000   50.00000   50.00000   90.00000   90.00000   90.00000
LATT -1
SFAC C  
C      1  0.4757090000000  0.5669510000000  0.5548640000000 1.0
C      1  0.4079980000000  0.5409650000000  0.4232080000000 1.0
C      1  0.5627350000000  0.5924970000000  0.5238370000000 1.0
C      1  0.5694790000000  0.4958740000000  0.4349450000000 1.0
C      1  0.3909910000000  0.4854950000000  0.4738710000000 1.0
C      1  0.5934240000000  0.5122990000000  0.4806020000000 1.0
C      1  0.5861790000000  0.5492240000000  0.5308810000000 1.0
C      1  0.5519610000000  0.4342810000000  0.4973770000000 1.0
C      1  0.4536270000000  0.4682140000000  0.4449330000000 1.0
C      1  0.4913520000000  0.4350250000000  0.4885320000000 1.0
C      1  0.5417380000000  0.5573620000000  0.5472000000000 1.0
C      1  0.4813540000000  0.4351080000000  0.4241900000000 1.0
C      1  0.4834850000000  0.4703820000000  0.5598890000000 1.0
C      1  0.4290050000000  0.5147810000000  0.5321740000000 1.0
C      1  0.4596490000000  0.5142850000000  0.5686170000000 1.0
C      1  0.5038050000000  0.4169150000000  0.5293540000000 1.0
C      1  0.5299910000000  0.4421430000000  0.4494050000000 1.0
C      1  0.5228580000000  0.4017920000000  0.5173590000000 1.0
C      1  0.4776040000000  0.4473940000000  0.5769020000000 1.0
C      1  0.4366530000000  0.4990240000000  0.5565440000000 1.0
C      1  0.5581370000000  0.4563720000000  0.5404980000000 1.0
C      1  0.4442270000000  0.4343340000000  0.4765220000000 1.0
C      1  0.5430670000000  0.5290290000000  0.4665870000000 1.0
C      1  0.5019620000000  0.5169590000000  0.4968550000000 1.0
C      1  0.4456810000000  0.4621750000000  0.4713070000000 1.0
C      1  0.4828510000000  0.5746910000000  0.4307530000000 1.0
C      1  0.4758270000000  0.4630240000000  0.4273690000000 1.0
C      1  0.5555860000000  0.4536730000000  0.4521490000000 1.0
C      1  0.5200820000000  0.6195230000000  0.4646050000000 1.0
C      1  0.5673930000000  0.5080540000000  0.5558150000000 1.0
C      1  0.4954880000000  0.5874410000000  0.4923810000000 1.0
C      1  0.5319480000000  0.4996080000000  0.5902400000000 1.0
C      1  0.3652710000000  0.4838580000000  0.5153720000000 1.0
C      1  0.4904820000000  0.4876520000000  0.4205680000000 1.0
C      1  0.5615250000000  0.4792830000000  0.5583650000000 1.0
C      1  0.5035420000000  0.5004430000000  0.5943370000000 1.0
C      1  0.4637420000000  0.5565160000000  0.4280580000000 1.0
C      1  0.4529990000000  0.4781730000000  0.4934950000000 1.0
C      1  0.3944310000000  0.4763840000000  0.4483360000000 1.0
C      1  0.4804930000000  0.4949930000000  0.5777880000000 1.0
C      1  0.5071390000000  0.5939670000000  0.5185440000000 1.0
C      1  0.5589550000000  0.4866210000000  0.4985570000000 1.0
C      1  0.4074440000000  0.5065700000000  0.4856300000000 1.0
C      1  0.5129220000000  0.4078180000000  0.5785920000000 1.0
C      1  0.5906370000000  0.4551520000000  0.4185110000000 1.0
C      1  0.5017940000000  0.4750600000000  0.4678280000000 1.0
C      1  0.4893730000000  0.4111550000000  0.4346060000000 1.0
C      1  0.5278760000000  0.4506450000000  0.5776120000000 1.0
C      1  0.5045080000000  0.5337390000000  0.5627620000000 1.0
C      1  0.5134160000000  0.4964920000000  0.4793060000000 1.0
C      1  0.5870230000000  0.5090850000000  0.4540870000000 1.0
C      1  0.5313900000000  0.5421160000000  0.5678490000000 1.0
C      1  0.4730210000000  0.5102900000000  0.4224840000000 1.0
C      1  0.5368810000000  0.4083020000000  0.5639490000000 1.0
C      1  0.4566110000000  0.5535330000000  0.5069940000000 1.0
C      1  0.4915400000000  0.5847260000000  0.5413060000000 1.0
C      1  0.5080750000000  0.5776250000000  0.4428770000000 1.0
C      1  0.5438650000000  0.5076710000000  0.4256410000000 1.0
C      1  0.5081620000000  0.5947490000000  0.4667480000000 1.0
C      1  0.5353520000000  0.6007390000000  0.5203920000000 1.0
C      1  0.5851330000000  0.5892430000000  0.5057030000000 1.0
C      1  0.4799280000000  0.5625610000000  0.4927430000000 1.0
C      1  0.5285460000000  0.5228280000000  0.5134230000000 1.0
C      1  0.5421900000000  0.4749700000000  0.5807460000000 1.0
C      1  0.3832350000000  0.5002130000000  0.5273200000000 1.0
C      1  0.5082290000000  0.4478960000000  0.4684430000000 1.0
C      1  0.5401790000000  0.5334540000000  0.4378370000000 1.0
C      1  0.4674490000000  0.4213620000000  0.4814020000000 1.0
C      1  0.5370750000000  0.4095660000000  0.4939570000000 1.0
C      1  0.5568320000000  0.4592970000000  0.5113740000000 1.0
C      1  0.5665390000000  0.5690950000000  0.5420620000000 1.0
C      1  0.4279810000000  0.5274390000000  0.4402960000000 1.0
C      1  0.5725470000000  0.4676560000000  0.4346180000000 1.0
C      1  0.5418080000000  0.5011140000000  0.4782880000000 1.0
C      1  0.4075650000000  0.5084920000000  0.5148830000000 1.0
C      1  0.5804030000000  0.5203110000000  0.5317170000000 1.0
C      1  0.4824630000000  0.4633750000000  0.5311900000000 1.0
C      1  0.5808370000000  0.5053110000000  0.5058720000000 1.0
C      1  0.4145140000000  0.5276630000000  0.4677970000000 1.0
C      1  0.4833810000000  0.5084740000000  0.5187270000000 1.0
C      1  0.4928140000000  0.4400150000000  0.5174100000000 1.0
C      1  0.4548920000000  0.5300130000000  0.4312770000000 1.0
C      1  0.5447290000000  0.4354640000000  0.5571170000000 1.0
C      1  0.4606950000000  0.5422020000000  0.5548630000000 1.0
C      1  0.3944060000000  0.5490830000000  0.4653590000000 1.0
C      1  0.3898120000000  0.5549810000000  0.4387030000000 1.0
C      1  0.5274040000000  0.4312620000000  0.4241020000000 1.0
C      1  0.5281430000000  0.5590710000000  0.4327260000000 1.0
C      1  0.5984320000000  0.5650890000000  0.5097220000000 1.0
C      1  0.5247920000000  0.5042010000000  0.5346080000000 1.0
C      1  0.5065540000000  0.3976100000000  0.4510030000000 1.0
C      1  0.4340980000000  0.4719870000000  0.5672950000000 1.0
C      1  0.4985540000000  0.5430640000000  0.4841950000000 1.0
C      1  0.5263590000000  0.3982820000000  0.4697620000000 1.0
C      1  0.5258260000000  0.5492380000000  0.4773970000000 1.0
C      1  0.3694000000000  0.4761820000000  0.4897520000000 1.0
C      1  0.4985770000000  0.5134310000000  0.5433180000000 1.0
C      1  0.5477760000000  0.5203380000000  0.5761930000000 1.0
C      1  0.4457910000000  0.5386070000000  0.5292410000000 1.0
C      1  0.5191440000000  0.4934090000000  0.4186270000000 1.0
C      1  0.5327470000000  0.5487740000000  0.5216690000000 1.0
C      1  0.5028260000000  0.4348240000000  0.5835190000000 1.0
C      1  0.4484810000000  0.4506680000000  0.5786180000000 1.0
C      1  0.4706030000000  0.4836340000000  0.5147660000000 1.0
END
