TITL C-627108-131-2119 1.04038694396304 125000 -464.4767070055 0 0 78 (C1) n - 1
REM
REM in /home/nfs/bkarasulu/CARBON/AIRSS/Generating-Clusters/LCBOP/Only-C1/SD-CG/FIRE-CG
REM
REM
REM
REM
REM
REM ./C.cell (11c1c37f851c82e70ff6c80c92926a4b)
REM AIRSS Version 0.9.1 bugfix July 2018 build 013d7b7c2542+ Fri, 06 Jul 2018 19:26:36 +0100
REM compiler GCC version 9.2.1 20190827 (Red Hat 9.2.1-1)
REM options -cpp -mtune=generic -march=x86-64 -g -O0 -fpre-include=/usr/include/finclude/math-vector-fortran.h
REM seed -1992167795 -217887444 1179902674 1682922896 1104435624 1281640749 1937023752 -806871180 1072507249 712444512 51876992 -1038617632 -2002127290 -2022973901 979322683 -816429319 65877830 1398615980 1764561777 -788379677 -958323090 -1907599319 521035137 -430971942 1992235212 770773760 936468020 823444739 1427605726 -1750002574 578037466 1802569414 839480592
REM
CELL 1.54180   50.00000   50.00000   50.00000   90.00000   90.00000   90.00000
LATT -1
SFAC C  
C      1  0.4678910000000  0.5107800000000  0.4968750000000 1.0
C      1  0.5558550000000  0.5556820000000  0.5430370000000 1.0
C      1  0.4660500000000  0.6582620000000  0.6284530000000 1.0
C      1  0.5649410000000  0.4567010000000  0.5114850000000 1.0
C      1  0.5024930000000  0.3939110000000  0.5868400000000 1.0
C      1  0.5207780000000  0.5990570000000  0.5020400000000 1.0
C      1  0.4991560000000  0.5645690000000  0.5408880000000 1.0
C      1  0.4614430000000  0.5177490000000  0.4152350000000 1.0
C      1  0.4909360000000  0.4656430000000  0.4907250000000 1.0
C      1  0.4769280000000  0.5309510000000  0.5137920000000 1.0
C      1  0.4243520000000  0.4677860000000  0.5343650000000 1.0
C      1  0.4245040000000  0.4698840000000  0.3910100000000 1.0
C      1  0.5175290000000  0.4933670000000  0.5252760000000 1.0
C      1  0.4280450000000  0.4654610000000  0.4623080000000 1.0
C      1  0.4802790000000  0.5068980000000  0.4718720000000 1.0
C      1  0.4163980000000  0.4856870000000  0.4805610000000 1.0
C      1  0.5519360000000  0.5034740000000  0.4235910000000 1.0
C      1  0.5590180000000  0.4405560000000  0.4680270000000 1.0
C      1  0.5697310000000  0.5453750000000  0.4951970000000 1.0
C      1  0.5195090000000  0.5770820000000  0.4859000000000 1.0
C      1  0.4713490000000  0.4853330000000  0.4496650000000 1.0
C      1  0.4817720000000  0.5007360000000  0.4254060000000 1.0
C      1  0.5727270000000  0.4837110000000  0.5104490000000 1.0
C      1  0.5550400000000  0.4818370000000  0.4412230000000 1.0
C      1  0.5425620000000  0.3893740000000  0.5539170000000 1.0
C      1  0.4464980000000  0.4537200000000  0.5489050000000 1.0
C      1  0.5074000000000  0.5162030000000  0.4635450000000 1.0
C      1  0.4406510000000  0.4410060000000  0.4703990000000 1.0
C      1  0.4431230000000  0.4772050000000  0.4410410000000 1.0
C      1  0.4861010000000  0.5701390000000  0.4274980000000 1.0
C      1  0.4246470000000  0.4839850000000  0.5092620000000 1.0
C      1  0.4272570000000  0.5284750000000  0.4497070000000 1.0
C      1  0.4723190000000  0.4516390000000  0.5349360000000 1.0
C      1  0.5532790000000  0.4359420000000  0.4959310000000 1.0
C      1  0.5064930000000  0.5115270000000  0.4351520000000 1.0
C      1  0.5548530000000  0.5751330000000  0.5620940000000 1.0
C      1  0.5379640000000  0.4174240000000  0.5113620000000 1.0
C      1  0.4647880000000  0.4619120000000  0.5071600000000 1.0
C      1  0.5690840000000  0.5590770000000  0.5183100000000 1.0
C      1  0.4934830000000  0.4092000000000  0.4946790000000 1.0
C      1  0.4342900000000  0.4747080000000  0.4146810000000 1.0
C      1  0.5271260000000  0.5283990000000  0.4799560000000 1.0
C      1  0.4608440000000  0.5617710000000  0.4314910000000 1.0
C      1  0.5430880000000  0.4554170000000  0.4478280000000 1.0
C      1  0.5250530000000  0.3879950000000  0.5739820000000 1.0
C      1  0.5169250000000  0.5505620000000  0.4959030000000 1.0
C      1  0.5008630000000  0.4450100000000  0.5297070000000 1.0
C      1  0.5846800000000  0.4558360000000  0.4655650000000 1.0
C      1  0.4784830000000  0.6205040000000  0.5933900000000 1.0
C      1  0.4836770000000  0.4605820000000  0.4628560000000 1.0
C      1  0.4154010000000  0.5117670000000  0.4677300000000 1.0
C      1  0.4722670000000  0.6393810000000  0.6109190000000 1.0
C      1  0.5452900000000  0.5293270000000  0.5470420000000 1.0
C      1  0.5648420000000  0.5099020000000  0.5527210000000 1.0
C      1  0.5096600000000  0.4215040000000  0.5144470000000 1.0
C      1  0.4810370000000  0.4130000000000  0.4709970000000 1.0
C      1  0.5320870000000  0.5518870000000  0.4197920000000 1.0
C      1  0.5031800000000  0.5422620000000  0.5219710000000 1.0
C      1  0.5212080000000  0.5204720000000  0.5338310000000 1.0
C      1  0.4451630000000  0.4408310000000  0.4983240000000 1.0
C      1  0.5762570000000  0.4837790000000  0.4618680000000 1.0
C      1  0.4681030000000  0.4359070000000  0.4601880000000 1.0
C      1  0.5137190000000  0.5687840000000  0.4332680000000 1.0
C      1  0.5095650000000  0.4690310000000  0.5132620000000 1.0
C      1  0.5693190000000  0.4981540000000  0.4855730000000 1.0
C      1  0.4530660000000  0.4895210000000  0.5071660000000 1.0
C      1  0.4913320000000  0.5828430000000  0.5583910000000 1.0
C      1  0.4789530000000  0.4053670000000  0.5917030000000 1.0
C      1  0.4847400000000  0.6016320000000  0.5758710000000 1.0
C      1  0.5461950000000  0.5290560000000  0.4172930000000 1.0
C      1  0.4471760000000  0.5370500000000  0.4309270000000 1.0
C      1  0.5789020000000  0.4955730000000  0.5349950000000 1.0
C      1  0.4599350000000  0.6768330000000  0.6456980000000 1.0
C      1  0.5554910000000  0.5232580000000  0.4843460000000 1.0
C      1  0.5490270000000  0.3995500000000  0.5300290000000 1.0
C      1  0.4579470000000  0.4211920000000  0.5874170000000 1.0
C      1  0.5213070000000  0.5797730000000  0.4579970000000 1.0
C      1  0.4446430000000  0.4391290000000  0.5727600000000 1.0
END
