TITL C-627109-622-468 -3.46939709038307 125000 -1084.67625039338 0 0 179 (C1) n - 1
REM
REM in /home/nfs/bkarasulu/CARBON/AIRSS/Generating-Clusters/LCBOP/Only-C1/SD-CG/FIRE-CG
REM
REM
REM
REM
REM
REM ./C.cell (11c1c37f851c82e70ff6c80c92926a4b)
REM AIRSS Version 0.9.1 bugfix July 2018 build 013d7b7c2542+ Fri, 06 Jul 2018 19:26:36 +0100
REM compiler GCC version 9.2.1 20190827 (Red Hat 9.2.1-1)
REM options -cpp -mtune=generic -march=x86-64 -g -O0 -fpre-include=/usr/include/finclude/math-vector-fortran.h
REM seed 269482949 1473519980 -1707655429 374926066 -1038274054 -1047088546 -4729685 -1208944298 356352535 -506090662 1524719516 2008431014 -1066918884 613249758 -1687361685 -2142443818 2026876055 -190648975 -117835810 -1239407235 -1097847260 2142239914 -1624457137 619024056 309909415 -1162204378 -1651442407 1298233557 137187609 1438799036 -928122181 259259946 797622369
REM
CELL 1.54180   50.00000   50.00000   50.00000   90.00000   90.00000   90.00000
LATT -1
SFAC C  
C      1  0.3982950000000  0.4810800000000  0.5110470000000 1.0
C      1  0.5736070000000  0.4648690000000  0.4257210000000 1.0
C      1  0.4710030000000  0.3852100000000  0.4978190000000 1.0
C      1  0.3910040000000  0.5092580000000  0.5165730000000 1.0
C      1  0.5711690000000  0.5992860000000  0.4790170000000 1.0
C      1  0.5621520000000  0.4415340000000  0.4403770000000 1.0
C      1  0.3992770000000  0.5562020000000  0.4487870000000 1.0
C      1  0.4110710000000  0.4349800000000  0.5504400000000 1.0
C      1  0.4585490000000  0.4046850000000  0.5876990000000 1.0
C      1  0.3857980000000  0.4462250000000  0.5422590000000 1.0
C      1  0.5652450000000  0.5037550000000  0.5007440000000 1.0
C      1  0.5338730000000  0.4352760000000  0.4503960000000 1.0
C      1  0.5047640000000  0.5256420000000  0.6133550000000 1.0
C      1  0.5473960000000  0.5510600000000  0.5197310000000 1.0
C      1  0.4115460000000  0.5309900000000  0.4042080000000 1.0
C      1  0.3932620000000  0.5108360000000  0.3940940000000 1.0
C      1  0.4918870000000  0.5634170000000  0.4736810000000 1.0
C      1  0.6489100000000  0.4800680000000  0.4920990000000 1.0
C      1  0.4051780000000  0.4165190000000  0.4972850000000 1.0
C      1  0.4290360000000  0.5837130000000  0.5033040000000 1.0
C      1  0.5979880000000  0.5774890000000  0.5454110000000 1.0
C      1  0.5679260000000  0.4619320000000  0.5737970000000 1.0
C      1  0.5451470000000  0.5499230000000  0.4704540000000 1.0
C      1  0.4355450000000  0.4342710000000  0.4265870000000 1.0
C      1  0.4913540000000  0.5904230000000  0.4385150000000 1.0
C      1  0.6473270000000  0.4763310000000  0.5188980000000 1.0
C      1  0.5253000000000  0.5431200000000  0.6021210000000 1.0
C      1  0.3781310000000  0.4437430000000  0.4674680000000 1.0
C      1  0.5040930000000  0.4629100000000  0.5433070000000 1.0
C      1  0.5612210000000  0.6067350000000  0.5328190000000 1.0
C      1  0.4978870000000  0.4796520000000  0.5672970000000 1.0
C      1  0.5600570000000  0.5402530000000  0.4947630000000 1.0
C      1  0.5013770000000  0.4909890000000  0.3992060000000 1.0
C      1  0.5025270000000  0.4251330000000  0.5034730000000 1.0
C      1  0.5651650000000  0.5528510000000  0.3555150000000 1.0
C      1  0.4436400000000  0.4459960000000  0.4960390000000 1.0
C      1  0.6007870000000  0.5428610000000  0.4671960000000 1.0
C      1  0.4062990000000  0.4870850000000  0.3887390000000 1.0
C      1  0.5357520000000  0.5310350000000  0.5790180000000 1.0
C      1  0.4871320000000  0.5201800000000  0.4721300000000 1.0
C      1  0.4248640000000  0.4108760000000  0.4422400000000 1.0
C      1  0.4545100000000  0.5585210000000  0.5343280000000 1.0
C      1  0.5378470000000  0.5187870000000  0.4150800000000 1.0
C      1  0.4453210000000  0.5184160000000  0.4505180000000 1.0
C      1  0.4766740000000  0.6079880000000  0.4874130000000 1.0
C      1  0.3849190000000  0.4372010000000  0.4942450000000 1.0
C      1  0.5898430000000  0.5519970000000  0.5527800000000 1.0
C      1  0.4963590000000  0.4946780000000  0.4682130000000 1.0
C      1  0.5197540000000  0.5580150000000  0.5204150000000 1.0
C      1  0.5660630000000  0.4995570000000  0.4539680000000 1.0
C      1  0.5234060000000  0.4244880000000  0.5726760000000 1.0
C      1  0.5623850000000  0.5277350000000  0.4029900000000 1.0
C      1  0.5799120000000  0.4189680000000  0.5095620000000 1.0
C      1  0.4954210000000  0.6067810000000  0.4639040000000 1.0
C      1  0.5284250000000  0.5911670000000  0.5837160000000 1.0
C      1  0.4005020000000  0.5431760000000  0.5528380000000 1.0
C      1  0.5103890000000  0.4964220000000  0.6110320000000 1.0
C      1  0.4212100000000  0.4115830000000  0.4718150000000 1.0
C      1  0.4773020000000  0.5350850000000  0.6111550000000 1.0
C      1  0.5811430000000  0.4279520000000  0.4576510000000 1.0
C      1  0.4488140000000  0.5178230000000  0.5659400000000 1.0
C      1  0.4776560000000  0.5503980000000  0.5485660000000 1.0
C      1  0.4876300000000  0.4397990000000  0.4865790000000 1.0
C      1  0.5879760000000  0.5059000000000  0.5562850000000 1.0
C      1  0.6305600000000  0.4721020000000  0.4478990000000 1.0
C      1  0.3904640000000  0.4490940000000  0.4439920000000 1.0
C      1  0.4489240000000  0.4152070000000  0.5285480000000 1.0
C      1  0.4969340000000  0.5077560000000  0.5615500000000 1.0
C      1  0.4542990000000  0.4910630000000  0.4446340000000 1.0
C      1  0.4624380000000  0.3903610000000  0.5244990000000 1.0
C      1  0.4625870000000  0.4804490000000  0.6005180000000 1.0
C      1  0.4345720000000  0.4892840000000  0.3940420000000 1.0
C      1  0.4070030000000  0.5566340000000  0.4999310000000 1.0
C      1  0.4913860000000  0.4438990000000  0.4213570000000 1.0
C      1  0.5303700000000  0.5711260000000  0.6023750000000 1.0
C      1  0.5546920000000  0.3967500000000  0.5452600000000 1.0
C      1  0.4721710000000  0.4856800000000  0.5158730000000 1.0
C      1  0.4794780000000  0.4829590000000  0.3830300000000 1.0
C      1  0.4592980000000  0.4409300000000  0.5210090000000 1.0
C      1  0.4167860000000  0.4550540000000  0.4349730000000 1.0
C      1  0.4173780000000  0.4893410000000  0.4698520000000 1.0
C      1  0.5760370000000  0.3732000000000  0.5037340000000 1.0
C      1  0.4463380000000  0.4923660000000  0.5076010000000 1.0
C      1  0.4038610000000  0.5505010000000  0.4227950000000 1.0
C      1  0.4204740000000  0.4168400000000  0.5290660000000 1.0
C      1  0.4728510000000  0.5642910000000  0.6035900000000 1.0
C      1  0.4913860000000  0.4804210000000  0.5958740000000 1.0
C      1  0.6009870000000  0.4762150000000  0.4875670000000 1.0
C      1  0.4545940000000  0.5147210000000  0.6088810000000 1.0
C      1  0.4328160000000  0.5043940000000  0.5484440000000 1.0
C      1  0.4349980000000  0.5250810000000  0.5897240000000 1.0
C      1  0.4496840000000  0.5455380000000  0.4883090000000 1.0
C      1  0.4603720000000  0.3819540000000  0.5734540000000 1.0
C      1  0.4435660000000  0.5842650000000  0.5290950000000 1.0
C      1  0.4902410000000  0.5070100000000  0.5166410000000 1.0
C      1  0.5948990000000  0.3689000000000  0.4576400000000 1.0
C      1  0.3838220000000  0.4566100000000  0.5157760000000 1.0
C      1  0.6268540000000  0.4764710000000  0.4745510000000 1.0
C      1  0.4561400000000  0.4705970000000  0.3946320000000 1.0
C      1  0.4649210000000  0.3749570000000  0.5478340000000 1.0
C      1  0.5635590000000  0.5127530000000  0.5428320000000 1.0
C      1  0.4368680000000  0.5134350000000  0.5225520000000 1.0
C      1  0.4555700000000  0.5777110000000  0.6209330000000 1.0
C      1  0.5368400000000  0.6092440000000  0.5179380000000 1.0
C      1  0.5830500000000  0.5954210000000  0.4523820000000 1.0
C      1  0.5370670000000  0.4861660000000  0.6096860000000 1.0
C      1  0.4697330000000  0.4307790000000  0.5867050000000 1.0
C      1  0.5061150000000  0.4261170000000  0.4403000000000 1.0
C      1  0.5102980000000  0.5180400000000  0.4058600000000 1.0
C      1  0.4111650000000  0.5384800000000  0.5783780000000 1.0
C      1  0.4069060000000  0.5432370000000  0.4729080000000 1.0
C      1  0.4899700000000  0.5405030000000  0.4090350000000 1.0
C      1  0.5861090000000  0.3834000000000  0.4788090000000 1.0
C      1  0.4467990000000  0.4223110000000  0.4793300000000 1.0
C      1  0.4251510000000  0.4760430000000  0.4957830000000 1.0
C      1  0.4609480000000  0.4462330000000  0.4131590000000 1.0
C      1  0.4844970000000  0.6104900000000  0.5167070000000 1.0
C      1  0.5099180000000  0.6072670000000  0.5322370000000 1.0
C      1  0.5825890000000  0.4424790000000  0.5262120000000 1.0
C      1  0.5642370000000  0.5401750000000  0.3782630000000 1.0
C      1  0.4608350000000  0.6064480000000  0.5329260000000 1.0
C      1  0.5057920000000  0.5961240000000  0.5662340000000 1.0
C      1  0.5852480000000  0.4126670000000  0.4810060000000 1.0
C      1  0.4787130000000  0.4606800000000  0.5277740000000 1.0
C      1  0.6002290000000  0.4630660000000  0.5150440000000 1.0
C      1  0.4892200000000  0.4069170000000  0.4548120000000 1.0
C      1  0.5676350000000  0.4425380000000  0.5529050000000 1.0
C      1  0.4686610000000  0.4025940000000  0.4750990000000 1.0
C      1  0.5703210000000  0.3940730000000  0.5223030000000 1.0
C      1  0.5845200000000  0.5919690000000  0.5255050000000 1.0
C      1  0.5225960000000  0.5173510000000  0.5587680000000 1.0
C      1  0.4836320000000  0.5816920000000  0.5817180000000 1.0
C      1  0.5285940000000  0.4345310000000  0.5062290000000 1.0
C      1  0.3970190000000  0.5380860000000  0.5235550000000 1.0
C      1  0.6027680000000  0.5283660000000  0.5625970000000 1.0
C      1  0.4512420000000  0.4544640000000  0.5866720000000 1.0
C      1  0.5039410000000  0.5590600000000  0.5437080000000 1.0
C      1  0.5392420000000  0.4708260000000  0.4829270000000 1.0
C      1  0.4628360000000  0.5664100000000  0.4746660000000 1.0
C      1  0.5649830000000  0.5426250000000  0.5406830000000 1.0
C      1  0.4222680000000  0.4805310000000  0.5577840000000 1.0
C      1  0.5870730000000  0.5540310000000  0.4900700000000 1.0
C      1  0.5413750000000  0.5126790000000  0.4433840000000 1.0
C      1  0.5278940000000  0.5319630000000  0.4583110000000 1.0
C      1  0.5857480000000  0.5221890000000  0.4201750000000 1.0
C      1  0.5950260000000  0.5453260000000  0.4384950000000 1.0
C      1  0.5437020000000  0.6091610000000  0.4886050000000 1.0
C      1  0.5359930000000  0.5068910000000  0.5361410000000 1.0
C      1  0.4281870000000  0.4539900000000  0.5668470000000 1.0
C      1  0.4384280000000  0.5188050000000  0.3999980000000 1.0
C      1  0.4772760000000  0.4788070000000  0.4558680000000 1.0
C      1  0.5357390000000  0.4431760000000  0.4787640000000 1.0
C      1  0.4290840000000  0.4767080000000  0.4469860000000 1.0
C      1  0.5419160000000  0.5834780000000  0.4296810000000 1.0
C      1  0.5561430000000  0.4744620000000  0.5945910000000 1.0
C      1  0.5177260000000  0.5010220000000  0.5135970000000 1.0
C      1  0.5912410000000  0.5746120000000  0.4356980000000 1.0
C      1  0.4775280000000  0.4534130000000  0.4662330000000 1.0
C      1  0.5852130000000  0.5823490000000  0.4983880000000 1.0
C      1  0.5009250000000  0.5544570000000  0.4997120000000 1.0
C      1  0.5179710000000  0.4890240000000  0.4856960000000 1.0
C      1  0.5456750000000  0.5720930000000  0.4530410000000 1.0
C      1  0.5814070000000  0.4934290000000  0.4300290000000 1.0
C      1  0.5317630000000  0.4579150000000  0.5265050000000 1.0
C      1  0.5074760000000  0.4671700000000  0.4139440000000 1.0
C      1  0.6239750000000  0.4684680000000  0.5302190000000 1.0
C      1  0.4207160000000  0.5183310000000  0.4671670000000 1.0
C      1  0.5008310000000  0.5404430000000  0.4579270000000 1.0
C      1  0.5525960000000  0.4761930000000  0.5092030000000 1.0
C      1  0.4453790000000  0.5389740000000  0.5153740000000 1.0
C      1  0.4516630000000  0.5916400000000  0.4836560000000 1.0
C      1  0.5803570000000  0.4948800000000  0.4786390000000 1.0
C      1  0.4920770000000  0.5680570000000  0.4212630000000 1.0
C      1  0.5222170000000  0.6142540000000  0.4706540000000 1.0
C      1  0.4630500000000  0.5326580000000  0.4018030000000 1.0
C      1  0.4750130000000  0.5249920000000  0.5606060000000 1.0
C      1  0.4872560000000  0.5286600000000  0.4998210000000 1.0
C      1  0.4983730000000  0.4301880000000  0.5818080000000 1.0
C      1  0.5481170000000  0.4209520000000  0.5583330000000 1.0
END
