TITL C-627109-622-323 -1.16223867298961e-06 125000 -661.098957768658 0 0 108 (C1) n - 1
REM
REM in /home/nfs/bkarasulu/CARBON/AIRSS/Generating-Clusters/LCBOP/Only-C1/SD-CG/FIRE-CG
REM
REM
REM
REM
REM
REM ./C.cell (11c1c37f851c82e70ff6c80c92926a4b)
REM AIRSS Version 0.9.1 bugfix July 2018 build 013d7b7c2542+ Fri, 06 Jul 2018 19:26:36 +0100
REM compiler GCC version 9.2.1 20190827 (Red Hat 9.2.1-1)
REM options -cpp -mtune=generic -march=x86-64 -g -O0 -fpre-include=/usr/include/finclude/math-vector-fortran.h
REM seed -1757260670 1990298359 1667448847 1676036341 593797308 -874954193 1958254031 1570037715 -1260468893 -1913005742 -1361289135 -118085719 1135899480 74757796 -1260437013 565259678 -1375143912 793748210 -249537873 437661208 177648193 -181440691 1827535814 2063021543 -467276637 -528052125 1940089886 -1246927220 -1109826450 1537500961 1494546960 -1189985433 1767117452
REM
CELL 1.54180   50.00000   50.00000   50.00000   90.00000   90.00000   90.00000
LATT -1
SFAC C  
C      1  0.4879300000000  0.5712690000000  0.5588120000000 1.0
C      1  0.3949220000000  0.4931230000000  0.5459710000000 1.0
C      1  0.5259490000000  0.5244690000000  0.4593670000000 1.0
C      1  0.5367880000000  0.4685790000000  0.4019760000000 1.0
C      1  0.4606480000000  0.4827310000000  0.5223540000000 1.0
C      1  0.6022650000000  0.5411970000000  0.4810900000000 1.0
C      1  0.4865490000000  0.5948280000000  0.4192720000000 1.0
C      1  0.5988830000000  0.5588960000000  0.4612110000000 1.0
C      1  0.4716190000000  0.5587730000000  0.5785760000000 1.0
C      1  0.4580380000000  0.5939480000000  0.4205350000000 1.0
C      1  0.5386610000000  0.4213020000000  0.4385030000000 1.0
C      1  0.5122440000000  0.4038420000000  0.5201400000000 1.0
C      1  0.4767480000000  0.5258370000000  0.4179000000000 1.0
C      1  0.5683750000000  0.3554860000000  0.5242570000000 1.0
C      1  0.5490220000000  0.5965530000000  0.5473000000000 1.0
C      1  0.3961180000000  0.5081510000000  0.5217950000000 1.0
C      1  0.5406250000000  0.4508300000000  0.5198570000000 1.0
C      1  0.5523750000000  0.4738370000000  0.3812110000000 1.0
C      1  0.4767470000000  0.5212370000000  0.6066430000000 1.0
C      1  0.4312570000000  0.5662990000000  0.4485660000000 1.0
C      1  0.4919660000000  0.3948580000000  0.4607670000000 1.0
C      1  0.4548500000000  0.4552780000000  0.5233670000000 1.0
C      1  0.4821650000000  0.5012000000000  0.4844690000000 1.0
C      1  0.5034670000000  0.4823690000000  0.5913370000000 1.0
C      1  0.4291890000000  0.4710810000000  0.4427270000000 1.0
C      1  0.5565130000000  0.4480190000000  0.5813290000000 1.0
C      1  0.5931880000000  0.5250350000000  0.5273150000000 1.0
C      1  0.5305030000000  0.4466520000000  0.4449890000000 1.0
C      1  0.4079480000000  0.4735700000000  0.5617310000000 1.0
C      1  0.4174600000000  0.4348720000000  0.5022160000000 1.0
C      1  0.5289100000000  0.4899340000000  0.5813870000000 1.0
C      1  0.4953850000000  0.4766820000000  0.4260360000000 1.0
C      1  0.3735440000000  0.5166360000000  0.5090460000000 1.0
C      1  0.4590360000000  0.6063840000000  0.4667590000000 1.0
C      1  0.4753190000000  0.5730530000000  0.5327020000000 1.0
C      1  0.4638720000000  0.4275840000000  0.4839410000000 1.0
C      1  0.4582670000000  0.6035520000000  0.4945890000000 1.0
C      1  0.5458580000000  0.3613690000000  0.5088290000000 1.0
C      1  0.5539230000000  0.5804780000000  0.4581990000000 1.0
C      1  0.5432420000000  0.4966450000000  0.5303240000000 1.0
C      1  0.4431630000000  0.4454660000000  0.5473850000000 1.0
C      1  0.5331190000000  0.5891150000000  0.5674970000000 1.0
C      1  0.4576990000000  0.5271020000000  0.5393570000000 1.0
C      1  0.4025310000000  0.4387810000000  0.5249180000000 1.0
C      1  0.4631780000000  0.5492520000000  0.5218650000000 1.0
C      1  0.5397550000000  0.5172210000000  0.5791000000000 1.0
C      1  0.5860240000000  0.5287510000000  0.5003310000000 1.0
C      1  0.4806860000000  0.6224080000000  0.4566890000000 1.0
C      1  0.4887390000000  0.4156730000000  0.4792780000000 1.0
C      1  0.5704700000000  0.4256830000000  0.5847050000000 1.0
C      1  0.5284040000000  0.3811530000000  0.5184050000000 1.0
C      1  0.4989290000000  0.5696710000000  0.4204610000000 1.0
C      1  0.4146730000000  0.4490480000000  0.5486470000000 1.0
C      1  0.5195140000000  0.6313750000000  0.4270250000000 1.0
C      1  0.5287420000000  0.4426860000000  0.4954100000000 1.0
C      1  0.5819120000000  0.4023870000000  0.5790320000000 1.0
C      1  0.4754590000000  0.4677150000000  0.4438780000000 1.0
C      1  0.4329630000000  0.5386070000000  0.4422870000000 1.0
C      1  0.5441210000000  0.4704200000000  0.5395110000000 1.0
C      1  0.4489280000000  0.5304140000000  0.4202100000000 1.0
C      1  0.4986300000000  0.4095510000000  0.5431770000000 1.0
C      1  0.5497960000000  0.5851900000000  0.5232350000000 1.0
C      1  0.4329460000000  0.5288990000000  0.4896470000000 1.0
C      1  0.5048270000000  0.3722640000000  0.4547420000000 1.0
C      1  0.5791100000000  0.5741940000000  0.4514920000000 1.0
C      1  0.5154820000000  0.5673390000000  0.5675000000000 1.0
C      1  0.5858460000000  0.5225830000000  0.5529590000000 1.0
C      1  0.5236000000000  0.3551740000000  0.4630600000000 1.0
C      1  0.4507570000000  0.4560770000000  0.4340680000000 1.0
C      1  0.5369760000000  0.5763690000000  0.4785920000000 1.0
C      1  0.4221670000000  0.5135930000000  0.5117890000000 1.0
C      1  0.4817000000000  0.5298880000000  0.4790970000000 1.0
C      1  0.5387320000000  0.5388170000000  0.5102290000000 1.0
C      1  0.4810030000000  0.5194980000000  0.5546860000000 1.0
C      1  0.5384670000000  0.5669990000000  0.5052480000000 1.0
C      1  0.5004820000000  0.5367710000000  0.4581880000000 1.0
C      1  0.4968680000000  0.6170410000000  0.4339860000000 1.0
C      1  0.5350650000000  0.4569110000000  0.4712610000000 1.0
C      1  0.5677230000000  0.4791260000000  0.3608130000000 1.0
C      1  0.5400510000000  0.3505590000000  0.4836420000000 1.0
C      1  0.5465990000000  0.4825910000000  0.4725030000000 1.0
C      1  0.5586150000000  0.5254000000000  0.4934600000000 1.0
C      1  0.4255780000000  0.4798420000000  0.5831620000000 1.0
C      1  0.4766740000000  0.5308210000000  0.5811640000000 1.0
C      1  0.5415560000000  0.6438440000000  0.4208700000000 1.0
C      1  0.5251120000000  0.5418060000000  0.5768410000000 1.0
C      1  0.4593630000000  0.5419980000000  0.4942450000000 1.0
C      1  0.4886040000000  0.5007590000000  0.4125780000000 1.0
C      1  0.4507800000000  0.4768830000000  0.5922240000000 1.0
C      1  0.4383280000000  0.4925460000000  0.4596310000000 1.0
C      1  0.5672990000000  0.5194570000000  0.5720470000000 1.0
C      1  0.4928600000000  0.5448470000000  0.4319550000000 1.0
C      1  0.5828440000000  0.3631260000000  0.5452810000000 1.0
C      1  0.4458680000000  0.5903110000000  0.4463220000000 1.0
C      1  0.4694550000000  0.5960540000000  0.5177440000000 1.0
C      1  0.4776150000000  0.4750780000000  0.5929290000000 1.0
C      1  0.5870610000000  0.3803140000000  0.5651460000000 1.0
C      1  0.4455400000000  0.4402500000000  0.5005680000000 1.0
C      1  0.5101590000000  0.4210880000000  0.4973580000000 1.0
C      1  0.4672230000000  0.4861210000000  0.4654320000000 1.0
C      1  0.4990650000000  0.5108440000000  0.5324640000000 1.0
C      1  0.5433310000000  0.4685610000000  0.5678940000000 1.0
C      1  0.4850720000000  0.4940200000000  0.5121960000000 1.0
C      1  0.4297200000000  0.5193000000000  0.4631460000000 1.0
C      1  0.5206160000000  0.4639320000000  0.4243490000000 1.0
C      1  0.4432620000000  0.5049630000000  0.5287530000000 1.0
C      1  0.5463650000000  0.5105310000000  0.4727140000000 1.0
C      1  0.5258300000000  0.5185030000000  0.5262280000000 1.0
END
