TITL C-627108-131-730 10.1081132687733 125000 -511.718147388656 0 0 83 (C1) n - 1
REM
REM in /home/nfs/bkarasulu/CARBON/AIRSS/Generating-Clusters/LCBOP/Only-C1/SD-CG/FIRE-CG
REM
REM
REM
REM
REM
REM ./C.cell (11c1c37f851c82e70ff6c80c92926a4b)
REM AIRSS Version 0.9.1 bugfix July 2018 build 013d7b7c2542+ Fri, 06 Jul 2018 19:26:36 +0100
REM compiler GCC version 9.2.1 20190827 (Red Hat 9.2.1-1)
REM options -cpp -mtune=generic -march=x86-64 -g -O0 -fpre-include=/usr/include/finclude/math-vector-fortran.h
REM seed 583795942 -950423597 -1404544348 -1498565406 555649488 -850592696 -1688756061 514007691 530772117 1137429133 2060097349 -1317655643 562715125 -1964595274 -1644233581 1310377497 1080273956 1933184160 1493352091 -1013798330 -310613406 -133567689 -476700778 -159144725 798246584 1960087477 -271195030 -1289551226 -1403055837 2043626759 2065571628 186003553 -1492526880
REM
CELL 1.54180   50.00000   50.00000   50.00000   90.00000   90.00000   90.00000
LATT -1
SFAC C  
C      1  0.5402770000000  0.5920030000000  0.4691330000000 1.0
C      1  0.4840440000000  0.4982820000000  0.5589750000000 1.0
C      1  0.4892100000000  0.4235410000000  0.5768130000000 1.0
C      1  0.5925550000000  0.5577040000000  0.5232330000000 1.0
C      1  0.5771340000000  0.4532080000000  0.4566780000000 1.0
C      1  0.4685340000000  0.5687200000000  0.5222310000000 1.0
C      1  0.5170920000000  0.5534670000000  0.4166630000000 1.0
C      1  0.5686600000000  0.5616180000000  0.5074860000000 1.0
C      1  0.5481440000000  0.4205040000000  0.5227940000000 1.0
C      1  0.4737960000000  0.3600650000000  0.6937050000000 1.0
C      1  0.4220060000000  0.5126710000000  0.4894170000000 1.0
C      1  0.4476430000000  0.5823670000000  0.5086890000000 1.0
C      1  0.5322650000000  0.5355360000000  0.4036430000000 1.0
C      1  0.5382320000000  0.5167970000000  0.4959280000000 1.0
C      1  0.6177490000000  0.4425530000000  0.4221280000000 1.0
C      1  0.4249700000000  0.5720140000000  0.4203710000000 1.0
C      1  0.5310020000000  0.4177910000000  0.5428300000000 1.0
C      1  0.5367890000000  0.5399960000000  0.5666150000000 1.0
C      1  0.4916860000000  0.5142270000000  0.4896860000000 1.0
C      1  0.5206860000000  0.6046070000000  0.4827940000000 1.0
C      1  0.4151280000000  0.4461260000000  0.4984330000000 1.0
C      1  0.4953510000000  0.5780110000000  0.5166500000000 1.0
C      1  0.5618700000000  0.5213800000000  0.4804040000000 1.0
C      1  0.4494850000000  0.5804600000000  0.4803680000000 1.0
C      1  0.4723030000000  0.5169150000000  0.5096450000000 1.0
C      1  0.4393660000000  0.5071320000000  0.4258710000000 1.0
C      1  0.4146520000000  0.5882370000000  0.4027790000000 1.0
C      1  0.5672980000000  0.5007950000000  0.4620030000000 1.0
C      1  0.5146300000000  0.5297740000000  0.4869460000000 1.0
C      1  0.4327590000000  0.4639270000000  0.4855910000000 1.0
C      1  0.4542490000000  0.4545240000000  0.4692350000000 1.0
C      1  0.4768440000000  0.3726010000000  0.6705500000000 1.0
C      1  0.4874300000000  0.4607740000000  0.4310500000000 1.0
C      1  0.4798910000000  0.3851340000000  0.6474010000000 1.0
C      1  0.4355540000000  0.4895070000000  0.4985460000000 1.0
C      1  0.5577210000000  0.5539890000000  0.5533400000000 1.0
C      1  0.4592590000000  0.4609280000000  0.4409950000000 1.0
C      1  0.4829370000000  0.3976660000000  0.6242520000000 1.0
C      1  0.4998900000000  0.4668260000000  0.4741580000000 1.0
C      1  0.4962450000000  0.4872260000000  0.4210650000000 1.0
C      1  0.5244910000000  0.4953170000000  0.5878900000000 1.0
C      1  0.4342070000000  0.5598400000000  0.4673040000000 1.0
C      1  0.4912480000000  0.5256190000000  0.5549990000000 1.0
C      1  0.5116060000000  0.4185420000000  0.5608650000000 1.0
C      1  0.5980760000000  0.4474790000000  0.4391750000000 1.0
C      1  0.4566830000000  0.4944690000000  0.5176020000000 1.0
C      1  0.6370870000000  0.4377490000000  0.4053170000000 1.0
C      1  0.4285090000000  0.4493510000000  0.5456180000000 1.0
C      1  0.4707980000000  0.3477350000000  0.7164790000000 1.0
C      1  0.4760060000000  0.5879390000000  0.4716250000000 1.0
C      1  0.4701060000000  0.4420550000000  0.5682920000000 1.0
C      1  0.5168860000000  0.5643520000000  0.5299860000000 1.0
C      1  0.4656890000000  0.5410330000000  0.5219140000000 1.0
C      1  0.4515000000000  0.5321560000000  0.4319230000000 1.0
C      1  0.5251120000000  0.4872190000000  0.4167580000000 1.0
C      1  0.4917420000000  0.4945350000000  0.4697420000000 1.0
C      1  0.4859830000000  0.4101960000000  0.6011150000000 1.0
C      1  0.4965240000000  0.5933050000000  0.4919910000000 1.0
C      1  0.4537360000000  0.4590560000000  0.5532510000000 1.0
C      1  0.4366170000000  0.5552090000000  0.4392120000000 1.0
C      1  0.5366870000000  0.5090620000000  0.4038490000000 1.0
C      1  0.5118500000000  0.5446880000000  0.5519480000000 1.0
C      1  0.4135290000000  0.4414790000000  0.5248830000000 1.0
C      1  0.5598460000000  0.4752620000000  0.4516340000000 1.0
C      1  0.4996280000000  0.5531930000000  0.4410570000000 1.0
C      1  0.5350270000000  0.4701000000000  0.4384930000000 1.0
C      1  0.4639260000000  0.4839590000000  0.5435080000000 1.0
C      1  0.5015140000000  0.4856670000000  0.5774500000000 1.0
C      1  0.5461730000000  0.5647780000000  0.5271460000000 1.0
C      1  0.5112580000000  0.4560740000000  0.4496590000000 1.0
C      1  0.4856630000000  0.5789610000000  0.4466720000000 1.0
C      1  0.4224820000000  0.5383910000000  0.4817600000000 1.0
C      1  0.5860940000000  0.5528730000000  0.5496390000000 1.0
C      1  0.4889680000000  0.5049070000000  0.4427590000000 1.0
C      1  0.5726090000000  0.4374930000000  0.4793350000000 1.0
C      1  0.4786780000000  0.4507330000000  0.4837290000000 1.0
C      1  0.4793780000000  0.5309320000000  0.4380600000000 1.0
C      1  0.5185070000000  0.5486160000000  0.4652960000000 1.0
C      1  0.5640950000000  0.5505850000000  0.4815160000000 1.0
C      1  0.4421540000000  0.4804590000000  0.4290340000000 1.0
C      1  0.5383870000000  0.5180610000000  0.5839780000000 1.0
C      1  0.5431930000000  0.5640330000000  0.4670410000000 1.0
C      1  0.5624110000000  0.4269340000000  0.5013990000000 1.0
END
