TITL C-627113-6568-845 777.674650159437 125000 -335.791805154973 0 0 56 (C1) n - 1
REM
REM in /home/nfs/bkarasulu/CARBON/AIRSS/Generating-Clusters/LCBOP/Only-C1/SD-CG/FIRE-CG
REM
REM
REM
REM
REM
REM ./C.cell (11c1c37f851c82e70ff6c80c92926a4b)
REM AIRSS Version 0.9.1 bugfix July 2018 build 013d7b7c2542+ Fri, 06 Jul 2018 19:26:36 +0100
REM compiler GCC version 9.2.1 20190827 (Red Hat 9.2.1-1)
REM options -cpp -mtune=generic -march=x86-64 -g -O0 -fpre-include=/usr/include/finclude/math-vector-fortran.h
REM seed 782524731 1433511916 -28767289 718472833 291247858 -648734945 -754064853 -245663070 332447910 33179225 577485540 -1874985043 -1198339548 -2024694568 1879873160 -1947945478 -1061152681 -418296695 -700393004 -386417454 2123147557 45962861 1451696603 564608455 319716379 -1698502392 -1628179128 -909336615 1592432562 98126922 1183276581 702497545 -300999069
REM
CELL 1.54180   50.00000   50.00000   50.00000   90.00000   90.00000   90.00000
LATT -1
SFAC C  
C      1  0.3645400000000  0.6136580000000  0.5546790000000 1.0
C      1  0.5403870000000  0.5067600000000  0.5315940000000 1.0
C      1  0.5482970000000  0.5598890000000  0.5016430000000 1.0
C      1  0.4105770000000  0.5882420000000  0.5480830000000 1.0
C      1  0.4872810000000  0.4674540000000  0.5507150000000 1.0
C      1  0.5615390000000  0.4479200000000  0.4718230000000 1.0
C      1  0.4949350000000  0.5077730000000  0.4465910000000 1.0
C      1  0.5831320000000  0.4870580000000  0.5426210000000 1.0
C      1  0.5798420000000  0.4478490000000  0.4951850000000 1.0
C      1  0.4642630000000  0.4881930000000  0.4197340000000 1.0
C      1  0.5648460000000  0.4312990000000  0.5153270000000 1.0
C      1  0.4560070000000  0.5621570000000  0.5401440000000 1.0
C      1  0.3413900000000  0.6262120000000  0.5576320000000 1.0
C      1  0.5510530000000  0.4117720000000  0.4989650000000 1.0
C      1  0.4734690000000  0.4360940000000  0.4892370000000 1.0
C      1  0.4794830000000  0.5478830000000  0.5350260000000 1.0
C      1  0.4659220000000  0.5075470000000  0.4420650000000 1.0
C      1  0.5420460000000  0.4911390000000  0.4853180000000 1.0
C      1  0.4839560000000  0.4676270000000  0.4266300000000 1.0
C      1  0.4875080000000  0.4379300000000  0.5117560000000 1.0
C      1  0.5520420000000  0.4479210000000  0.5345610000000 1.0
C      1  0.5694960000000  0.4636640000000  0.5507510000000 1.0
C      1  0.4632740000000  0.4494520000000  0.4668460000000 1.0
C      1  0.5400810000000  0.4336670000000  0.4060100000000 1.0
C      1  0.5816370000000  0.5272170000000  0.5167590000000 1.0
C      1  0.4806490000000  0.5205580000000  0.5411840000000 1.0
C      1  0.4801780000000  0.4193730000000  0.4301650000000 1.0
C      1  0.4813730000000  0.4946850000000  0.5471810000000 1.0
C      1  0.5432720000000  0.4568430000000  0.4189720000000 1.0
C      1  0.3181750000000  0.6386890000000  0.5603890000000 1.0
C      1  0.4481760000000  0.4731650000000  0.4713650000000 1.0
C      1  0.5640260000000  0.5372350000000  0.4966490000000 1.0
C      1  0.3876080000000  0.6010080000000  0.5515070000000 1.0
C      1  0.5014760000000  0.5610650000000  0.5237180000000 1.0
C      1  0.6286200000000  0.5239860000000  0.4991360000000 1.0
C      1  0.5459340000000  0.4708420000000  0.4655710000000 1.0
C      1  0.5228690000000  0.4131770000000  0.4049840000000 1.0
C      1  0.5330970000000  0.4866260000000  0.5125490000000 1.0
C      1  0.5490910000000  0.4215540000000  0.4730920000000 1.0
C      1  0.4745320000000  0.4446370000000  0.4408050000000 1.0
C      1  0.5014570000000  0.4537990000000  0.5300720000000 1.0
C      1  0.6007920000000  0.4646430000000  0.5031070000000 1.0
C      1  0.4798630000000  0.4542930000000  0.5735040000000 1.0
C      1  0.6029560000000  0.4864980000000  0.5208010000000 1.0
C      1  0.5247090000000  0.5667280000000  0.5120860000000 1.0
C      1  0.2949150000000  0.6511230000000  0.5630280000000 1.0
C      1  0.5528460000000  0.5169520000000  0.4801630000000 1.0
C      1  0.4495880000000  0.4991560000000  0.4636480000000 1.0
C      1  0.5070740000000  0.4828020000000  0.4377500000000 1.0
C      1  0.4989290000000  0.4072100000000  0.4154300000000 1.0
C      1  0.2720210000000  0.6633280000000  0.5655890000000 1.0
C      1  0.5328820000000  0.4720270000000  0.4403030000000 1.0
C      1  0.4334000000000  0.5753120000000  0.5443290000000 1.0
C      1  0.5282190000000  0.4612130000000  0.5249660000000 1.0
C      1  0.5677210000000  0.5114980000000  0.5373170000000 1.0
C      1  0.6065490000000  0.5135990000000  0.5109490000000 1.0
END
