TITL C-627113-6568-200 -3.01683270799882e-07 125000 -698.675010798712 0 0 115 (C1) n - 1
REM
REM in /home/nfs/bkarasulu/CARBON/AIRSS/Generating-Clusters/LCBOP/Only-C1/SD-CG/FIRE-CG
REM
REM
REM
REM
REM
REM ./C.cell (11c1c37f851c82e70ff6c80c92926a4b)
REM AIRSS Version 0.9.1 bugfix July 2018 build 013d7b7c2542+ Fri, 06 Jul 2018 19:26:36 +0100
REM compiler GCC version 9.2.1 20190827 (Red Hat 9.2.1-1)
REM options -cpp -mtune=generic -march=x86-64 -g -O0 -fpre-include=/usr/include/finclude/math-vector-fortran.h
REM seed 1750011786 1836884323 -1924863482 166801461 -1279329184 -833996961 1761102402 158142178 1677675189 -957093037 -13648737 2014593570 -1352112078 -2031738236 1024190902 348857949 147728695 -1261798297 567791793 438349033 -1031652811 -1504840718 201556913 1200328286 237629487 -362664499 -394601865 -373679606 1287528456 989792031 -934411064 499266933 1514042423
REM
CELL 1.54180   50.00000   50.00000   50.00000   90.00000   90.00000   90.00000
LATT -1
SFAC C  
C      1  0.4468250000000  0.4764020000000  0.4588040000000 1.0
C      1  0.5387540000000  0.5482320000000  0.4201340000000 1.0
C      1  0.5290090000000  0.5428890000000  0.5647420000000 1.0
C      1  0.5389110000000  0.4282230000000  0.5124450000000 1.0
C      1  0.4270880000000  0.6024760000000  0.4579410000000 1.0
C      1  0.5029930000000  0.4795670000000  0.5412940000000 1.0
C      1  0.5483920000000  0.5226400000000  0.4997690000000 1.0
C      1  0.4259380000000  0.5133230000000  0.4807350000000 1.0
C      1  0.5045450000000  0.5799250000000  0.4306270000000 1.0
C      1  0.5622010000000  0.4553370000000  0.5622410000000 1.0
C      1  0.5603850000000  0.5597420000000  0.5279380000000 1.0
C      1  0.4549210000000  0.4790690000000  0.5058300000000 1.0
C      1  0.4533070000000  0.4896460000000  0.5840720000000 1.0
C      1  0.4643930000000  0.5461310000000  0.5687580000000 1.0
C      1  0.3809230000000  0.5258420000000  0.4936400000000 1.0
C      1  0.3944200000000  0.5491530000000  0.5399530000000 1.0
C      1  0.5487690000000  0.5760180000000  0.4590900000000 1.0
C      1  0.5020780000000  0.6005540000000  0.5184570000000 1.0
C      1  0.5135680000000  0.4534370000000  0.5471750000000 1.0
C      1  0.4879470000000  0.5635070000000  0.4128920000000 1.0
C      1  0.4788690000000  0.5219110000000  0.4388410000000 1.0
C      1  0.4854390000000  0.5861230000000  0.5363120000000 1.0
C      1  0.5564830000000  0.4058290000000  0.4643560000000 1.0
C      1  0.4744840000000  0.4761740000000  0.5450940000000 1.0
C      1  0.5856440000000  0.5061650000000  0.4422550000000 1.0
C      1  0.4954520000000  0.4186100000000  0.4424930000000 1.0
C      1  0.5723400000000  0.5582780000000  0.4582800000000 1.0
C      1  0.4213010000000  0.4680960000000  0.4700730000000 1.0
C      1  0.5898810000000  0.5317240000000  0.5991980000000 1.0
C      1  0.4622250000000  0.5709950000000  0.5285320000000 1.0
C      1  0.5553750000000  0.4753420000000  0.4887750000000 1.0
C      1  0.4979920000000  0.5791830000000  0.5612390000000 1.0
C      1  0.4802670000000  0.4914770000000  0.5901930000000 1.0
C      1  0.3938470000000  0.5526420000000  0.4908950000000 1.0
C      1  0.4099210000000  0.4896820000000  0.4847070000000 1.0
C      1  0.5352080000000  0.4862220000000  0.4683400000000 1.0
C      1  0.5324060000000  0.5726120000000  0.4338910000000 1.0
C      1  0.5745120000000  0.4083120000000  0.5379400000000 1.0
C      1  0.3952460000000  0.5638970000000  0.5170940000000 1.0
C      1  0.5417480000000  0.5393580000000  0.5202400000000 1.0
C      1  0.4509890000000  0.5210320000000  0.5268840000000 1.0
C      1  0.4337630000000  0.5757590000000  0.4591920000000 1.0
C      1  0.5536770000000  0.4822310000000  0.5596630000000 1.0
C      1  0.5078570000000  0.4915890000000  0.5884330000000 1.0
C      1  0.5167690000000  0.3648350000000  0.5141440000000 1.0
C      1  0.4435450000000  0.5833480000000  0.5129300000000 1.0
C      1  0.4681290000000  0.4481060000000  0.5521880000000 1.0
C      1  0.4875560000000  0.5274390000000  0.4660470000000 1.0
C      1  0.4651800000000  0.4742350000000  0.4808440000000 1.0
C      1  0.5314070000000  0.5833850000000  0.4833570000000 1.0
C      1  0.4452530000000  0.5237020000000  0.4986930000000 1.0
C      1  0.4679580000000  0.5302770000000  0.4849050000000 1.0
C      1  0.5962040000000  0.3919040000000  0.5409520000000 1.0
C      1  0.5233960000000  0.5300870000000  0.5393350000000 1.0
C      1  0.4613830000000  0.4492740000000  0.4241760000000 1.0
C      1  0.4808510000000  0.4940190000000  0.4293960000000 1.0
C      1  0.5540860000000  0.4681240000000  0.4244740000000 1.0
C      1  0.5052450000000  0.4786180000000  0.4333720000000 1.0
C      1  0.5474580000000  0.4272340000000  0.4486660000000 1.0
C      1  0.5958210000000  0.4870810000000  0.4616460000000 1.0
C      1  0.5209850000000  0.4322380000000  0.4354680000000 1.0
C      1  0.5436100000000  0.4524700000000  0.5029740000000 1.0
C      1  0.5393540000000  0.5112800000000  0.4552820000000 1.0
C      1  0.4137260000000  0.4771840000000  0.5455640000000 1.0
C      1  0.4937830000000  0.4354970000000  0.5539440000000 1.0
C      1  0.5288930000000  0.5926790000000  0.5115410000000 1.0
C      1  0.4879810000000  0.5803500000000  0.4559380000000 1.0
C      1  0.5705970000000  0.4312460000000  0.5541610000000 1.0
C      1  0.5423780000000  0.5809370000000  0.5351900000000 1.0
C      1  0.5809430000000  0.5224700000000  0.5510510000000 1.0
C      1  0.4605910000000  0.5680140000000  0.4500350000000 1.0
C      1  0.5112730000000  0.5053750000000  0.5356990000000 1.0
C      1  0.5643750000000  0.4508630000000  0.4465940000000 1.0
C      1  0.4914540000000  0.4665010000000  0.4786440000000 1.0
C      1  0.5347200000000  0.5290070000000  0.4763360000000 1.0
C      1  0.5836910000000  0.5345530000000  0.4495120000000 1.0
C      1  0.5637580000000  0.3971280000000  0.4887620000000 1.0
C      1  0.5727740000000  0.5267560000000  0.5786370000000 1.0
C      1  0.4814300000000  0.5657090000000  0.5804560000000 1.0
C      1  0.4584000000000  0.4933530000000  0.5298060000000 1.0
C      1  0.4422310000000  0.4385360000000  0.5488380000000 1.0
C      1  0.3941180000000  0.5227530000000  0.5459090000000 1.0
C      1  0.5677410000000  0.4985600000000  0.5386140000000 1.0
C      1  0.5351080000000  0.4968920000000  0.5788740000000 1.0
C      1  0.4975560000000  0.3915050000000  0.4502830000000 1.0
C      1  0.3973560000000  0.4976790000000  0.5323560000000 1.0
C      1  0.4818750000000  0.5712160000000  0.6071160000000 1.0
C      1  0.4468840000000  0.4265100000000  0.4651720000000 1.0
C      1  0.3906760000000  0.4996100000000  0.5037230000000 1.0
C      1  0.4678000000000  0.4291120000000  0.4437540000000 1.0
C      1  0.5441500000000  0.5248680000000  0.5811450000000 1.0
C      1  0.5256800000000  0.5716960000000  0.5589160000000 1.0
C      1  0.4687530000000  0.5474860000000  0.4283260000000 1.0
C      1  0.6209220000000  0.4883010000000  0.4722160000000 1.0
C      1  0.4256130000000  0.4411600000000  0.4804740000000 1.0
C      1  0.4301970000000  0.4852140000000  0.5694060000000 1.0
C      1  0.4189450000000  0.5303900000000  0.4595900000000 1.0
C      1  0.5101450000000  0.5419120000000  0.4741140000000 1.0
C      1  0.4175490000000  0.4395370000000  0.5079900000000 1.0
C      1  0.5380370000000  0.5229190000000  0.4295960000000 1.0
C      1  0.4132690000000  0.5570180000000  0.4682830000000 1.0
C      1  0.5029930000000  0.3612530000000  0.4916010000000 1.0
C      1  0.5355040000000  0.3805330000000  0.5249160000000 1.0
C      1  0.5840400000000  0.5472670000000  0.5368810000000 1.0
C      1  0.5247140000000  0.4598030000000  0.4222430000000 1.0
C      1  0.5767100000000  0.4664340000000  0.4684920000000 1.0
C      1  0.4209060000000  0.4507190000000  0.5342980000000 1.0
C      1  0.5703010000000  0.4919180000000  0.4215240000000 1.0
C      1  0.4577500000000  0.5450470000000  0.5411890000000 1.0
C      1  0.4581400000000  0.4762360000000  0.4329350000000 1.0
C      1  0.4974440000000  0.3713670000000  0.4676160000000 1.0
C      1  0.5063000000000  0.5699790000000  0.4759030000000 1.0
C      1  0.5108470000000  0.4754140000000  0.4616200000000 1.0
C      1  0.5608420000000  0.4980400000000  0.5089380000000 1.0
C      1  0.5536580000000  0.4024810000000  0.5169750000000 1.0
END
