TITL C-627110-360-701 0.00177005731484018 125000 -286.578925117848 0 0 48 (C1) n - 1
REM
REM in /home/nfs/bkarasulu/CARBON/AIRSS/Generating-Clusters/LCBOP/Only-C1/SD-CG/FIRE-CG
REM
REM
REM
REM
REM
REM ./C.cell (11c1c37f851c82e70ff6c80c92926a4b)
REM AIRSS Version 0.9.1 bugfix July 2018 build 013d7b7c2542+ Fri, 06 Jul 2018 19:26:36 +0100
REM compiler GCC version 9.2.1 20190827 (Red Hat 9.2.1-1)
REM options -cpp -mtune=generic -march=x86-64 -g -O0 -fpre-include=/usr/include/finclude/math-vector-fortran.h
REM seed 1638162216 -1619724210 911177164 819050909 1141509928 -496424977 1412155148 1083468816 -1791132032 1410660891 -774382736 904946571 965294674 527544514 357647608 -451260706 -914067537 -1789207246 -551680671 1915491 1658981966 959398122 908988657 -1757917836 1420370305 292790105 1477943848 699529222 300279140 1953221686 2071058463 891331493 -81077109
REM
CELL 1.54180   50.00000   50.00000   50.00000   90.00000   90.00000   90.00000
LATT -1
SFAC C  
C      1  0.5351750000000  0.4962690000000  0.5850110000000 1.0
C      1  0.4867450000000  0.4595370000000  0.5485120000000 1.0
C      1  0.4768600000000  0.5521280000000  0.5131150000000 1.0
C      1  0.5490940000000  0.5181190000000  0.4204110000000 1.0
C      1  0.4740060000000  0.4700750000000  0.5019390000000 1.0
C      1  0.4428290000000  0.5434130000000  0.4510640000000 1.0
C      1  0.4746410000000  0.5234140000000  0.5113120000000 1.0
C      1  0.5057620000000  0.4325120000000  0.5005640000000 1.0
C      1  0.4550510000000  0.5137100000000  0.4896530000000 1.0
C      1  0.5347180000000  0.4589780000000  0.4603330000000 1.0
C      1  0.4292720000000  0.5456850000000  0.5199510000000 1.0
C      1  0.5716790000000  0.4814550000000  0.4798710000000 1.0
C      1  0.5069780000000  0.4639040000000  0.4649150000000 1.0
C      1  0.4867650000000  0.5137980000000  0.5807150000000 1.0
C      1  0.5646480000000  0.4568150000000  0.5260940000000 1.0
C      1  0.5019210000000  0.5814100000000  0.4783140000000 1.0
C      1  0.5538060000000  0.4830600000000  0.5714020000000 1.0
C      1  0.5643010000000  0.4693600000000  0.5511910000000 1.0
C      1  0.4412430000000  0.5222220000000  0.5618830000000 1.0
C      1  0.4726570000000  0.5820020000000  0.4373250000000 1.0
C      1  0.4236590000000  0.5335630000000  0.5448030000000 1.0
C      1  0.4304480000000  0.4713520000000  0.4792540000000 1.0
C      1  0.4521800000000  0.5647730000000  0.4358650000000 1.0
C      1  0.5340240000000  0.4287310000000  0.4990670000000 1.0
C      1  0.4284870000000  0.5309620000000  0.4953260000000 1.0
C      1  0.4615160000000  0.5238180000000  0.4614630000000 1.0
C      1  0.5219860000000  0.5822850000000  0.3832300000000 1.0
C      1  0.4212240000000  0.5431690000000  0.4700930000000 1.0
C      1  0.5537490000000  0.4981620000000  0.4372030000000 1.0
C      1  0.4926680000000  0.5879320000000  0.4540910000000 1.0
C      1  0.5538210000000  0.4798910000000  0.4581150000000 1.0
C      1  0.5112390000000  0.5072130000000  0.5888710000000 1.0
C      1  0.5413440000000  0.5392930000000  0.4064830000000 1.0
C      1  0.5318320000000  0.5609220000000  0.3944680000000 1.0
C      1  0.5497950000000  0.4324830000000  0.5224840000000 1.0
C      1  0.5439390000000  0.4350120000000  0.4731510000000 1.0
C      1  0.4522830000000  0.4839380000000  0.4897890000000 1.0
C      1  0.5212960000000  0.4232420000000  0.5597350000000 1.0
C      1  0.4799320000000  0.4780040000000  0.5287480000000 1.0
C      1  0.5602620000000  0.3951850000000  0.5522370000000 1.0
C      1  0.4964330000000  0.5672920000000  0.5003130000000 1.0
C      1  0.5442980000000  0.4161420000000  0.5452320000000 1.0
C      1  0.5752250000000  0.4707840000000  0.5041300000000 1.0
C      1  0.5005870000000  0.4400140000000  0.5600930000000 1.0
C      1  0.4769970000000  0.5058260000000  0.5339630000000 1.0
C      1  0.4926590000000  0.4544180000000  0.4877790000000 1.0
C      1  0.4681880000000  0.5141410000000  0.5598910000000 1.0
C      1  0.4517790000000  0.5635870000000  0.5205440000000 1.0
END
