TITL C-627112-676-495 105.46366707093 125000 -1028.30918459917 0 0 170 (C1) n - 1
REM
REM in /home/nfs/bkarasulu/CARBON/AIRSS/Generating-Clusters/LCBOP/Only-C1/SD-CG/FIRE-CG
REM
REM
REM
REM
REM
REM ./C.cell (11c1c37f851c82e70ff6c80c92926a4b)
REM AIRSS Version 0.9.1 bugfix July 2018 build 013d7b7c2542+ Fri, 06 Jul 2018 19:26:36 +0100
REM compiler GCC version 9.2.1 20190827 (Red Hat 9.2.1-1)
REM options -cpp -mtune=generic -march=x86-64 -g -O0 -fpre-include=/usr/include/finclude/math-vector-fortran.h
REM seed 736316680 -2045086890 1595668674 489830930 -1389908735 -409005986 1528367464 -1286336964 -747047338 -838522577 -374269478 -1300043085 1133906949 1059457585 484798633 1817257590 673619664 -837617594 -1410364303 -1386054147 1089700990 927869149 1164555284 777920083 -1595916012 -1786391736 -611759746 -988146842 356514356 -2114571474 -993226698 386920675 -1674552498
REM
CELL 1.54180   50.00000   50.00000   50.00000   90.00000   90.00000   90.00000
LATT -1
SFAC C  
C      1  0.4411610000000  0.3729750000000  0.4838910000000 1.0
C      1  0.6523800000000  0.5081040000000  0.4512500000000 1.0
C      1  0.4211320000000  0.6087900000000  0.4123440000000 1.0
C      1  0.5775460000000  0.4074910000000  0.5318430000000 1.0
C      1  0.4514200000000  0.5705600000000  0.5259310000000 1.0
C      1  0.5618350000000  0.6135750000000  0.4924430000000 1.0
C      1  0.4589070000000  0.4303810000000  0.5395630000000 1.0
C      1  0.4957860000000  0.5432280000000  0.5777040000000 1.0
C      1  0.6163010000000  0.5848760000000  0.5036410000000 1.0
C      1  0.5543670000000  0.5793960000000  0.4028290000000 1.0
C      1  0.5329250000000  0.5967360000000  0.4106480000000 1.0
C      1  0.6474460000000  0.5872870000000  0.4394290000000 1.0
C      1  0.5126110000000  0.5223030000000  0.5369120000000 1.0
C      1  0.6160130000000  0.5871120000000  0.4755100000000 1.0
C      1  0.5076910000000  0.3858930000000  0.4761930000000 1.0
C      1  0.5391460000000  0.4907710000000  0.4678120000000 1.0
C      1  0.5257000000000  0.5353820000000  0.3936480000000 1.0
C      1  0.4890910000000  0.5897660000000  0.5693500000000 1.0
C      1  0.3906430000000  0.5071900000000  0.5785080000000 1.0
C      1  0.5785850000000  0.4893330000000  0.5744600000000 1.0
C      1  0.5806460000000  0.5846690000000  0.4113170000000 1.0
C      1  0.3860360000000  0.5401310000000  0.5047090000000 1.0
C      1  0.6008170000000  0.5867930000000  0.4286520000000 1.0
C      1  0.5418130000000  0.4245240000000  0.5867930000000 1.0
C      1  0.4572700000000  0.5176000000000  0.6048280000000 1.0
C      1  0.6102710000000  0.5249030000000  0.4778380000000 1.0
C      1  0.4201360000000  0.5331740000000  0.4455770000000 1.0
C      1  0.5180400000000  0.5342320000000  0.5618710000000 1.0
C      1  0.5391390000000  0.4563380000000  0.5034000000000 1.0
C      1  0.4612220000000  0.5530610000000  0.5460000000000 1.0
C      1  0.3903500000000  0.5000400000000  0.4671430000000 1.0
C      1  0.4664410000000  0.4789040000000  0.5355420000000 1.0
C      1  0.3962590000000  0.3997080000000  0.4877790000000 1.0
C      1  0.3797800000000  0.4735810000000  0.4660190000000 1.0
C      1  0.4447440000000  0.5298570000000  0.4975390000000 1.0
C      1  0.4920110000000  0.3978260000000  0.5506390000000 1.0
C      1  0.5155320000000  0.5925840000000  0.5115600000000 1.0
C      1  0.4495150000000  0.5818310000000  0.4999690000000 1.0
C      1  0.5445370000000  0.5057540000000  0.4426570000000 1.0
C      1  0.5442890000000  0.5452310000000  0.5581980000000 1.0
C      1  0.5537550000000  0.4666020000000  0.4146640000000 1.0
C      1  0.5436130000000  0.5729640000000  0.5518820000000 1.0
C      1  0.5361960000000  0.3927720000000  0.4904470000000 1.0
C      1  0.5526040000000  0.3974300000000  0.5406790000000 1.0
C      1  0.4035500000000  0.5459280000000  0.5546430000000 1.0
C      1  0.4271880000000  0.5954340000000  0.4920570000000 1.0
C      1  0.4889790000000  0.4897190000000  0.5735490000000 1.0
C      1  0.4640070000000  0.4053810000000  0.5527620000000 1.0
C      1  0.4891640000000  0.5120270000000  0.4992100000000 1.0
C      1  0.4724420000000  0.5791290000000  0.4829240000000 1.0
C      1  0.6213620000000  0.5871140000000  0.4478790000000 1.0
C      1  0.4092290000000  0.5284430000000  0.5768580000000 1.0
C      1  0.5654120000000  0.5284200000000  0.5505490000000 1.0
C      1  0.5614790000000  0.4447100000000  0.5898270000000 1.0
C      1  0.5672620000000  0.4775530000000  0.4751990000000 1.0
C      1  0.4563820000000  0.5254200000000  0.4162900000000 1.0
C      1  0.5644830000000  0.5435190000000  0.4967200000000 1.0
C      1  0.5653780000000  0.5952480000000  0.5136740000000 1.0
C      1  0.5439210000000  0.4708460000000  0.5268810000000 1.0
C      1  0.5587700000000  0.4488510000000  0.4367840000000 1.0
C      1  0.4625480000000  0.4900870000000  0.6119570000000 1.0
C      1  0.5683810000000  0.4855320000000  0.5261050000000 1.0
C      1  0.5471230000000  0.5536600000000  0.3928560000000 1.0
C      1  0.4888830000000  0.3928550000000  0.4466140000000 1.0
C      1  0.5391820000000  0.5889180000000  0.5749910000000 1.0
C      1  0.4515320000000  0.4288940000000  0.4757780000000 1.0
C      1  0.5809790000000  0.4749290000000  0.5021050000000 1.0
C      1  0.5132010000000  0.4305880000000  0.5872350000000 1.0
C      1  0.4921490000000  0.5994580000000  0.4419340000000 1.0
C      1  0.4434780000000  0.5438810000000  0.4335620000000 1.0
C      1  0.5055170000000  0.5929360000000  0.4173150000000 1.0
C      1  0.4989860000000  0.6223640000000  0.4571270000000 1.0
C      1  0.5920850000000  0.5875240000000  0.5178720000000 1.0
C      1  0.5644590000000  0.5558060000000  0.6027140000000 1.0
C      1  0.4934240000000  0.5741620000000  0.4001890000000 1.0
C      1  0.5407190000000  0.4289940000000  0.4456000000000 1.0
C      1  0.5131410000000  0.5998840000000  0.5765280000000 1.0
C      1  0.3861860000000  0.5137100000000  0.4930310000000 1.0
C      1  0.5327180000000  0.3897760000000  0.5208070000000 1.0
C      1  0.4963670000000  0.4500930000000  0.6003250000000 1.0
C      1  0.4733220000000  0.4290940000000  0.5152070000000 1.0
C      1  0.5605820000000  0.4074620000000  0.4822530000000 1.0
C      1  0.4871170000000  0.4293980000000  0.4067720000000 1.0
C      1  0.5002260000000  0.4361510000000  0.5145630000000 1.0
C      1  0.5192150000000  0.4398050000000  0.4936130000000 1.0
C      1  0.4846060000000  0.4610350000000  0.4558270000000 1.0
C      1  0.3739790000000  0.4855760000000  0.5341140000000 1.0
C      1  0.4207010000000  0.4943100000000  0.5179200000000 1.0
C      1  0.4813860000000  0.5323190000000  0.5995160000000 1.0
C      1  0.5400740000000  0.5512230000000  0.5074300000000 1.0
C      1  0.5881110000000  0.4457310000000  0.5042570000000 1.0
C      1  0.4691320000000  0.5268370000000  0.4864250000000 1.0
C      1  0.4777640000000  0.4540050000000  0.3999900000000 1.0
C      1  0.5479890000000  0.4028140000000  0.5685290000000 1.0
C      1  0.6315730000000  0.5160920000000  0.4647690000000 1.0
C      1  0.3794590000000  0.4474120000000  0.4715010000000 1.0
C      1  0.5556770000000  0.5825750000000  0.5977860000000 1.0
C      1  0.5632720000000  0.6025990000000  0.6149060000000 1.0
C      1  0.5106030000000  0.4413230000000  0.5409270000000 1.0
C      1  0.5731870000000  0.5304650000000  0.6123990000000 1.0
C      1  0.4550100000000  0.4529210000000  0.4586710000000 1.0
C      1  0.5131600000000  0.6202230000000  0.5054050000000 1.0
C      1  0.4323080000000  0.5267410000000  0.5938460000000 1.0
C      1  0.5334570000000  0.5059860000000  0.4921190000000 1.0
C      1  0.4447830000000  0.4126440000000  0.4313450000000 1.0
C      1  0.5146750000000  0.4836640000000  0.5641290000000 1.0
C      1  0.5454650000000  0.5586950000000  0.4504680000000 1.0
C      1  0.4350300000000  0.5904340000000  0.4245480000000 1.0
C      1  0.4548940000000  0.5243230000000  0.5445710000000 1.0
C      1  0.4313410000000  0.4595380000000  0.5654500000000 1.0
C      1  0.5617080000000  0.4588340000000  0.3895400000000 1.0
C      1  0.4369840000000  0.5176390000000  0.5221430000000 1.0
C      1  0.5739700000000  0.4533830000000  0.4603700000000 1.0
C      1  0.5211150000000  0.4328200000000  0.4662030000000 1.0
C      1  0.4464170000000  0.3691190000000  0.4562990000000 1.0
C      1  0.4515020000000  0.4564920000000  0.5463330000000 1.0
C      1  0.4160570000000  0.4538930000000  0.5863720000000 1.0
C      1  0.4628270000000  0.3860780000000  0.4971130000000 1.0
C      1  0.3769830000000  0.4920200000000  0.5612690000000 1.0
C      1  0.5488240000000  0.5331780000000  0.4444380000000 1.0
C      1  0.6397190000000  0.5801140000000  0.5169220000000 1.0
C      1  0.5881340000000  0.5344250000000  0.4888690000000 1.0
C      1  0.4903300000000  0.3791620000000  0.5007870000000 1.0
C      1  0.4967670000000  0.5769390000000  0.4971560000000 1.0
C      1  0.5739450000000  0.5016790000000  0.5487250000000 1.0
C      1  0.4938710000000  0.5008120000000  0.4002870000000 1.0
C      1  0.5053510000000  0.4803930000000  0.4606860000000 1.0
C      1  0.5797190000000  0.4606390000000  0.5749400000000 1.0
C      1  0.4406560000000  0.4728220000000  0.4747180000000 1.0
C      1  0.4807340000000  0.5273030000000  0.4022120000000 1.0
C      1  0.5042120000000  0.3848870000000  0.5267740000000 1.0
C      1  0.5057960000000  0.6309940000000  0.4816830000000 1.0
C      1  0.4722650000000  0.5816260000000  0.4540820000000 1.0
C      1  0.4691390000000  0.5006640000000  0.5549400000000 1.0
C      1  0.4207180000000  0.4600830000000  0.4250810000000 1.0
C      1  0.5249380000000  0.4652540000000  0.5462540000000 1.0
C      1  0.4242090000000  0.4882200000000  0.4277740000000 1.0
C      1  0.4727100000000  0.4813760000000  0.4050690000000 1.0
C      1  0.4817590000000  0.4749620000000  0.5972830000000 1.0
C      1  0.4312380000000  0.4762470000000  0.4992950000000 1.0
C      1  0.3851870000000  0.4227950000000  0.4801400000000 1.0
C      1  0.5897910000000  0.4328780000000  0.5296980000000 1.0
C      1  0.4803800000000  0.5634500000000  0.5642940000000 1.0
C      1  0.5407680000000  0.5792080000000  0.5222890000000 1.0
C      1  0.3925610000000  0.4964770000000  0.5158360000000 1.0
C      1  0.3932810000000  0.5492190000000  0.5295790000000 1.0
C      1  0.4990980000000  0.5473530000000  0.3956890000000 1.0
C      1  0.4400800000000  0.4414860000000  0.4343850000000 1.0
C      1  0.4980380000000  0.4366550000000  0.4514010000000 1.0
C      1  0.4606170000000  0.4141080000000  0.4962660000000 1.0
C      1  0.4803780000000  0.4870680000000  0.5116360000000 1.0
C      1  0.5779510000000  0.4312030000000  0.4803400000000 1.0
C      1  0.5559170000000  0.6072580000000  0.4671260000000 1.0
C      1  0.4597720000000  0.3891440000000  0.4415170000000 1.0
C      1  0.4508570000000  0.5712510000000  0.4377420000000 1.0
C      1  0.4147930000000  0.3805710000000  0.4906630000000 1.0
C      1  0.4098790000000  0.5066290000000  0.4463150000000 1.0
C      1  0.5164730000000  0.5236220000000  0.5078590000000 1.0
C      1  0.5486850000000  0.5844900000000  0.4554490000000 1.0
C      1  0.5935000000000  0.4473730000000  0.5537780000000 1.0
C      1  0.5408030000000  0.4923300000000  0.4177800000000 1.0
C      1  0.4029520000000  0.4467350000000  0.6077420000000 1.0
C      1  0.5774100000000  0.5072510000000  0.5964530000000 1.0
C      1  0.4492030000000  0.4969570000000  0.4159960000000 1.0
C      1  0.4940040000000  0.4174020000000  0.4315420000000 1.0
C      1  0.3530680000000  0.4691940000000  0.5257010000000 1.0
C      1  0.3323340000000  0.4546550000000  0.5195420000000 1.0
C      1  0.5778880000000  0.5282340000000  0.6394080000000 1.0
C      1  0.5227640000000  0.5061160000000  0.4000360000000 1.0
C      1  0.5051090000000  0.4219800000000  0.5608650000000 1.0
END
