TITL C-627107-135-590 9456.02011022293 125000 -1108.51774006996 0 0 181 (C1) n - 1
REM
REM in /home/nfs/bkarasulu/CARBON/AIRSS/Generating-Clusters/LCBOP/Only-C1/SD-CG/FIRE-CG
REM
REM
REM
REM
REM
REM ./C.cell (11c1c37f851c82e70ff6c80c92926a4b)
REM AIRSS Version 0.9.1 bugfix July 2018 build 013d7b7c2542+ Fri, 06 Jul 2018 19:26:36 +0100
REM compiler GCC version 9.2.1 20190827 (Red Hat 9.2.1-1)
REM options -cpp -mtune=generic -march=x86-64 -g -O0 -fpre-include=/usr/include/finclude/math-vector-fortran.h
REM seed -882143205 1817435893 1839046740 1380380705 -84048424 -1740327552 932878693 -100047060 161930726 212509744 749987615 754715494 189686733 260215395 1899889000 -1193710186 1022242526 612166644 -1837291750 -1624647597 124716207 -510221496 -122995709 -490991805 -476873294 -1349366757 -2012798247 -311886620 -2040486186 -516668119 -1745805482 1515240650 -1040944544
REM
CELL 1.54180   50.00000   50.00000   50.00000   90.00000   90.00000   90.00000
LATT -1
SFAC C  
C      1  0.5151680000000  0.6074060000000  0.4622150000000 1.0
C      1  0.4807930000000  0.4299940000000  0.4519340000000 1.0
C      1  0.5031670000000  0.5058770000000  0.5039070000000 1.0
C      1  0.5724190000000  0.4361420000000  0.4360080000000 1.0
C      1  0.5685320000000  0.4188940000000  0.5063020000000 1.0
C      1  0.4263010000000  0.5762000000000  0.4338610000000 1.0
C      1  0.5659850000000  0.6014770000000  0.4992460000000 1.0
C      1  0.5675360000000  0.6083610000000  0.4717820000000 1.0
C      1  0.5448910000000  0.6000320000000  0.5179260000000 1.0
C      1  0.4748040000000  0.5785050000000  0.4665700000000 1.0
C      1  0.4962070000000  0.4858870000000  0.5231750000000 1.0
C      1  0.4200760000000  0.5088500000000  0.4927570000000 1.0
C      1  0.4804630000000  0.3805740000000  0.4709760000000 1.0
C      1  0.5049930000000  0.6173850000000  0.4874020000000 1.0
C      1  0.4585200000000  0.5303610000000  0.4809420000000 1.0
C      1  0.5106190000000  0.5246670000000  0.6122960000000 1.0
C      1  0.3995880000000  0.4720250000000  0.4316540000000 1.0
C      1  0.4839260000000  0.5616550000000  0.4100310000000 1.0
C      1  0.3829460000000  0.5196960000000  0.4689950000000 1.0
C      1  0.5367150000000  0.4803540000000  0.4223310000000 1.0
C      1  0.4246160000000  0.4525580000000  0.5599070000000 1.0
C      1  0.4964900000000  0.4474030000000  0.5630940000000 1.0
C      1  0.4581940000000  0.6031710000000  0.5344580000000 1.0
C      1  0.5571680000000  0.4242820000000  0.5332440000000 1.0
C      1  0.5305350000000  0.5022870000000  0.4633770000000 1.0
C      1  0.5380820000000  0.5559800000000  0.4177900000000 1.0
C      1  0.5309850000000  0.4738730000000  0.3954510000000 1.0
C      1  0.4922180000000  0.4673550000000  0.4779410000000 1.0
C      1  0.5977410000000  0.4217900000000  0.5625200000000 1.0
C      1  0.5590360000000  0.5028970000000  0.4710320000000 1.0
C      1  0.5149380000000  0.5555980000000  0.5072650000000 1.0
C      1  0.4256420000000  0.4529890000000  0.5100740000000 1.0
C      1  0.5412040000000  0.4834490000000  0.6076670000000 1.0
C      1  0.5137540000000  0.5067700000000  0.5583910000000 1.0
C      1  0.5006600000000  0.4398830000000  0.4076880000000 1.0
C      1  0.4610140000000  0.5194680000000  0.4003890000000 1.0
C      1  0.4327120000000  0.5400290000000  0.5772230000000 1.0
C      1  0.4237020000000  0.5279630000000  0.4418160000000 1.0
C      1  0.4994890000000  0.5992950000000  0.5593200000000 1.0
C      1  0.5696460000000  0.4313430000000  0.5614830000000 1.0
C      1  0.5092090000000  0.4006350000000  0.5347770000000 1.0
C      1  0.5843130000000  0.5417100000000  0.4432780000000 1.0
C      1  0.6189690000000  0.5341410000000  0.4781710000000 1.0
C      1  0.6018000000000  0.4655610000000  0.4989150000000 1.0
C      1  0.3665710000000  0.4969800000000  0.4027010000000 1.0
C      1  0.3844840000000  0.4963010000000  0.4231810000000 1.0
C      1  0.5639670000000  0.4668000000000  0.6017940000000 1.0
C      1  0.4359760000000  0.5509220000000  0.4253800000000 1.0
C      1  0.6092560000000  0.5494140000000  0.4557310000000 1.0
C      1  0.5584980000000  0.4640490000000  0.4334230000000 1.0
C      1  0.5350680000000  0.3902910000000  0.4704440000000 1.0
C      1  0.5376060000000  0.4927830000000  0.5446600000000 1.0
C      1  0.5277650000000  0.4244630000000  0.5927020000000 1.0
C      1  0.5909900000000  0.5078570000000  0.4032190000000 1.0
C      1  0.6046520000000  0.4941610000000  0.4512780000000 1.0
C      1  0.4697620000000  0.4347370000000  0.5013310000000 1.0
C      1  0.4323990000000  0.4007810000000  0.4847180000000 1.0
C      1  0.4264530000000  0.5132960000000  0.5672770000000 1.0
C      1  0.5279660000000  0.4219480000000  0.5347480000000 1.0
C      1  0.4508570000000  0.4984990000000  0.4141880000000 1.0
C      1  0.5679270000000  0.4603320000000  0.5734100000000 1.0
C      1  0.4706500000000  0.4032380000000  0.5661160000000 1.0
C      1  0.4069350000000  0.4458300000000  0.4893720000000 1.0
C      1  0.5511190000000  0.4166430000000  0.5815160000000 1.0
C      1  0.5128290000000  0.4923430000000  0.3830830000000 1.0
C      1  0.5936570000000  0.4682400000000  0.4624720000000 1.0
C      1  0.3993430000000  0.4940120000000  0.4772580000000 1.0
C      1  0.5558420000000  0.4954910000000  0.5007590000000 1.0
C      1  0.5909070000000  0.5199930000000  0.5459400000000 1.0
C      1  0.4152780000000  0.5129270000000  0.5413820000000 1.0
C      1  0.4911470000000  0.6270610000000  0.5569770000000 1.0
C      1  0.5213520000000  0.5194730000000  0.3851540000000 1.0
C      1  0.5802830000000  0.5142400000000  0.4531150000000 1.0
C      1  0.4874830000000  0.4790540000000  0.3809670000000 1.0
C      1  0.5522650000000  0.4000270000000  0.4912320000000 1.0
C      1  0.4593800000000  0.5054460000000  0.6033200000000 1.0
C      1  0.5909030000000  0.4375450000000  0.4601700000000 1.0
C      1  0.5642580000000  0.4734640000000  0.4618610000000 1.0
C      1  0.5461360000000  0.3930680000000  0.4443780000000 1.0
C      1  0.4715050000000  0.5533710000000  0.6118910000000 1.0
C      1  0.4517540000000  0.4586960000000  0.4999560000000 1.0
C      1  0.4763070000000  0.5846310000000  0.5490650000000 1.0
C      1  0.4651340000000  0.4789760000000  0.4815420000000 1.0
C      1  0.4632850000000  0.4144650000000  0.5895910000000 1.0
C      1  0.5252740000000  0.5888230000000  0.5626760000000 1.0
C      1  0.4376750000000  0.4021490000000  0.5132470000000 1.0
C      1  0.4157840000000  0.5787540000000  0.4587210000000 1.0
C      1  0.5219680000000  0.6146540000000  0.5097120000000 1.0
C      1  0.4743660000000  0.5505000000000  0.4677940000000 1.0
C      1  0.4998540000000  0.5270530000000  0.5427180000000 1.0
C      1  0.4519350000000  0.4463440000000  0.3916390000000 1.0
C      1  0.4135060000000  0.5574130000000  0.4768230000000 1.0
C      1  0.5035020000000  0.4931050000000  0.5813660000000 1.0
C      1  0.5000930000000  0.5512640000000  0.6155130000000 1.0
C      1  0.5510230000000  0.5108390000000  0.5241390000000 1.0
C      1  0.6207230000000  0.5046980000000  0.4756700000000 1.0
C      1  0.5606810000000  0.4110590000000  0.4305500000000 1.0
C      1  0.4645080000000  0.4121240000000  0.5179060000000 1.0
C      1  0.5246170000000  0.4462660000000  0.3931530000000 1.0
C      1  0.4544120000000  0.4279470000000  0.4426110000000 1.0
C      1  0.4787650000000  0.4543330000000  0.3938730000000 1.0
C      1  0.4297540000000  0.5319530000000  0.4731010000000 1.0
C      1  0.4538290000000  0.4855450000000  0.6258990000000 1.0
C      1  0.5675450000000  0.5355160000000  0.5313550000000 1.0
C      1  0.4646290000000  0.5593070000000  0.5506980000000 1.0
C      1  0.4598710000000  0.5462390000000  0.4096340000000 1.0
C      1  0.4894840000000  0.5081100000000  0.6003250000000 1.0
C      1  0.4568450000000  0.4575520000000  0.6203920000000 1.0
C      1  0.6134770000000  0.4911830000000  0.5023540000000 1.0
C      1  0.4905130000000  0.5101410000000  0.4463950000000 1.0
C      1  0.5610210000000  0.5401540000000  0.4839370000000 1.0
C      1  0.4809080000000  0.4026720000000  0.5393910000000 1.0
C      1  0.4606290000000  0.5937090000000  0.4880670000000 1.0
C      1  0.3916950000000  0.5211560000000  0.4400940000000 1.0
C      1  0.4536810000000  0.3859850000000  0.4715410000000 1.0
C      1  0.3978670000000  0.5525410000000  0.5190240000000 1.0
C      1  0.4431420000000  0.5886550000000  0.5131620000000 1.0
C      1  0.4738670000000  0.4781010000000  0.5361980000000 1.0
C      1  0.4163530000000  0.4842330000000  0.4521700000000 1.0
C      1  0.5688670000000  0.5223710000000  0.3965250000000 1.0
C      1  0.5583050000000  0.5261610000000  0.5870810000000 1.0
C      1  0.4349100000000  0.5002970000000  0.4371250000000 1.0
C      1  0.6229990000000  0.4157900000000  0.5604310000000 1.0
C      1  0.4264450000000  0.4453050000000  0.4000730000000 1.0
C      1  0.5783490000000  0.5441610000000  0.5049370000000 1.0
C      1  0.4460510000000  0.4946690000000  0.6504790000000 1.0
C      1  0.4424770000000  0.4934420000000  0.5803020000000 1.0
C      1  0.5133750000000  0.4879610000000  0.4832130000000 1.0
C      1  0.5170780000000  0.4974380000000  0.4384790000000 1.0
C      1  0.5393990000000  0.5134920000000  0.6068290000000 1.0
C      1  0.3907240000000  0.5472530000000  0.4905650000000 1.0
C      1  0.3884830000000  0.4673650000000  0.4856410000000 1.0
C      1  0.3930600000000  0.5301900000000  0.5364890000000 1.0
C      1  0.6080310000000  0.4957140000000  0.4212880000000 1.0
C      1  0.4862550000000  0.4391380000000  0.4784880000000 1.0
C      1  0.6087560000000  0.5133180000000  0.5224410000000 1.0
C      1  0.5152490000000  0.4462770000000  0.5409700000000 1.0
C      1  0.5068600000000  0.5717670000000  0.4244880000000 1.0
C      1  0.5893220000000  0.4333930000000  0.4911780000000 1.0
C      1  0.4674480000000  0.6291580000000  0.5426620000000 1.0
C      1  0.4570720000000  0.5254320000000  0.5162380000000 1.0
C      1  0.5176950000000  0.4725310000000  0.5953770000000 1.0
C      1  0.5616690000000  0.4848410000000  0.5606720000000 1.0
C      1  0.5264760000000  0.4407900000000  0.4553600000000 1.0
C      1  0.4462630000000  0.4669470000000  0.5705830000000 1.0
C      1  0.5422770000000  0.5344470000000  0.3979850000000 1.0
C      1  0.4126810000000  0.4469890000000  0.4248660000000 1.0
C      1  0.5565520000000  0.5576120000000  0.5478100000000 1.0
C      1  0.5041450000000  0.4348780000000  0.4361780000000 1.0
C      1  0.5913560000000  0.6132060000000  0.4594270000000 1.0
C      1  0.5099290000000  0.5304420000000  0.5156460000000 1.0
C      1  0.4727690000000  0.5353440000000  0.5386130000000 1.0
C      1  0.5332870000000  0.5727520000000  0.5853140000000 1.0
C      1  0.5436590000000  0.5829820000000  0.5404830000000 1.0
C      1  0.5517430000000  0.5520840000000  0.5764120000000 1.0
C      1  0.5435820000000  0.4544360000000  0.4758160000000 1.0
C      1  0.5107410000000  0.4464590000000  0.5878470000000 1.0
C      1  0.5428430000000  0.6102450000000  0.4580340000000 1.0
C      1  0.4768640000000  0.6178160000000  0.4902500000000 1.0
C      1  0.5588930000000  0.5556500000000  0.4389650000000 1.0
C      1  0.4981940000000  0.5880430000000  0.4490760000000 1.0
C      1  0.6064030000000  0.5376060000000  0.5038800000000 1.0
C      1  0.4190530000000  0.4121400000000  0.5320680000000 1.0
C      1  0.5757480000000  0.5090050000000  0.5690500000000 1.0
C      1  0.5466200000000  0.5529340000000  0.4646600000000 1.0
C      1  0.4592210000000  0.4334370000000  0.6084360000000 1.0
C      1  0.5199310000000  0.5477070000000  0.4627160000000 1.0
C      1  0.4716650000000  0.4615150000000  0.5586220000000 1.0
C      1  0.5179690000000  0.5715770000000  0.6085620000000 1.0
C      1  0.4684190000000  0.5038180000000  0.4672910000000 1.0
C      1  0.4512290000000  0.5363290000000  0.6006030000000 1.0
C      1  0.4197380000000  0.4404280000000  0.5352920000000 1.0
C      1  0.4957420000000  0.5379330000000  0.4543460000000 1.0
C      1  0.4322900000000  0.5111750000000  0.5184000000000 1.0
C      1  0.5350780000000  0.4716740000000  0.4990380000000 1.0
C      1  0.4227280000000  0.5687670000000  0.5278290000000 1.0
C      1  0.4356660000000  0.5594230000000  0.5549600000000 1.0
C      1  0.5230050000000  0.4710760000000  0.5273740000000 1.0
C      1  0.4261740000000  0.4315410000000  0.4459700000000 1.0
C      1  0.5074980000000  0.3827360000000  0.4731050000000 1.0
C      1  0.4171760000000  0.4238970000000  0.4724240000000 1.0
END
