TITL C-627106-156-990 2.52748650330617e-06 125000 -968.518162842245 0 0 157 (C1) n - 1
REM
REM in /home/nfs/bkarasulu/CARBON/AIRSS/Generating-Clusters/LCBOP/Only-C1/SD-CG/FIRE-CG
REM
REM
REM
REM
REM
REM ./C.cell (11c1c37f851c82e70ff6c80c92926a4b)
REM AIRSS Version 0.9.1 bugfix July 2018 build 013d7b7c2542+ Fri, 06 Jul 2018 19:26:36 +0100
REM compiler GCC version 9.2.1 20190827 (Red Hat 9.2.1-1)
REM options -cpp -mtune=generic -march=x86-64 -g -O0 -fpre-include=/usr/include/finclude/math-vector-fortran.h
REM seed -877412677 450372217 -1683490035 -1449833889 -1084521586 -1940537214 1194987385 -742275892 -1548913006 481344293 1784341019 -875908058 -1825248169 928517175 -1444617628 1542802503 -301619738 1949432814 829318136 -1828545214 280800922 -165502471 1091664742 -1456023220 102459804 -1040798284 115246014 -408078036 -1889485449 1579071251 1208367978 171333296 -1000680448
REM
CELL 1.54180   50.00000   50.00000   50.00000   90.00000   90.00000   90.00000
LATT -1
SFAC C  
C      1  0.4301370000000  0.5972010000000  0.5310560000000 1.0
C      1  0.4650650000000  0.4399540000000  0.5982160000000 1.0
C      1  0.5373130000000  0.4647140000000  0.5024930000000 1.0
C      1  0.5697540000000  0.5508620000000  0.5801990000000 1.0
C      1  0.4726940000000  0.5298760000000  0.5615200000000 1.0
C      1  0.5291220000000  0.5768720000000  0.5725760000000 1.0
C      1  0.5015070000000  0.5436070000000  0.5235870000000 1.0
C      1  0.4374320000000  0.4761010000000  0.5306450000000 1.0
C      1  0.4568430000000  0.5443180000000  0.5162030000000 1.0
C      1  0.4981730000000  0.4645360000000  0.5364060000000 1.0
C      1  0.4482870000000  0.4037850000000  0.4450470000000 1.0
C      1  0.5200730000000  0.5328340000000  0.5882510000000 1.0
C      1  0.5678170000000  0.4435320000000  0.4695730000000 1.0
C      1  0.4756880000000  0.5216910000000  0.4625600000000 1.0
C      1  0.6038810000000  0.5470970000000  0.4639390000000 1.0
C      1  0.4810730000000  0.5307030000000  0.5088380000000 1.0
C      1  0.4486280000000  0.5643160000000  0.4976060000000 1.0
C      1  0.5566670000000  0.5479540000000  0.4704190000000 1.0
C      1  0.5887930000000  0.5539080000000  0.5608330000000 1.0
C      1  0.4794670000000  0.5917220000000  0.5292300000000 1.0
C      1  0.5800690000000  0.5631130000000  0.4628880000000 1.0
C      1  0.6336170000000  0.5761070000000  0.5208510000000 1.0
C      1  0.4357260000000  0.5453680000000  0.5976200000000 1.0
C      1  0.5028400000000  0.5686970000000  0.5643800000000 1.0
C      1  0.4328620000000  0.5247590000000  0.4026270000000 1.0
C      1  0.4530690000000  0.5888890000000  0.5732420000000 1.0
C      1  0.4347640000000  0.5169750000000  0.5929030000000 1.0
C      1  0.4750120000000  0.4846710000000  0.6073940000000 1.0
C      1  0.3876190000000  0.5544490000000  0.4985880000000 1.0
C      1  0.5700470000000  0.4761380000000  0.5527500000000 1.0
C      1  0.5638930000000  0.5061810000000  0.4976380000000 1.0
C      1  0.4040980000000  0.4901310000000  0.4764360000000 1.0
C      1  0.6083560000000  0.4722360000000  0.4749250000000 1.0
C      1  0.6078070000000  0.4523130000000  0.5210800000000 1.0
C      1  0.5479900000000  0.4878240000000  0.5451220000000 1.0
C      1  0.4783600000000  0.5110220000000  0.4884900000000 1.0
C      1  0.5545810000000  0.6123380000000  0.5084040000000 1.0
C      1  0.4943360000000  0.5433720000000  0.5764800000000 1.0
C      1  0.5527330000000  0.6081690000000  0.5362520000000 1.0
C      1  0.4000940000000  0.4991280000000  0.5521170000000 1.0
C      1  0.4284330000000  0.4305570000000  0.5669090000000 1.0
C      1  0.5016190000000  0.5480530000000  0.4184720000000 1.0
C      1  0.5475010000000  0.4899970000000  0.4307610000000 1.0
C      1  0.4969640000000  0.4899410000000  0.5468960000000 1.0
C      1  0.4163090000000  0.5013190000000  0.4533470000000 1.0
C      1  0.4957000000000  0.5694620000000  0.5369020000000 1.0
C      1  0.4477650000000  0.4212570000000  0.5861470000000 1.0
C      1  0.4263810000000  0.5430290000000  0.4266480000000 1.0
C      1  0.4703780000000  0.4022260000000  0.4876400000000 1.0
C      1  0.4465480000000  0.4898060000000  0.5540220000000 1.0
C      1  0.5342800000000  0.4647320000000  0.4393840000000 1.0
C      1  0.4719770000000  0.5522200000000  0.4088350000000 1.0
C      1  0.5666730000000  0.5480760000000  0.5193060000000 1.0
C      1  0.5231140000000  0.5034890000000  0.5504330000000 1.0
C      1  0.5917530000000  0.4565910000000  0.4585900000000 1.0
C      1  0.5137370000000  0.3812960000000  0.4954530000000 1.0
C      1  0.4810790000000  0.5493060000000  0.4619070000000 1.0
C      1  0.4284480000000  0.4499340000000  0.5236090000000 1.0
C      1  0.5384820000000  0.4245770000000  0.5418640000000 1.0
C      1  0.5081180000000  0.6030590000000  0.4850570000000 1.0
C      1  0.4729070000000  0.5015040000000  0.5561650000000 1.0
C      1  0.4327980000000  0.5863380000000  0.5052130000000 1.0
C      1  0.5614180000000  0.5344920000000  0.4950760000000 1.0
C      1  0.5417690000000  0.5535770000000  0.5854610000000 1.0
C      1  0.5491800000000  0.4769490000000  0.6124510000000 1.0
C      1  0.5518970000000  0.3928510000000  0.4703700000000 1.0
C      1  0.5225570000000  0.4958100000000  0.4695240000000 1.0
C      1  0.5171010000000  0.3989360000000  0.4329990000000 1.0
C      1  0.5104130000000  0.5863170000000  0.4617570000000 1.0
C      1  0.4315460000000  0.4972520000000  0.4092730000000 1.0
C      1  0.5250020000000  0.5055300000000  0.5811130000000 1.0
C      1  0.5386100000000  0.3960340000000  0.4954500000000 1.0
C      1  0.4626090000000  0.5046060000000  0.4444120000000 1.0
C      1  0.4871350000000  0.3918380000000  0.5806600000000 1.0
C      1  0.5121230000000  0.4569170000000  0.5132490000000 1.0
C      1  0.5228330000000  0.5294070000000  0.5355820000000 1.0
C      1  0.5309560000000  0.6167470000000  0.4938910000000 1.0
C      1  0.5420870000000  0.3936220000000  0.4451950000000 1.0
C      1  0.5229770000000  0.4020870000000  0.3849970000000 1.0
C      1  0.5232470000000  0.4290730000000  0.5677130000000 1.0
C      1  0.6119560000000  0.5142880000000  0.4941760000000 1.0
C      1  0.5875610000000  0.5169690000000  0.4265510000000 1.0
C      1  0.4538400000000  0.5013500000000  0.6075210000000 1.0
C      1  0.6138320000000  0.5426320000000  0.4914420000000 1.0
C      1  0.5765400000000  0.6056670000000  0.4922060000000 1.0
C      1  0.4870930000000  0.6030270000000  0.5043280000000 1.0
C      1  0.4872400000000  0.4599450000000  0.4605070000000 1.0
C      1  0.5003760000000  0.4337240000000  0.5028190000000 1.0
C      1  0.5315090000000  0.3902140000000  0.3629040000000 1.0
C      1  0.4581750000000  0.5336970000000  0.3910270000000 1.0
C      1  0.6136440000000  0.5584570000000  0.5150560000000 1.0
C      1  0.4943090000000  0.3890660000000  0.4471200000000 1.0
C      1  0.4822880000000  0.4441990000000  0.5475310000000 1.0
C      1  0.4445080000000  0.5703390000000  0.5912330000000 1.0
C      1  0.5548570000000  0.4424180000000  0.4963640000000 1.0
C      1  0.5748070000000  0.5373090000000  0.4111510000000 1.0
C      1  0.4661540000000  0.4249620000000  0.5345080000000 1.0
C      1  0.5073970000000  0.5584590000000  0.4491730000000 1.0
C      1  0.4024340000000  0.5604630000000  0.5450460000000 1.0
C      1  0.5818600000000  0.5898840000000  0.4711900000000 1.0
C      1  0.4481300000000  0.5634200000000  0.4232330000000 1.0
C      1  0.4552880000000  0.5968130000000  0.5456400000000 1.0
C      1  0.3934370000000  0.4714350000000  0.5598440000000 1.0
C      1  0.3884400000000  0.5446910000000  0.5260980000000 1.0
C      1  0.5428970000000  0.5971290000000  0.5586650000000 1.0
C      1  0.4851860000000  0.4596140000000  0.5981350000000 1.0
C      1  0.4059110000000  0.4487290000000  0.5694520000000 1.0
C      1  0.3933540000000  0.5148410000000  0.5262690000000 1.0
C      1  0.5121170000000  0.4713530000000  0.4566500000000 1.0
C      1  0.4442970000000  0.4418960000000  0.4785470000000 1.0
C      1  0.4632610000000  0.4873840000000  0.4912440000000 1.0
C      1  0.5082600000000  0.5166420000000  0.4220110000000 1.0
C      1  0.4262610000000  0.5481140000000  0.5530860000000 1.0
C      1  0.4057800000000  0.5887170000000  0.5434200000000 1.0
C      1  0.5410600000000  0.4904020000000  0.4910120000000 1.0
C      1  0.4689530000000  0.3899210000000  0.4342370000000 1.0
C      1  0.5141890000000  0.4142990000000  0.4087050000000 1.0
C      1  0.5294230000000  0.4797220000000  0.5935970000000 1.0
C      1  0.5126490000000  0.4568010000000  0.5870030000000 1.0
C      1  0.4417510000000  0.4910520000000  0.5079300000000 1.0
C      1  0.5399170000000  0.3784950000000  0.3411890000000 1.0
C      1  0.5333370000000  0.5412560000000  0.4552370000000 1.0
C      1  0.4376530000000  0.4932600000000  0.4366300000000 1.0
C      1  0.5904170000000  0.4981340000000  0.5064720000000 1.0
C      1  0.4252690000000  0.5042200000000  0.5681500000000 1.0
C      1  0.5099740000000  0.4054370000000  0.5766990000000 1.0
C      1  0.4121260000000  0.5311050000000  0.4520840000000 1.0
C      1  0.4929550000000  0.3879200000000  0.4761590000000 1.0
C      1  0.4631870000000  0.5682320000000  0.4737170000000 1.0
C      1  0.6012170000000  0.4714470000000  0.5031310000000 1.0
C      1  0.4605260000000  0.3959450000000  0.5835900000000 1.0
C      1  0.4478460000000  0.5891630000000  0.4339580000000 1.0
C      1  0.4385870000000  0.4294100000000  0.5399680000000 1.0
C      1  0.4511360000000  0.4152640000000  0.4705980000000 1.0
C      1  0.4780670000000  0.4174750000000  0.5098750000000 1.0
C      1  0.5529550000000  0.5506220000000  0.4024940000000 1.0
C      1  0.5465740000000  0.4187060000000  0.5126740000000 1.0
C      1  0.5099350000000  0.3607880000000  0.5132580000000 1.0
C      1  0.5032190000000  0.4405340000000  0.4063740000000 1.0
C      1  0.5300500000000  0.5125940000000  0.4445190000000 1.0
C      1  0.6145720000000  0.5002320000000  0.4672450000000 1.0
C      1  0.4567300000000  0.5916700000000  0.4591540000000 1.0
C      1  0.3970600000000  0.5096600000000  0.4962940000000 1.0
C      1  0.4641450000000  0.4629770000000  0.4761800000000 1.0
C      1  0.5752300000000  0.4911170000000  0.4258280000000 1.0
C      1  0.5001800000000  0.4936420000000  0.4072070000000 1.0
C      1  0.5911590000000  0.5547220000000  0.5322250000000 1.0
C      1  0.6053460000000  0.5216790000000  0.4486830000000 1.0
C      1  0.5489880000000  0.4425380000000  0.4479550000000 1.0
C      1  0.5265530000000  0.5568440000000  0.4026120000000 1.0
C      1  0.5457960000000  0.5446390000000  0.5368260000000 1.0
C      1  0.4521920000000  0.5426270000000  0.5445370000000 1.0
C      1  0.4220220000000  0.4438880000000  0.4965270000000 1.0
C      1  0.4988990000000  0.4669760000000  0.4027740000000 1.0
C      1  0.5894700000000  0.4673550000000  0.4321380000000 1.0
C      1  0.3983600000000  0.5357480000000  0.4793780000000 1.0
C      1  0.3966100000000  0.4373570000000  0.4889110000000 1.0
END
