TITL C-627108-131-1149 0.0170986146878545 125000 -523.850126005672 0 0 86 (C1) n - 1
REM
REM in /home/nfs/bkarasulu/CARBON/AIRSS/Generating-Clusters/LCBOP/Only-C1/SD-CG/FIRE-CG
REM
REM
REM
REM
REM
REM ./C.cell (11c1c37f851c82e70ff6c80c92926a4b)
REM AIRSS Version 0.9.1 bugfix July 2018 build 013d7b7c2542+ Fri, 06 Jul 2018 19:26:36 +0100
REM compiler GCC version 9.2.1 20190827 (Red Hat 9.2.1-1)
REM options -cpp -mtune=generic -march=x86-64 -g -O0 -fpre-include=/usr/include/finclude/math-vector-fortran.h
REM seed -1036385798 -739264372 1683549086 1939460225 395515267 1914327194 -718119363 -1079951596 155657241 -1194047781 1321156254 -565030572 -1268485959 -904691761 -525941033 2098556962 1150639140 -322286061 1709262521 -20657159 125817992 1612061470 -621417457 843979169 -1157689792 -533361917 -1552927727 -1538302566 2029407006 -1733794836 -106272878 -1018526227 1997245582
REM
CELL 1.54180   50.00000   50.00000   50.00000   90.00000   90.00000   90.00000
LATT -1
SFAC C  
C      1  0.4530670000000  0.4286810000000  0.4795620000000 1.0
C      1  0.5771650000000  0.5544760000000  0.4919560000000 1.0
C      1  0.4870540000000  0.5492110000000  0.5559400000000 1.0
C      1  0.4143700000000  0.5098920000000  0.4441890000000 1.0
C      1  0.5057450000000  0.5168430000000  0.4149680000000 1.0
C      1  0.4683050000000  0.4835230000000  0.6299830000000 1.0
C      1  0.5322800000000  0.5258190000000  0.4250980000000 1.0
C      1  0.5489660000000  0.4678040000000  0.5604470000000 1.0
C      1  0.4909380000000  0.4928480000000  0.4662750000000 1.0
C      1  0.4923680000000  0.5161180000000  0.4827660000000 1.0
C      1  0.4069130000000  0.4427830000000  0.4748670000000 1.0
C      1  0.5727520000000  0.4829090000000  0.5564010000000 1.0
C      1  0.4466660000000  0.5000370000000  0.5415710000000 1.0
C      1  0.4199080000000  0.4894140000000  0.5385300000000 1.0
C      1  0.6155910000000  0.4987720000000  0.5138260000000 1.0
C      1  0.5176490000000  0.5706960000000  0.5250450000000 1.0
C      1  0.5325600000000  0.5388280000000  0.5585670000000 1.0
C      1  0.4652640000000  0.4561920000000  0.5433120000000 1.0
C      1  0.4601060000000  0.5203790000000  0.5241290000000 1.0
C      1  0.4358560000000  0.4867930000000  0.4962250000000 1.0
C      1  0.5502910000000  0.4612230000000  0.4734470000000 1.0
C      1  0.5489440000000  0.5045800000000  0.4367190000000 1.0
C      1  0.4688260000000  0.5810100000000  0.4717680000000 1.0
C      1  0.5202580000000  0.3900000000000  0.4726720000000 1.0
C      1  0.5010820000000  0.5738790000000  0.5489020000000 1.0
C      1  0.5483140000000  0.4396930000000  0.5534910000000 1.0
C      1  0.5490750000000  0.4868450000000  0.4853080000000 1.0
C      1  0.3980600000000  0.4642830000000  0.4610600000000 1.0
C      1  0.5588220000000  0.4210150000000  0.5714110000000 1.0
C      1  0.4668630000000  0.5228920000000  0.4946120000000 1.0
C      1  0.5158270000000  0.4161250000000  0.4799030000000 1.0
C      1  0.5688070000000  0.4038180000000  0.5882550000000 1.0
C      1  0.5056220000000  0.5794600000000  0.5005130000000 1.0
C      1  0.5779480000000  0.4649470000000  0.3818210000000 1.0
C      1  0.5530800000000  0.4776830000000  0.4278100000000 1.0
C      1  0.4877360000000  0.5392000000000  0.4179560000000 1.0
C      1  0.4035610000000  0.5241980000000  0.5011530000000 1.0
C      1  0.4757080000000  0.4423430000000  0.4676260000000 1.0
C      1  0.5556590000000  0.5553550000000  0.4738630000000 1.0
C      1  0.4103150000000  0.4651630000000  0.5296620000000 1.0
C      1  0.4487060000000  0.5314840000000  0.4740730000000 1.0
C      1  0.4989700000000  0.5615700000000  0.4321080000000 1.0
C      1  0.4626790000000  0.4813360000000  0.5572740000000 1.0
C      1  0.5250630000000  0.4249400000000  0.5053930000000 1.0
C      1  0.5369910000000  0.4307440000000  0.5288320000000 1.0
C      1  0.4340650000000  0.5271220000000  0.4517730000000 1.0
C      1  0.4913340000000  0.5780760000000  0.4542280000000 1.0
C      1  0.5407400000000  0.5312080000000  0.4732450000000 1.0
C      1  0.5424510000000  0.4577530000000  0.4461580000000 1.0
C      1  0.5320530000000  0.5455150000000  0.5305910000000 1.0
C      1  0.4099560000000  0.5490720000000  0.5091060000000 1.0
C      1  0.5850240000000  0.5077710000000  0.5501620000000 1.0
C      1  0.5964020000000  0.5150560000000  0.5247990000000 1.0
C      1  0.5560260000000  0.5400830000000  0.5733660000000 1.0
C      1  0.5019890000000  0.4332260000000  0.4613030000000 1.0
C      1  0.5663510000000  0.4710850000000  0.4043360000000 1.0
C      1  0.5211420000000  0.4795390000000  0.5277460000000 1.0
C      1  0.4117080000000  0.4998480000000  0.4893410000000 1.0
C      1  0.4746800000000  0.4706780000000  0.4720700000000 1.0
C      1  0.4660750000000  0.5454930000000  0.5368430000000 1.0
C      1  0.5238450000000  0.4819000000000  0.5560880000000 1.0
C      1  0.4454270000000  0.4359280000000  0.5405320000000 1.0
C      1  0.4995270000000  0.4894750000000  0.4123760000000 1.0
C      1  0.5064050000000  0.5287680000000  0.5658500000000 1.0
C      1  0.5285830000000  0.5553990000000  0.4339990000000 1.0
C      1  0.5151700000000  0.5818690000000  0.4723950000000 1.0
C      1  0.4803500000000  0.4890330000000  0.5777760000000 1.0
C      1  0.5362050000000  0.4952490000000  0.5103230000000 1.0
C      1  0.5168410000000  0.5287250000000  0.4883560000000 1.0
C      1  0.5514290000000  0.5073060000000  0.4649930000000 1.0
C      1  0.5283630000000  0.5230960000000  0.5139810000000 1.0
C      1  0.4572300000000  0.5676190000000  0.5196570000000 1.0
C      1  0.4741670000000  0.4861180000000  0.6047250000000 1.0
C      1  0.4291720000000  0.5670670000000  0.5148760000000 1.0
C      1  0.4750710000000  0.4631370000000  0.5178370000000 1.0
C      1  0.5020520000000  0.4641260000000  0.4213800000000 1.0
C      1  0.4275920000000  0.4343090000000  0.4926860000000 1.0
C      1  0.4245520000000  0.4412840000000  0.5213280000000 1.0
C      1  0.4754060000000  0.5786520000000  0.5001100000000 1.0
C      1  0.5796930000000  0.5283700000000  0.5686740000000 1.0
C      1  0.4609820000000  0.4745960000000  0.4964160000000 1.0
C      1  0.5886470000000  0.5385040000000  0.5105170000000 1.0
C      1  0.4030590000000  0.4919750000000  0.4630510000000 1.0
C      1  0.5385410000000  0.5716760000000  0.4577350000000 1.0
C      1  0.5158330000000  0.4484690000000  0.4409160000000 1.0
C      1  0.5051310000000  0.5000230000000  0.5690710000000 1.0
END
