TITL C-627106-156-603 83.8788440057244 125000 -457.687312236306 0 0 79 (C1) n - 1
REM
REM in /home/nfs/bkarasulu/CARBON/AIRSS/Generating-Clusters/LCBOP/Only-C1/SD-CG/FIRE-CG
REM
REM
REM
REM
REM
REM ./C.cell (11c1c37f851c82e70ff6c80c92926a4b)
REM AIRSS Version 0.9.1 bugfix July 2018 build 013d7b7c2542+ Fri, 06 Jul 2018 19:26:36 +0100
REM compiler GCC version 9.2.1 20190827 (Red Hat 9.2.1-1)
REM options -cpp -mtune=generic -march=x86-64 -g -O0 -fpre-include=/usr/include/finclude/math-vector-fortran.h
REM seed -618243904 527217191 -1059414557 1656173241 -404066830 208625659 2103855863 1896066600 1833582475 -551443105 87397735 126444230 -577372798 -600957440 885081825 2099902034 -1041722996 -729051723 -1115819471 161654971 533623160 -314302176 1089314729 -1168204804 1753842980 -1908899034 347510914 1865576691 476797702 1280216331 1470687396 1782256962 -131950823
REM
CELL 1.54180   50.00000   50.00000   50.00000   90.00000   90.00000   90.00000
LATT -1
SFAC C  
C      1  0.5362660000000  0.4354570000000  0.5156940000000 1.0
C      1  0.4731300000000  0.5022560000000  0.5187510000000 1.0
C      1  0.4996260000000  0.4791240000000  0.4436130000000 1.0
C      1  0.5336250000000  0.5248760000000  0.4688650000000 1.0
C      1  0.5537180000000  0.4717410000000  0.5416070000000 1.0
C      1  0.5130330000000  0.5143360000000  0.5731050000000 1.0
C      1  0.5143150000000  0.5806900000000  0.5458590000000 1.0
C      1  0.4877470000000  0.5700440000000  0.5437640000000 1.0
C      1  0.5213260000000  0.5239330000000  0.4229700000000 1.0
C      1  0.5338420000000  0.4301700000000  0.5444970000000 1.0
C      1  0.5200200000000  0.5923500000000  0.4625210000000 1.0
C      1  0.4830780000000  0.5557870000000  0.4380570000000 1.0
C      1  0.4052940000000  0.4858570000000  0.5580430000000 1.0
C      1  0.5322870000000  0.4057020000000  0.5562640000000 1.0
C      1  0.5236480000000  0.5136090000000  0.5239680000000 1.0
C      1  0.4873870000000  0.5397240000000  0.4840720000000 1.0
C      1  0.3829330000000  0.4765190000000  0.5484300000000 1.0
C      1  0.5402030000000  0.5777790000000  0.5393170000000 1.0
C      1  0.5068420000000  0.4247020000000  0.4723910000000 1.0
C      1  0.5008470000000  0.4998220000000  0.5146180000000 1.0
C      1  0.4886770000000  0.5339070000000  0.4565880000000 1.0
C      1  0.4360640000000  0.4179950000000  0.5350150000000 1.0
C      1  0.4812770000000  0.4496240000000  0.4071140000000 1.0
C      1  0.4536560000000  0.5059340000000  0.5726790000000 1.0
C      1  0.4639350000000  0.5763290000000  0.4465520000000 1.0
C      1  0.5502510000000  0.5143190000000  0.5094780000000 1.0
C      1  0.5539370000000  0.5049310000000  0.4810320000000 1.0
C      1  0.5703090000000  0.5167200000000  0.5305470000000 1.0
C      1  0.4438140000000  0.4612680000000  0.4612650000000 1.0
C      1  0.5558340000000  0.5623290000000  0.4962520000000 1.0
C      1  0.5475760000000  0.5360050000000  0.4221350000000 1.0
C      1  0.4767940000000  0.4261310000000  0.4747520000000 1.0
C      1  0.5513690000000  0.4612790000000  0.5131190000000 1.0
C      1  0.4664100000000  0.4449630000000  0.4556440000000 1.0
C      1  0.5578670000000  0.4989080000000  0.5500340000000 1.0
C      1  0.5085340000000  0.4804400000000  0.4685730000000 1.0
C      1  0.5004700000000  0.4897170000000  0.5803020000000 1.0
C      1  0.4939310000000  0.4110090000000  0.5138170000000 1.0
C      1  0.5765170000000  0.5439020000000  0.5352290000000 1.0
C      1  0.4643240000000  0.4754790000000  0.6089400000000 1.0
C      1  0.4322020000000  0.4244260000000  0.5599740000000 1.0
C      1  0.4574760000000  0.5872880000000  0.4994770000000 1.0
C      1  0.5673850000000  0.4574380000000  0.4668570000000 1.0
C      1  0.5775490000000  0.4417260000000  0.4487190000000 1.0
C      1  0.5312310000000  0.5118710000000  0.5522440000000 1.0
C      1  0.4952750000000  0.5634810000000  0.4971060000000 1.0
C      1  0.5111810000000  0.4334340000000  0.4453240000000 1.0
C      1  0.5378090000000  0.5727810000000  0.4528500000000 1.0
C      1  0.5172470000000  0.4220850000000  0.4993950000000 1.0
C      1  0.5036450000000  0.5572750000000  0.4187300000000 1.0
C      1  0.5031780000000  0.5401190000000  0.5798320000000 1.0
C      1  0.5384710000000  0.5638090000000  0.4262060000000 1.0
C      1  0.5694900000000  0.5226030000000  0.4348720000000 1.0
C      1  0.4728090000000  0.4900800000000  0.5872990000000 1.0
C      1  0.4764040000000  0.5729680000000  0.5176410000000 1.0
C      1  0.5361410000000  0.4551380000000  0.5585350000000 1.0
C      1  0.4218950000000  0.4610490000000  0.4439980000000 1.0
C      1  0.5124310000000  0.5543170000000  0.6012130000000 1.0
C      1  0.5434170000000  0.5527790000000  0.4727820000000 1.0
C      1  0.4816990000000  0.5495180000000  0.5630000000000 1.0
C      1  0.4022190000000  0.4604330000000  0.4269210000000 1.0
C      1  0.4732020000000  0.4475010000000  0.3824390000000 1.0
C      1  0.5598660000000  0.5643740000000  0.5241580000000 1.0
C      1  0.4594670000000  0.5323520000000  0.5642320000000 1.0
C      1  0.4886590000000  0.4523960000000  0.4351490000000 1.0
C      1  0.5065090000000  0.4811860000000  0.4947400000000 1.0
C      1  0.4419770000000  0.5824400000000  0.4314300000000 1.0
C      1  0.4979070000000  0.5862650000000  0.4784040000000 1.0
C      1  0.5162040000000  0.4665110000000  0.5750660000000 1.0
C      1  0.5751660000000  0.5094380000000  0.4585900000000 1.0
C      1  0.4432130000000  0.4093680000000  0.5093750000000 1.0
C      1  0.5125580000000  0.5192030000000  0.4493570000000 1.0
C      1  0.4286590000000  0.4949850000000  0.5665660000000 1.0
C      1  0.4523170000000  0.4921110000000  0.5049690000000 1.0
C      1  0.4435570000000  0.4775580000000  0.4843110000000 1.0
C      1  0.4693830000000  0.5897440000000  0.4716750000000 1.0
C      1  0.4252120000000  0.3957800000000  0.4938910000000 1.0
C      1  0.4689690000000  0.4147710000000  0.4998690000000 1.0
C      1  0.5573060000000  0.4737300000000  0.4873290000000 1.0
END
