TITL C-627107-135-530 -2318.2469221008 125000 -944.501560838103 0 0 156 (C1) n - 1
REM
REM in /home/nfs/bkarasulu/CARBON/AIRSS/Generating-Clusters/LCBOP/Only-C1/SD-CG/FIRE-CG
REM
REM
REM
REM
REM
REM ./C.cell (11c1c37f851c82e70ff6c80c92926a4b)
REM AIRSS Version 0.9.1 bugfix July 2018 build 013d7b7c2542+ Fri, 06 Jul 2018 19:26:36 +0100
REM compiler GCC version 9.2.1 20190827 (Red Hat 9.2.1-1)
REM options -cpp -mtune=generic -march=x86-64 -g -O0 -fpre-include=/usr/include/finclude/math-vector-fortran.h
REM seed 779290182 -2082413173 349733676 -1514002871 920520254 -1661485276 237691415 -1903264 -2006943440 122198230 837628173 1928393201 1185995065 992673331 -1296013242 -1515890262 -1467590999 -1985111908 -1291857204 -462706695 1052575865 -28012625 -1033543874 -592164201 1425163083 -2044596087 -1257817701 -787072904 -1152359254 1450777622 -815485450 -1824556774 -1538579994
REM
CELL 1.54180   50.00000   50.00000   50.00000   90.00000   90.00000   90.00000
LATT -1
SFAC C  
C      1  0.4979960000000  0.4646040000000  0.5304320000000 1.0
C      1  0.5847700000000  0.5053220000000  0.4470170000000 1.0
C      1  0.5833050000000  0.4341780000000  0.4795850000000 1.0
C      1  0.5160270000000  0.5042290000000  0.4597040000000 1.0
C      1  0.4350210000000  0.5361090000000  0.4448400000000 1.0
C      1  0.5691970000000  0.4363220000000  0.4225590000000 1.0
C      1  0.4640330000000  0.4507630000000  0.3999570000000 1.0
C      1  0.4230730000000  0.5463430000000  0.5732510000000 1.0
C      1  0.5323140000000  0.4862240000000  0.4208850000000 1.0
C      1  0.5625200000000  0.5012920000000  0.5546010000000 1.0
C      1  0.3902410000000  0.5230900000000  0.4469220000000 1.0
C      1  0.5520460000000  0.5886030000000  0.4732590000000 1.0
C      1  0.4152990000000  0.5762610000000  0.4535200000000 1.0
C      1  0.4776520000000  0.4906900000000  0.4772310000000 1.0
C      1  0.5919340000000  0.5760200000000  0.4937560000000 1.0
C      1  0.3980580000000  0.4905350000000  0.5374740000000 1.0
C      1  0.5056940000000  0.4915560000000  0.5301130000000 1.0
C      1  0.5404090000000  0.4501840000000  0.5076780000000 1.0
C      1  0.4945140000000  0.5932730000000  0.5701810000000 1.0
C      1  0.4860680000000  0.4995470000000  0.3884320000000 1.0
C      1  0.4370590000000  0.5896720000000  0.5256780000000 1.0
C      1  0.5600250000000  0.5667000000000  0.4443060000000 1.0
C      1  0.4877000000000  0.3941550000000  0.5307440000000 1.0
C      1  0.4479800000000  0.5895580000000  0.5523160000000 1.0
C      1  0.4354120000000  0.4919460000000  0.4905940000000 1.0
C      1  0.4437190000000  0.4531590000000  0.5433460000000 1.0
C      1  0.5352230000000  0.5454430000000  0.5624210000000 1.0
C      1  0.5834720000000  0.4578980000000  0.4343360000000 1.0
C      1  0.5320030000000  0.4610250000000  0.4347540000000 1.0
C      1  0.4943310000000  0.4403560000000  0.4887280000000 1.0
C      1  0.4990770000000  0.5562360000000  0.4718650000000 1.0
C      1  0.5606300000000  0.4157020000000  0.4777140000000 1.0
C      1  0.5298050000000  0.5613130000000  0.5383660000000 1.0
C      1  0.5572040000000  0.5219240000000  0.4051940000000 1.0
C      1  0.5161370000000  0.5029330000000  0.5531000000000 1.0
C      1  0.4491310000000  0.4323430000000  0.4168580000000 1.0
C      1  0.5781770000000  0.5530140000000  0.4972970000000 1.0
C      1  0.4825770000000  0.4323280000000  0.4598290000000 1.0
C      1  0.5575010000000  0.4939970000000  0.4100270000000 1.0
C      1  0.4753310000000  0.5389950000000  0.4799140000000 1.0
C      1  0.5226580000000  0.4152990000000  0.4307410000000 1.0
C      1  0.4656090000000  0.5224140000000  0.5446610000000 1.0
C      1  0.6145600000000  0.5519720000000  0.5502460000000 1.0
C      1  0.4771390000000  0.5948910000000  0.5474310000000 1.0
C      1  0.6014700000000  0.4282970000000  0.5006810000000 1.0
C      1  0.4821920000000  0.4594440000000  0.4457560000000 1.0
C      1  0.4528540000000  0.4541380000000  0.5169470000000 1.0
C      1  0.5086530000000  0.5056010000000  0.5064240000000 1.0
C      1  0.4655210000000  0.4785020000000  0.3923320000000 1.0
C      1  0.5113100000000  0.3952790000000  0.4881690000000 1.0
C      1  0.5536030000000  0.5415830000000  0.4891630000000 1.0
C      1  0.5651990000000  0.4284110000000  0.5913110000000 1.0
C      1  0.4572620000000  0.4058760000000  0.4903320000000 1.0
C      1  0.4850780000000  0.3969050000000  0.5014640000000 1.0
C      1  0.5375080000000  0.4016360000000  0.4826270000000 1.0
C      1  0.4351880000000  0.4656110000000  0.4989890000000 1.0
C      1  0.5233810000000  0.4611310000000  0.4620140000000 1.0
C      1  0.4351510000000  0.4960280000000  0.5773960000000 1.0
C      1  0.5106190000000  0.6149810000000  0.5775180000000 1.0
C      1  0.4910880000000  0.5843280000000  0.4704250000000 1.0
C      1  0.4369060000000  0.4390310000000  0.4438530000000 1.0
C      1  0.5273010000000  0.5506500000000  0.4783600000000 1.0
C      1  0.5319250000000  0.5912510000000  0.4966450000000 1.0
C      1  0.5348890000000  0.6255840000000  0.5739030000000 1.0
C      1  0.4807330000000  0.4518260000000  0.5115060000000 1.0
C      1  0.4423500000000  0.4037420000000  0.5369370000000 1.0
C      1  0.4091200000000  0.5464160000000  0.4562150000000 1.0
C      1  0.5936910000000  0.4872520000000  0.4692100000000 1.0
C      1  0.5693030000000  0.5339180000000  0.4360400000000 1.0
C      1  0.4819920000000  0.5409980000000  0.5370960000000 1.0
C      1  0.3918220000000  0.4291930000000  0.4910110000000 1.0
C      1  0.4663940000000  0.5916430000000  0.4578760000000 1.0
C      1  0.3899290000000  0.5161520000000  0.4929920000000 1.0
C      1  0.6055540000000  0.4895290000000  0.5421170000000 1.0
C      1  0.5943420000000  0.5402870000000  0.5921020000000 1.0
C      1  0.4518050000000  0.4976800000000  0.4681420000000 1.0
C      1  0.5145280000000  0.4448620000000  0.5948810000000 1.0
C      1  0.5043180000000  0.5530240000000  0.5294630000000 1.0
C      1  0.5172630000000  0.5495530000000  0.5850560000000 1.0
C      1  0.4571790000000  0.5810330000000  0.5072470000000 1.0
C      1  0.5081450000000  0.5556350000000  0.4155300000000 1.0
C      1  0.5996980000000  0.5345810000000  0.5652330000000 1.0
C      1  0.4547440000000  0.5549770000000  0.4963200000000 1.0
C      1  0.5033970000000  0.4365850000000  0.5698110000000 1.0
C      1  0.6097730000000  0.4942720000000  0.4910040000000 1.0
C      1  0.4138320000000  0.4889190000000  0.5595720000000 1.0
C      1  0.5224570000000  0.4477000000000  0.4865700000000 1.0
C      1  0.6072240000000  0.4263850000000  0.5269200000000 1.0
C      1  0.5880640000000  0.4581100000000  0.4632730000000 1.0
C      1  0.5460560000000  0.5777410000000  0.3975390000000 1.0
C      1  0.5271590000000  0.5571280000000  0.3944600000000 1.0
C      1  0.5870230000000  0.5453430000000  0.6165980000000 1.0
C      1  0.4311290000000  0.5398650000000  0.5017150000000 1.0
C      1  0.4995870000000  0.4658900000000  0.6066510000000 1.0
C      1  0.4988460000000  0.4793000000000  0.4604720000000 1.0
C      1  0.4852340000000  0.5135220000000  0.4935360000000 1.0
C      1  0.3839810000000  0.5347270000000  0.5385640000000 1.0
C      1  0.4090870000000  0.4115670000000  0.5012530000000 1.0
C      1  0.5411180000000  0.4358310000000  0.4256150000000 1.0
C      1  0.5026190000000  0.5954800000000  0.4951610000000 1.0
C      1  0.4227850000000  0.4802580000000  0.4203490000000 1.0
C      1  0.5398440000000  0.5172400000000  0.5578370000000 1.0
C      1  0.4384540000000  0.5243010000000  0.5848240000000 1.0
C      1  0.5147560000000  0.4488790000000  0.5470120000000 1.0
C      1  0.5281730000000  0.5035740000000  0.4859610000000 1.0
C      1  0.4350460000000  0.4045720000000  0.5093370000000 1.0
C      1  0.5410940000000  0.4366730000000  0.6008360000000 1.0
C      1  0.4350840000000  0.5128970000000  0.5095570000000 1.0
C      1  0.5797010000000  0.4851610000000  0.4252170000000 1.0
C      1  0.4797160000000  0.4847580000000  0.5989580000000 1.0
C      1  0.5576920000000  0.6018090000000  0.5377300000000 1.0
C      1  0.5785300000000  0.5959280000000  0.4809810000000 1.0
C      1  0.4758380000000  0.4289470000000  0.5665590000000 1.0
C      1  0.4068040000000  0.5405540000000  0.4866620000000 1.0
C      1  0.5756850000000  0.4239880000000  0.5652810000000 1.0
C      1  0.5617800000000  0.4721970000000  0.5479710000000 1.0
C      1  0.5544890000000  0.4224990000000  0.5459910000000 1.0
C      1  0.3888700000000  0.5007110000000  0.4667470000000 1.0
C      1  0.4958450000000  0.5691300000000  0.5855110000000 1.0
C      1  0.4828380000000  0.5935040000000  0.5170490000000 1.0
C      1  0.3868740000000  0.5117330000000  0.5216960000000 1.0
C      1  0.4722600000000  0.5587450000000  0.5980040000000 1.0
C      1  0.4844830000000  0.5128210000000  0.6016470000000 1.0
C      1  0.5136730000000  0.5094860000000  0.3791760000000 1.0
C      1  0.5101640000000  0.5256530000000  0.6001140000000 1.0
C      1  0.6166450000000  0.4933390000000  0.5167700000000 1.0
C      1  0.4392800000000  0.4882070000000  0.4005140000000 1.0
C      1  0.4629210000000  0.5317060000000  0.5981460000000 1.0
C      1  0.5169730000000  0.5092740000000  0.4319950000000 1.0
C      1  0.3983910000000  0.5430770000000  0.5598060000000 1.0
C      1  0.5069990000000  0.3779710000000  0.5415960000000 1.0
C      1  0.4568690000000  0.5380890000000  0.3984250000000 1.0
C      1  0.3865980000000  0.4518890000000  0.4778590000000 1.0
C      1  0.4565860000000  0.4762460000000  0.5834470000000 1.0
C      1  0.4185390000000  0.4633330000000  0.4431380000000 1.0
C      1  0.4785920000000  0.3951900000000  0.4268000000000 1.0
C      1  0.4566550000000  0.4049600000000  0.4142630000000 1.0
C      1  0.5587870000000  0.5820310000000  0.4209660000000 1.0
C      1  0.4685810000000  0.4074120000000  0.5476290000000 1.0
C      1  0.4777950000000  0.5219210000000  0.4052580000000 1.0
C      1  0.5352310000000  0.5300530000000  0.3876790000000 1.0
C      1  0.4571720000000  0.4514890000000  0.5680180000000 1.0
C      1  0.5897760000000  0.5108220000000  0.5540690000000 1.0
C      1  0.4353550000000  0.5719830000000  0.5702730000000 1.0
C      1  0.4558340000000  0.5249520000000  0.4588880000000 1.0
C      1  0.5531410000000  0.5136340000000  0.4910670000000 1.0
C      1  0.4534990000000  0.4240170000000  0.4661990000000 1.0
C      1  0.4395480000000  0.5892940000000  0.4536400000000 1.0
C      1  0.4965500000000  0.4117810000000  0.4414700000000 1.0
C      1  0.5968110000000  0.4378420000000  0.5506840000000 1.0
C      1  0.5908850000000  0.4654090000000  0.5478920000000 1.0
C      1  0.5432840000000  0.4490840000000  0.5374510000000 1.0
C      1  0.4990680000000  0.5297640000000  0.4221400000000 1.0
C      1  0.5414020000000  0.5835430000000  0.5238180000000 1.0
C      1  0.5552590000000  0.6196870000000  0.5575050000000 1.0
C      1  0.3972790000000  0.4726340000000  0.4617250000000 1.0
END
