TITL C-627111-6168-1288 240596.730113269 125000 -906.855298693501 0 0 151 (C1) n - 1
REM
REM in /home/nfs/bkarasulu/CARBON/AIRSS/Generating-Clusters/LCBOP/Only-C1/SD-CG/FIRE-CG
REM
REM
REM
REM
REM
REM ./C.cell (11c1c37f851c82e70ff6c80c92926a4b)
REM AIRSS Version 0.9.1 bugfix July 2018 build 013d7b7c2542+ Fri, 06 Jul 2018 19:26:36 +0100
REM compiler GCC version 9.2.1 20190827 (Red Hat 9.2.1-1)
REM options -cpp -mtune=generic -march=x86-64 -g -O0 -fpre-include=/usr/include/finclude/math-vector-fortran.h
REM seed 80239226 -1635696631 -901234859 -1768686293 803470324 -2048329260 729358915 1824089481 -1618709538 -633874675 -373951206 1567119095 -306063005 1116171388 -1623732883 1797417078 -1738742092 -217814854 1471061865 -1325049353 1399314465 -1805816344 889343958 1206170700 -1852738946 520579130 550243035 1451517885 1704605970 -1460140414 -78461684 -1531542801 -1167456934
REM
CELL 1.54180   50.00000   50.00000   50.00000   90.00000   90.00000   90.00000
LATT -1
SFAC C  
C      1  0.5938400000000  0.4627000000000  0.5493460000000 1.0
C      1  0.5193920000000  0.4512990000000  0.4798890000000 1.0
C      1  0.5855350000000  0.4437020000000  0.4725020000000 1.0
C      1  0.4955550000000  0.4693480000000  0.6091590000000 1.0
C      1  0.5100750000000  0.4963590000000  0.4776580000000 1.0
C      1  0.5890550000000  0.4450910000000  0.5015900000000 1.0
C      1  0.5051090000000  0.5073570000000  0.4252090000000 1.0
C      1  0.3972780000000  0.5332340000000  0.5231890000000 1.0
C      1  0.4649430000000  0.4916690000000  0.5512130000000 1.0
C      1  0.5979470000000  0.4635390000000  0.4566860000000 1.0
C      1  0.5828590000000  0.6121950000000  0.5428560000000 1.0
C      1  0.4869700000000  0.6062590000000  0.4845730000000 1.0
C      1  0.4639380000000  0.5443550000000  0.4049280000000 1.0
C      1  0.5537930000000  0.4271470000000  0.5565030000000 1.0
C      1  0.4839200000000  0.5634930000000  0.4454090000000 1.0
C      1  0.4162910000000  0.5521440000000  0.5340160000000 1.0
C      1  0.4951660000000  0.4216050000000  0.4245550000000 1.0
C      1  0.5600000000000  0.5284040000000  0.5392780000000 1.0
C      1  0.5230770000000  0.5475230000000  0.5095560000000 1.0
C      1  0.5050890000000  0.4944030000000  0.6049260000000 1.0
C      1  0.4290440000000  0.4851610000000  0.5044250000000 1.0
C      1  0.4737660000000  0.4580650000000  0.5153970000000 1.0
C      1  0.5131770000000  0.5616920000000  0.5834680000000 1.0
C      1  0.4928120000000  0.5800860000000  0.5723400000000 1.0
C      1  0.5332920000000  0.4511040000000  0.4341150000000 1.0
C      1  0.4355600000000  0.5104170000000  0.5198210000000 1.0
C      1  0.5656870000000  0.5226860000000  0.4341710000000 1.0
C      1  0.5550690000000  0.5794070000000  0.4812680000000 1.0
C      1  0.4215000000000  0.4623630000000  0.5206690000000 1.0
C      1  0.4983300000000  0.3745330000000  0.5461220000000 1.0
C      1  0.4048320000000  0.4428250000000  0.4768560000000 1.0
C      1  0.4753100000000  0.5926070000000  0.5068510000000 1.0
C      1  0.4022960000000  0.4800310000000  0.4431950000000 1.0
C      1  0.3816640000000  0.4805340000000  0.5130530000000 1.0
C      1  0.5157640000000  0.4330560000000  0.5007970000000 1.0
C      1  0.5677580000000  0.4573100000000  0.5896110000000 1.0
C      1  0.4463150000000  0.4892750000000  0.4788730000000 1.0
C      1  0.5870900000000  0.5115100000000  0.5410680000000 1.0
C      1  0.5664640000000  0.5535760000000  0.4724350000000 1.0
C      1  0.5551980000000  0.4841320000000  0.5312920000000 1.0
C      1  0.5613060000000  0.5310660000000  0.4894850000000 1.0
C      1  0.5565940000000  0.5035340000000  0.4823430000000 1.0
C      1  0.3814310000000  0.5137550000000  0.4784890000000 1.0
C      1  0.4413880000000  0.4214890000000  0.5403030000000 1.0
C      1  0.4711380000000  0.3780070000000  0.5515530000000 1.0
C      1  0.3971780000000  0.4699460000000  0.5349160000000 1.0
C      1  0.5284230000000  0.4119950000000  0.5169910000000 1.0
C      1  0.4818340000000  0.5051970000000  0.4421430000000 1.0
C      1  0.4753150000000  0.4074430000000  0.4451810000000 1.0
C      1  0.4674100000000  0.5214430000000  0.5997240000000 1.0
C      1  0.4008920000000  0.4525990000000  0.4504240000000 1.0
C      1  0.6288440000000  0.5257450000000  0.4813130000000 1.0
C      1  0.4825230000000  0.4085930000000  0.5208540000000 1.0
C      1  0.3996310000000  0.4797640000000  0.5607130000000 1.0
C      1  0.5015480000000  0.5529010000000  0.5269570000000 1.0
C      1  0.4978690000000  0.5881200000000  0.4412840000000 1.0
C      1  0.5446280000000  0.4884800000000  0.4063490000000 1.0
C      1  0.5416750000000  0.4892810000000  0.5602850000000 1.0
C      1  0.4622600000000  0.4227270000000  0.4679410000000 1.0
C      1  0.4434150000000  0.4349050000000  0.5657030000000 1.0
C      1  0.5777550000000  0.4432530000000  0.5645090000000 1.0
C      1  0.4621890000000  0.4582270000000  0.4428580000000 1.0
C      1  0.4322420000000  0.5142020000000  0.4219780000000 1.0
C      1  0.4763340000000  0.4475540000000  0.4637520000000 1.0
C      1  0.5087320000000  0.4484800000000  0.5696630000000 1.0
C      1  0.4881130000000  0.4340730000000  0.5107360000000 1.0
C      1  0.4440840000000  0.5307350000000  0.4991180000000 1.0
C      1  0.4916160000000  0.5164500000000  0.4654730000000 1.0
C      1  0.5758910000000  0.4234320000000  0.5146140000000 1.0
C      1  0.4319320000000  0.4293080000000  0.4864870000000 1.0
C      1  0.5988130000000  0.4665370000000  0.5201530000000 1.0
C      1  0.4304950000000  0.5301690000000  0.4472060000000 1.0
C      1  0.5585560000000  0.4863360000000  0.5049030000000 1.0
C      1  0.4370410000000  0.5576930000000  0.4440940000000 1.0
C      1  0.4856730000000  0.4529360000000  0.5877980000000 1.0
C      1  0.5449790000000  0.3817960000000  0.4472750000000 1.0
C      1  0.3847570000000  0.4582490000000  0.4931230000000 1.0
C      1  0.5455830000000  0.4092370000000  0.4462550000000 1.0
C      1  0.4709740000000  0.4678680000000  0.5410490000000 1.0
C      1  0.5364750000000  0.4932670000000  0.4618190000000 1.0
C      1  0.5614660000000  0.5942200000000  0.5049390000000 1.0
C      1  0.4867740000000  0.5092680000000  0.5162830000000 1.0
C      1  0.4909220000000  0.5285170000000  0.5370360000000 1.0
C      1  0.5062370000000  0.5963940000000  0.4161650000000 1.0
C      1  0.5094550000000  0.6024020000000  0.5620830000000 1.0
C      1  0.5767570000000  0.5454840000000  0.4471130000000 1.0
C      1  0.4600800000000  0.4004880000000  0.5368280000000 1.0
C      1  0.4415330000000  0.5705890000000  0.5371060000000 1.0
C      1  0.4311090000000  0.5853420000000  0.4887840000000 1.0
C      1  0.5138570000000  0.5981510000000  0.5335600000000 1.0
C      1  0.5174450000000  0.4714060000000  0.5545770000000 1.0
C      1  0.5363740000000  0.4630280000000  0.4594040000000 1.0
C      1  0.4478510000000  0.5856190000000  0.5118010000000 1.0
C      1  0.5355720000000  0.5206670000000  0.5610850000000 1.0
C      1  0.4544510000000  0.5174400000000  0.4027010000000 1.0
C      1  0.6196490000000  0.5101760000000  0.5008650000000 1.0
C      1  0.5073480000000  0.5983380000000  0.4659590000000 1.0
C      1  0.5241720000000  0.4241120000000  0.4320230000000 1.0
C      1  0.4408850000000  0.4790080000000  0.5890280000000 1.0
C      1  0.5715260000000  0.4888140000000  0.4023810000000 1.0
C      1  0.5153880000000  0.5555170000000  0.4832700000000 1.0
C      1  0.5884090000000  0.4903640000000  0.5620770000000 1.0
C      1  0.5551530000000  0.6130970000000  0.5503510000000 1.0
C      1  0.6021310000000  0.4971110000000  0.5182960000000 1.0
C      1  0.6046140000000  0.5499160000000  0.4443730000000 1.0
C      1  0.4706750000000  0.4944480000000  0.3923440000000 1.0
C      1  0.5272360000000  0.5802510000000  0.4753450000000 1.0
C      1  0.4614010000000  0.5594320000000  0.4291030000000 1.0
C      1  0.4333430000000  0.4641090000000  0.4093630000000 1.0
C      1  0.4641430000000  0.5741220000000  0.5595500000000 1.0
C      1  0.4526940000000  0.4840660000000  0.4490900000000 1.0
C      1  0.5846060000000  0.5020820000000  0.4240610000000 1.0
C      1  0.4847350000000  0.4698150000000  0.3923400000000 1.0
C      1  0.5098580000000  0.4973500000000  0.5080340000000 1.0
C      1  0.5079360000000  0.3939710000000  0.5271100000000 1.0
C      1  0.4814520000000  0.4431080000000  0.4058310000000 1.0
C      1  0.4279010000000  0.4862850000000  0.4295250000000 1.0
C      1  0.4360670000000  0.5185580000000  0.4735810000000 1.0
C      1  0.6247990000000  0.5410680000000  0.4597860000000 1.0
C      1  0.4561690000000  0.4539780000000  0.5830830000000 1.0
C      1  0.5359230000000  0.5461370000000  0.5792270000000 1.0
C      1  0.4315860000000  0.4355390000000  0.5163330000000 1.0
C      1  0.5674560000000  0.4240720000000  0.4596810000000 1.0
C      1  0.5347610000000  0.6138400000000  0.5707270000000 1.0
C      1  0.5276240000000  0.5862830000000  0.3695890000000 1.0
C      1  0.4287700000000  0.5765250000000  0.4634140000000 1.0
C      1  0.5167960000000  0.5942810000000  0.3919250000000 1.0
C      1  0.5312630000000  0.4315280000000  0.5760860000000 1.0
C      1  0.5033240000000  0.5188850000000  0.5613710000000 1.0
C      1  0.3867240000000  0.4999790000000  0.4558400000000 1.0
C      1  0.4926240000000  0.5139970000000  0.5883490000000 1.0
C      1  0.5529360000000  0.4177380000000  0.5297810000000 1.0
C      1  0.4667570000000  0.5464420000000  0.4916390000000 1.0
C      1  0.5864950000000  0.6016610000000  0.5174660000000 1.0
C      1  0.4510440000000  0.4990640000000  0.6062370000000 1.0
C      1  0.4240060000000  0.4909710000000  0.5684780000000 1.0
C      1  0.5358490000000  0.5057460000000  0.4320350000000 1.0
C      1  0.5140050000000  0.4757660000000  0.5263220000000 1.0
C      1  0.4603420000000  0.5466210000000  0.6072670000000 1.0
C      1  0.5411690000000  0.6023430000000  0.5255170000000 1.0
C      1  0.4723860000000  0.4791840000000  0.4945580000000 1.0
C      1  0.4940450000000  0.4686890000000  0.4761190000000 1.0
C      1  0.5459700000000  0.4416270000000  0.5992560000000 1.0
C      1  0.4947450000000  0.5804530000000  0.5233920000000 1.0
C      1  0.4399400000000  0.5044190000000  0.5477430000000 1.0
C      1  0.3845570000000  0.5099670000000  0.5069180000000 1.0
C      1  0.5991780000000  0.4855610000000  0.4415390000000 1.0
C      1  0.5652770000000  0.4842300000000  0.5793420000000 1.0
C      1  0.4550310000000  0.4474770000000  0.4175500000000 1.0
C      1  0.5492570000000  0.5379360000000  0.5144470000000 1.0
C      1  0.4896870000000  0.5459420000000  0.4709380000000 1.0
END
