TITL C-627110-360-2079 0.0310060211378075 125000 -87.7463837814059 0 0 16 (C1) n - 1
REM
REM in /home/nfs/bkarasulu/CARBON/AIRSS/Generating-Clusters/LCBOP/Only-C1/SD-CG/FIRE-CG
REM
REM
REM
REM
REM
REM ./C.cell (11c1c37f851c82e70ff6c80c92926a4b)
REM AIRSS Version 0.9.1 bugfix July 2018 build 013d7b7c2542+ Fri, 06 Jul 2018 19:26:36 +0100
REM compiler GCC version 9.2.1 20190827 (Red Hat 9.2.1-1)
REM options -cpp -mtune=generic -march=x86-64 -g -O0 -fpre-include=/usr/include/finclude/math-vector-fortran.h
REM seed 1948345853 -699584379 81519494 -2061432799 -1313612127 -1749775628 -482332202 -948684999 383430739 1344669429 2029063395 -1264571997 -1706120252 435081620 28354554 -937345655 2052277 -780481203 552460875 -1141933401 1285048610 298629355 623229687 -484050640 92111379 1182755042 1110008846 -1307898594 -1383146225 1515490395 -165433797 118640238 -1903149343
REM
CELL 1.54180   50.00000   50.00000   50.00000   90.00000   90.00000   90.00000
LATT -1
SFAC C  
C      1  0.5339380000000  0.5130440000000  0.5521420000000 1.0
C      1  0.5916480000000  0.4575500000000  0.4961190000000 1.0
C      1  0.4725900000000  0.4532540000000  0.5375640000000 1.0
C      1  0.4878690000000  0.4729040000000  0.5285120000000 1.0
C      1  0.4423440000000  0.4142140000000  0.5556020000000 1.0
C      1  0.4798430000000  0.5436700000000  0.4607780000000 1.0
C      1  0.5719630000000  0.4703800000000  0.5074100000000 1.0
C      1  0.4720000000000  0.5602110000000  0.4416180000000 1.0
C      1  0.4564390000000  0.5930290000000  0.4036030000000 1.0
C      1  0.5043790000000  0.4934350000000  0.5192590000000 1.0
C      1  0.4955770000000  0.5106230000000  0.4990900000000 1.0
C      1  0.5303050000000  0.4968310000000  0.5304060000000 1.0
C      1  0.4573410000000  0.4335720000000  0.5466570000000 1.0
C      1  0.5519210000000  0.4833980000000  0.5188470000000 1.0
C      1  0.4876870000000  0.5271290000000  0.4799380000000 1.0
C      1  0.4641550000000  0.5767560000000  0.4224530000000 1.0
END
