TITL C-627111-6168-1405 0.094941661236711 125000 -521.807657927598 0 0 87 (C1) n - 1
REM
REM in /home/nfs/bkarasulu/CARBON/AIRSS/Generating-Clusters/LCBOP/Only-C1/SD-CG/FIRE-CG
REM
REM
REM
REM
REM
REM ./C.cell (11c1c37f851c82e70ff6c80c92926a4b)
REM AIRSS Version 0.9.1 bugfix July 2018 build 013d7b7c2542+ Fri, 06 Jul 2018 19:26:36 +0100
REM compiler GCC version 9.2.1 20190827 (Red Hat 9.2.1-1)
REM options -cpp -mtune=generic -march=x86-64 -g -O0 -fpre-include=/usr/include/finclude/math-vector-fortran.h
REM seed -967939112 542603023 -755537431 -621746043 -373329200 -1953160495 1171159464 632783045 -1991178133 -1243889331 -432334934 -1591808467 -1455690508 1423711058 -1576801939 1743090070 431072362 799914064 2088460986 -579089908 -355209242 -1403763671 -531686624 -1997165721 -881749117 586532819 610575238 943780861 422091355 -897861781 -374996403 2123332732 370604329
REM
CELL 1.54180   50.00000   50.00000   50.00000   90.00000   90.00000   90.00000
LATT -1
SFAC C  
C      1  0.4915230000000  0.5049360000000  0.5921480000000 1.0
C      1  0.4891230000000  0.4847190000000  0.4220110000000 1.0
C      1  0.4702630000000  0.5123060000000  0.5728620000000 1.0
C      1  0.5372330000000  0.5580890000000  0.5014290000000 1.0
C      1  0.5178300000000  0.4956700000000  0.5863320000000 1.0
C      1  0.4713610000000  0.4340320000000  0.4747850000000 1.0
C      1  0.5563670000000  0.4831060000000  0.5555360000000 1.0
C      1  0.5271820000000  0.5171870000000  0.5419240000000 1.0
C      1  0.5026340000000  0.4389930000000  0.4363550000000 1.0
C      1  0.4207560000000  0.4615990000000  0.4553130000000 1.0
C      1  0.5199340000000  0.5429450000000  0.5491470000000 1.0
C      1  0.4742000000000  0.4682310000000  0.5074220000000 1.0
C      1  0.4596710000000  0.4765830000000  0.6159900000000 1.0
C      1  0.4531740000000  0.5346330000000  0.5306090000000 1.0
C      1  0.5211190000000  0.5978220000000  0.4823460000000 1.0
C      1  0.4666370000000  0.5353420000000  0.5560360000000 1.0
C      1  0.4563960000000  0.4246760000000  0.5681820000000 1.0
C      1  0.4891270000000  0.4794280000000  0.5271340000000 1.0
C      1  0.5225570000000  0.4376500000000  0.5459040000000 1.0
C      1  0.5289900000000  0.4587140000000  0.5000490000000 1.0
C      1  0.4455440000000  0.4742050000000  0.4627860000000 1.0
C      1  0.5184420000000  0.4393900000000  0.4821990000000 1.0
C      1  0.5595660000000  0.5640000000000  0.5191380000000 1.0
C      1  0.5085000000000  0.6014830000000  0.4206330000000 1.0
C      1  0.4774120000000  0.5320930000000  0.4219880000000 1.0
C      1  0.5661410000000  0.5888650000000  0.4643210000000 1.0
C      1  0.5009930000000  0.4201380000000  0.5432630000000 1.0
C      1  0.4553180000000  0.4155390000000  0.4889320000000 1.0
C      1  0.5117210000000  0.5081590000000  0.4562120000000 1.0
C      1  0.4930930000000  0.5798570000000  0.4159880000000 1.0
C      1  0.5887800000000  0.4543570000000  0.5299610000000 1.0
C      1  0.4354440000000  0.4928010000000  0.5160240000000 1.0
C      1  0.4517670000000  0.4973050000000  0.4475970000000 1.0
C      1  0.6023440000000  0.4372440000000  0.5464870000000 1.0
C      1  0.5357010000000  0.4764900000000  0.5751170000000 1.0
C      1  0.5260440000000  0.4499780000000  0.5715100000000 1.0
C      1  0.5389490000000  0.4498620000000  0.5255290000000 1.0
C      1  0.5120030000000  0.5860840000000  0.5308320000000 1.0
C      1  0.4491520000000  0.4926900000000  0.5730590000000 1.0
C      1  0.5146170000000  0.4915300000000  0.4336180000000 1.0
C      1  0.4555240000000  0.5128090000000  0.5124250000000 1.0
C      1  0.6003590000000  0.4638560000000  0.5070330000000 1.0
C      1  0.5767930000000  0.5226810000000  0.5321500000000 1.0
C      1  0.5377440000000  0.5355510000000  0.4838350000000 1.0
C      1  0.3979380000000  0.4679740000000  0.4704880000000 1.0
C      1  0.5938980000000  0.5533430000000  0.4916970000000 1.0
C      1  0.5850890000000  0.5717080000000  0.4733840000000 1.0
C      1  0.5013450000000  0.4988900000000  0.4814340000000 1.0
C      1  0.4447720000000  0.4445500000000  0.5816500000000 1.0
C      1  0.5587330000000  0.5869140000000  0.5358870000000 1.0
C      1  0.5175170000000  0.5790390000000  0.5029570000000 1.0
C      1  0.4697370000000  0.5051380000000  0.4273580000000 1.0
C      1  0.5625280000000  0.4622290000000  0.5366260000000 1.0
C      1  0.4784690000000  0.5608240000000  0.5616770000000 1.0
C      1  0.5443080000000  0.5089660000000  0.4940710000000 1.0
C      1  0.5459150000000  0.5526510000000  0.4187220000000 1.0
C      1  0.4676020000000  0.5787810000000  0.5790210000000 1.0
C      1  0.4368070000000  0.5555900000000  0.5236400000000 1.0
C      1  0.4967870000000  0.5528750000000  0.4233410000000 1.0
C      1  0.4373330000000  0.4220010000000  0.5082280000000 1.0
C      1  0.5255900000000  0.4867910000000  0.4940300000000 1.0
C      1  0.5291490000000  0.6082310000000  0.4364790000000 1.0
C      1  0.4470620000000  0.4707110000000  0.5911150000000 1.0
C      1  0.3961830000000  0.4729470000000  0.4968800000000 1.0
C      1  0.4261760000000  0.4437670000000  0.5196810000000 1.0
C      1  0.5026280000000  0.5650390000000  0.5477520000000 1.0
C      1  0.4636550000000  0.4611110000000  0.4814820000000 1.0
C      1  0.4844430000000  0.4564320000000  0.4222210000000 1.0
C      1  0.5231530000000  0.5477230000000  0.4341320000000 1.0
C      1  0.5400930000000  0.6002680000000  0.4612070000000 1.0
C      1  0.5547850000000  0.5090790000000  0.5443390000000 1.0
C      1  0.5350800000000  0.5993900000000  0.5415780000000 1.0
C      1  0.5067060000000  0.4978740000000  0.5363360000000 1.0
C      1  0.4196650000000  0.4436370000000  0.4340620000000 1.0
C      1  0.5354880000000  0.4727330000000  0.4294260000000 1.0
C      1  0.5249180000000  0.5332610000000  0.4581440000000 1.0
C      1  0.4266150000000  0.4081220000000  0.3954050000000 1.0
C      1  0.4779460000000  0.5106000000000  0.4939730000000 1.0
C      1  0.5810780000000  0.5457560000000  0.5162310000000 1.0
C      1  0.4766950000000  0.4156390000000  0.5534210000000 1.0
C      1  0.4312980000000  0.3907250000000  0.3765620000000 1.0
C      1  0.4803980000000  0.4943220000000  0.6164720000000 1.0
C      1  0.4221740000000  0.4258390000000  0.4146110000000 1.0
C      1  0.5297930000000  0.4459750000000  0.4300760000000 1.0
C      1  0.4976100000000  0.4326640000000  0.4639130000000 1.0
C      1  0.5667910000000  0.5557430000000  0.4034340000000 1.0
C      1  0.4180180000000  0.4705200000000  0.5147020000000 1.0
END
