TITL C-627108-131-2087 4548.96751369122 125000 -1197.30018301519 0 0 193 (C1) n - 1
REM
REM in /home/nfs/bkarasulu/CARBON/AIRSS/Generating-Clusters/LCBOP/Only-C1/SD-CG/FIRE-CG
REM
REM
REM
REM
REM
REM ./C.cell (11c1c37f851c82e70ff6c80c92926a4b)
REM AIRSS Version 0.9.1 bugfix July 2018 build 013d7b7c2542+ Fri, 06 Jul 2018 19:26:36 +0100
REM compiler GCC version 9.2.1 20190827 (Red Hat 9.2.1-1)
REM options -cpp -mtune=generic -march=x86-64 -g -O0 -fpre-include=/usr/include/finclude/math-vector-fortran.h
REM seed -1622065722 -1823740610 -1224731594 1819384303 1683973479 1129601581 1643912228 2054760752 -1696416101 49622102 -394999450 -1228233021 -1644660985 969856435 -1138600116 1222537159 -1287845208 -2093457950 -240395595 -103200717 -1691674639 1157476202 -414646509 -1893104686 -1194565826 -538774380 195677051 -1338743573 -2099773423 -279999741 -1423728721 -1531627957 -155372671
REM
CELL 1.54180   50.00000   50.00000   50.00000   90.00000   90.00000   90.00000
LATT -1
SFAC C  
C      1  0.4877940000000  0.5835990000000  0.4049820000000 1.0
C      1  0.5951920000000  0.5990700000000  0.5254810000000 1.0
C      1  0.5388360000000  0.6067480000000  0.4997070000000 1.0
C      1  0.4850830000000  0.4765020000000  0.4596360000000 1.0
C      1  0.4258970000000  0.5610840000000  0.4425920000000 1.0
C      1  0.4748620000000  0.4658050000000  0.5766690000000 1.0
C      1  0.6067410000000  0.4987930000000  0.4943040000000 1.0
C      1  0.4464540000000  0.6464310000000  0.4384590000000 1.0
C      1  0.4335130000000  0.5325590000000  0.5171620000000 1.0
C      1  0.4248150000000  0.5404740000000  0.5433040000000 1.0
C      1  0.4574780000000  0.3876160000000  0.5199280000000 1.0
C      1  0.5378370000000  0.5192310000000  0.6327580000000 1.0
C      1  0.5659060000000  0.4811740000000  0.4783860000000 1.0
C      1  0.5151120000000  0.3610520000000  0.5145960000000 1.0
C      1  0.4017530000000  0.5667580000000  0.4567550000000 1.0
C      1  0.4238940000000  0.4438080000000  0.4686920000000 1.0
C      1  0.4036800000000  0.4588840000000  0.4815180000000 1.0
C      1  0.4740970000000  0.5594160000000  0.4446750000000 1.0
C      1  0.5993920000000  0.4993270000000  0.5989670000000 1.0
C      1  0.4110250000000  0.4715520000000  0.3757990000000 1.0
C      1  0.5344370000000  0.5279570000000  0.3574060000000 1.0
C      1  0.4313350000000  0.5858280000000  0.5591250000000 1.0
C      1  0.3706070000000  0.4933810000000  0.4811640000000 1.0
C      1  0.6190900000000  0.5101880000000  0.5406610000000 1.0
C      1  0.6148140000000  0.4812090000000  0.4714220000000 1.0
C      1  0.4284620000000  0.4328830000000  0.5574060000000 1.0
C      1  0.4973940000000  0.4531020000000  0.6187410000000 1.0
C      1  0.6189360000000  0.5166680000000  0.5125000000000 1.0
C      1  0.4327830000000  0.6540040000000  0.4175950000000 1.0
C      1  0.5088920000000  0.4604610000000  0.5386800000000 1.0
C      1  0.3763150000000  0.5410530000000  0.4899380000000 1.0
C      1  0.4781100000000  0.5303090000000  0.4487730000000 1.0
C      1  0.4990190000000  0.6090320000000  0.4711860000000 1.0
C      1  0.5395840000000  0.4373420000000  0.5940650000000 1.0
C      1  0.4595020000000  0.4813020000000  0.4490700000000 1.0
C      1  0.4613630000000  0.3805150000000  0.4746180000000 1.0
C      1  0.4922950000000  0.5789990000000  0.4328800000000 1.0
C      1  0.5637210000000  0.4475170000000  0.4313040000000 1.0
C      1  0.4884800000000  0.5495200000000  0.3705530000000 1.0
C      1  0.6169710000000  0.5566580000000  0.5661190000000 1.0
C      1  0.4432720000000  0.5608140000000  0.5539080000000 1.0
C      1  0.4959230000000  0.6067370000000  0.3928470000000 1.0
C      1  0.4801310000000  0.4553810000000  0.5485810000000 1.0
C      1  0.5920900000000  0.4854280000000  0.5749090000000 1.0
C      1  0.5800840000000  0.4894040000000  0.5019870000000 1.0
C      1  0.5902710000000  0.5661450000000  0.6054660000000 1.0
C      1  0.4750020000000  0.4246620000000  0.5457010000000 1.0
C      1  0.4660080000000  0.4144390000000  0.5196250000000 1.0
C      1  0.4756460000000  0.4297960000000  0.4976110000000 1.0
C      1  0.3862470000000  0.4742640000000  0.4650210000000 1.0
C      1  0.5782740000000  0.4552680000000  0.4737480000000 1.0
C      1  0.4737890000000  0.5634190000000  0.3900790000000 1.0
C      1  0.5841450000000  0.4687150000000  0.4250620000000 1.0
C      1  0.3935970000000  0.4738360000000  0.5535690000000 1.0
C      1  0.4705430000000  0.4217580000000  0.5920870000000 1.0
C      1  0.6099580000000  0.4842150000000  0.5506740000000 1.0
C      1  0.4081000000000  0.4666920000000  0.5087580000000 1.0
C      1  0.4416500000000  0.4595340000000  0.4533680000000 1.0
C      1  0.5974840000000  0.5726740000000  0.5781970000000 1.0
C      1  0.5413750000000  0.4192570000000  0.5710780000000 1.0
C      1  0.5007330000000  0.5519520000000  0.4858810000000 1.0
C      1  0.4984870000000  0.4111000000000  0.5943710000000 1.0
C      1  0.5720600000000  0.5806800000000  0.5648210000000 1.0
C      1  0.4537580000000  0.4047270000000  0.4338500000000 1.0
C      1  0.6046520000000  0.4799900000000  0.4434890000000 1.0
C      1  0.6100030000000  0.4449320000000  0.5087050000000 1.0
C      1  0.5404710000000  0.5082520000000  0.4133540000000 1.0
C      1  0.4336950000000  0.4851340000000  0.5775980000000 1.0
C      1  0.5695550000000  0.4745860000000  0.5250330000000 1.0
C      1  0.5536020000000  0.3978070000000  0.5231750000000 1.0
C      1  0.4766850000000  0.6220850000000  0.5530980000000 1.0
C      1  0.4133170000000  0.5998170000000  0.5448550000000 1.0
C      1  0.3877550000000  0.4781400000000  0.5255330000000 1.0
C      1  0.5491840000000  0.4240770000000  0.5415900000000 1.0
C      1  0.5630120000000  0.5554610000000  0.6066860000000 1.0
C      1  0.5795340000000  0.4841680000000  0.4014510000000 1.0
C      1  0.4543360000000  0.5512600000000  0.5101400000000 1.0
C      1  0.4172630000000  0.4909660000000  0.4193440000000 1.0
C      1  0.5031590000000  0.4142950000000  0.5456270000000 1.0
C      1  0.4855160000000  0.3929270000000  0.4644770000000 1.0
C      1  0.4200640000000  0.4610490000000  0.5631570000000 1.0
C      1  0.5997200000000  0.5921050000000  0.4986280000000 1.0
C      1  0.5516610000000  0.5680440000000  0.5824470000000 1.0
C      1  0.4182800000000  0.4133400000000  0.5059900000000 1.0
C      1  0.5542880000000  0.6084230000000  0.4755340000000 1.0
C      1  0.4263050000000  0.4166890000000  0.4778790000000 1.0
C      1  0.4118560000000  0.5005130000000  0.5893380000000 1.0
C      1  0.5605410000000  0.4399380000000  0.4592550000000 1.0
C      1  0.6063670000000  0.4548540000000  0.4819760000000 1.0
C      1  0.5105490000000  0.5965010000000  0.4480450000000 1.0
C      1  0.3694020000000  0.5260110000000  0.5140890000000 1.0
C      1  0.4842690000000  0.5815820000000  0.5267990000000 1.0
C      1  0.5218080000000  0.4332840000000  0.5295630000000 1.0
C      1  0.6235120000000  0.5321550000000  0.5577360000000 1.0
C      1  0.4315120000000  0.5443210000000  0.4183290000000 1.0
C      1  0.5152970000000  0.4308480000000  0.6100930000000 1.0
C      1  0.4408840000000  0.3979130000000  0.4610400000000 1.0
C      1  0.5605650000000  0.5299590000000  0.6193930000000 1.0
C      1  0.5215970000000  0.4876530000000  0.4154060000000 1.0
C      1  0.5102190000000  0.5390730000000  0.3591610000000 1.0
C      1  0.5296420000000  0.4122080000000  0.4258020000000 1.0
C      1  0.4541050000000  0.4210320000000  0.5677530000000 1.0
C      1  0.5836380000000  0.5132880000000  0.6160410000000 1.0
C      1  0.5375450000000  0.4843240000000  0.4743720000000 1.0
C      1  0.5363490000000  0.3756240000000  0.5220450000000 1.0
C      1  0.4499030000000  0.5671040000000  0.4578220000000 1.0
C      1  0.5130920000000  0.5116150000000  0.5170780000000 1.0
C      1  0.5395900000000  0.5507420000000  0.5273460000000 1.0
C      1  0.4745530000000  0.4579620000000  0.5015980000000 1.0
C      1  0.4180350000000  0.4201430000000  0.5327700000000 1.0
C      1  0.5317400000000  0.5212060000000  0.4963410000000 1.0
C      1  0.5015930000000  0.4069770000000  0.4183290000000 1.0
C      1  0.5465500000000  0.3976590000000  0.4477430000000 1.0
C      1  0.4655910000000  0.3694520000000  0.5002290000000 1.0
C      1  0.5127130000000  0.5984730000000  0.4939690000000 1.0
C      1  0.5165220000000  0.4996290000000  0.5721670000000 1.0
C      1  0.4906070000000  0.4182930000000  0.4762270000000 1.0
C      1  0.4475650000000  0.5559830000000  0.3978310000000 1.0
C      1  0.5712000000000  0.4049550000000  0.5002280000000 1.0
C      1  0.4756180000000  0.6087880000000  0.5292650000000 1.0
C      1  0.3899710000000  0.5869610000000  0.5004000000000 1.0
C      1  0.4820280000000  0.5087260000000  0.5589350000000 1.0
C      1  0.5583080000000  0.5761860000000  0.4422560000000 1.0
C      1  0.5088650000000  0.4795350000000  0.6200840000000 1.0
C      1  0.3710430000000  0.4966890000000  0.5110410000000 1.0
C      1  0.4221730000000  0.4694950000000  0.4008610000000 1.0
C      1  0.5148340000000  0.5361550000000  0.5362380000000 1.0
C      1  0.4377410000000  0.4461810000000  0.4065410000000 1.0
C      1  0.5695790000000  0.4446360000000  0.5301690000000 1.0
C      1  0.5499570000000  0.5420340000000  0.5010790000000 1.0
C      1  0.4756980000000  0.6236170000000  0.4777640000000 1.0
C      1  0.5633180000000  0.4817460000000  0.5770260000000 1.0
C      1  0.5446800000000  0.4651380000000  0.5913150000000 1.0
C      1  0.4556390000000  0.4251340000000  0.4125320000000 1.0
C      1  0.5143620000000  0.4058790000000  0.5706100000000 1.0
C      1  0.5180840000000  0.4613060000000  0.4241080000000 1.0
C      1  0.4827250000000  0.3944190000000  0.4361630000000 1.0
C      1  0.4684150000000  0.6220910000000  0.5051940000000 1.0
C      1  0.5714320000000  0.5960490000000  0.5408040000000 1.0
C      1  0.4844450000000  0.4810720000000  0.4875540000000 1.0
C      1  0.5488570000000  0.6050260000000  0.5261370000000 1.0
C      1  0.6163240000000  0.4614590000000  0.5325830000000 1.0
C      1  0.3998490000000  0.5378160000000  0.5536980000000 1.0
C      1  0.5399340000000  0.5968210000000  0.4508240000000 1.0
C      1  0.4292610000000  0.5149820000000  0.4963540000000 1.0
C      1  0.5006340000000  0.5751100000000  0.5038130000000 1.0
C      1  0.5021200000000  0.4573810000000  0.4473810000000 1.0
C      1  0.5448030000000  0.4992700000000  0.5617380000000 1.0
C      1  0.5846190000000  0.5804920000000  0.4547610000000 1.0
C      1  0.5549880000000  0.5148850000000  0.3686280000000 1.0
C      1  0.5829260000000  0.6018220000000  0.4760580000000 1.0
C      1  0.4900480000000  0.3562490000000  0.5060800000000 1.0
C      1  0.4621530000000  0.4689550000000  0.5274040000000 1.0
C      1  0.4832790000000  0.4236220000000  0.4022190000000 1.0
C      1  0.5355640000000  0.4334360000000  0.4734500000000 1.0
C      1  0.3992680000000  0.4890880000000  0.4423260000000 1.0
C      1  0.4508960000000  0.5659620000000  0.4861760000000 1.0
C      1  0.4349260000000  0.5151850000000  0.4218850000000 1.0
C      1  0.5911360000000  0.5570130000000  0.4717380000000 1.0
C      1  0.4135360000000  0.5175100000000  0.6104000000000 1.0
C      1  0.5616440000000  0.3965380000000  0.4722750000000 1.0
C      1  0.5605670000000  0.5033750000000  0.3935580000000 1.0
C      1  0.4031180000000  0.5148780000000  0.4563170000000 1.0
C      1  0.5012690000000  0.5285900000000  0.4659150000000 1.0
C      1  0.4886200000000  0.5377440000000  0.5496010000000 1.0
C      1  0.6223460000000  0.5438340000000  0.5053170000000 1.0
C      1  0.4622680000000  0.4918650000000  0.5763890000000 1.0
C      1  0.5649640000000  0.5453160000000  0.4764680000000 1.0
C      1  0.5381370000000  0.4404090000000  0.4199170000000 1.0
C      1  0.5091390000000  0.4344410000000  0.4625530000000 1.0
C      1  0.4606310000000  0.6372990000000  0.4588910000000 1.0
C      1  0.5202670000000  0.4819380000000  0.5942420000000 1.0
C      1  0.5868930000000  0.4277040000000  0.5124460000000 1.0
C      1  0.3790760000000  0.5201140000000  0.4706840000000 1.0
C      1  0.4337050000000  0.4673970000000  0.5202620000000 1.0
C      1  0.6082910000000  0.5645600000000  0.4932100000000 1.0
C      1  0.4294870000000  0.5157260000000  0.4684710000000 1.0
C      1  0.3986110000000  0.5991000000000  0.5225300000000 1.0
C      1  0.3881610000000  0.4929260000000  0.5748020000000 1.0
C      1  0.5481260000000  0.4889560000000  0.5361590000000 1.0
C      1  0.4523810000000  0.5107530000000  0.4474580000000 1.0
C      1  0.5226000000000  0.4834640000000  0.5237760000000 1.0
C      1  0.5302400000000  0.4414690000000  0.5007560000000 1.0
C      1  0.4716670000000  0.4975770000000  0.5304710000000 1.0
C      1  0.4688210000000  0.5583270000000  0.5371080000000 1.0
C      1  0.3878880000000  0.5658660000000  0.4820330000000 1.0
C      1  0.5241130000000  0.5103280000000  0.4713560000000 1.0
C      1  0.4860820000000  0.5037820000000  0.5062820000000 1.0
C      1  0.5271610000000  0.4699030000000  0.4974940000000 1.0
C      1  0.4749230000000  0.4496690000000  0.6001470000000 1.0
C      1  0.5188140000000  0.5001330000000  0.6367010000000 1.0
C      1  0.5517570000000  0.5486360000000  0.4495510000000 1.0
C      1  0.5431320000000  0.5299330000000  0.4307840000000 1.0
END
