TITL C-627112-676-86 5904.11216023444 125000 -1118.31904864777 0 0 183 (C1) n - 1
REM
REM in /home/nfs/bkarasulu/CARBON/AIRSS/Generating-Clusters/LCBOP/Only-C1/SD-CG/FIRE-CG
REM
REM
REM
REM
REM
REM ./C.cell (11c1c37f851c82e70ff6c80c92926a4b)
REM AIRSS Version 0.9.1 bugfix July 2018 build 013d7b7c2542+ Fri, 06 Jul 2018 19:26:36 +0100
REM compiler GCC version 9.2.1 20190827 (Red Hat 9.2.1-1)
REM options -cpp -mtune=generic -march=x86-64 -g -O0 -fpre-include=/usr/include/finclude/math-vector-fortran.h
REM seed -525620250 40670993 -492614845 2028951180 -435860285 266909048 320852533 31536494 178455314 1592712260 -998562617 -1309551062 1278302608 2051309862 346375868 1088657411 -94380777 -660470995 -1512958622 142906673 249814545 -1433646322 -2048842348 1958527587 -1251981978 -1768316520 1499620240 1770292155 -1204542054 -439591257 -1727498387 -240220931 1034776142
REM
CELL 1.54180   50.00000   50.00000   50.00000   90.00000   90.00000   90.00000
LATT -1
SFAC C  
C      1  0.5634440000000  0.5209260000000  0.5798930000000 1.0
C      1  0.5623910000000  0.4378530000000  0.4697420000000 1.0
C      1  0.4477330000000  0.5049450000000  0.4755690000000 1.0
C      1  0.5295030000000  0.5429460000000  0.6162380000000 1.0
C      1  0.4572570000000  0.4307650000000  0.4195280000000 1.0
C      1  0.4433990000000  0.4002960000000  0.4540760000000 1.0
C      1  0.5133100000000  0.5779940000000  0.4833010000000 1.0
C      1  0.4896030000000  0.4829080000000  0.4900580000000 1.0
C      1  0.4818520000000  0.5302990000000  0.4947500000000 1.0
C      1  0.3908340000000  0.5080230000000  0.3890450000000 1.0
C      1  0.4334660000000  0.4705900000000  0.5118570000000 1.0
C      1  0.5880090000000  0.4725750000000  0.5893010000000 1.0
C      1  0.3943820000000  0.5043680000000  0.4524720000000 1.0
C      1  0.4170340000000  0.4621560000000  0.4351070000000 1.0
C      1  0.5635340000000  0.4544670000000  0.4927330000000 1.0
C      1  0.4871700000000  0.5724640000000  0.5739670000000 1.0
C      1  0.5379110000000  0.5315840000000  0.4770430000000 1.0
C      1  0.5797030000000  0.4389620000000  0.4460240000000 1.0
C      1  0.3833400000000  0.4509520000000  0.5000590000000 1.0
C      1  0.5647750000000  0.4846130000000  0.4454940000000 1.0
C      1  0.4646410000000  0.3862980000000  0.5594580000000 1.0
C      1  0.5063620000000  0.4959490000000  0.5357850000000 1.0
C      1  0.6545100000000  0.4735350000000  0.5273480000000 1.0
C      1  0.4628450000000  0.4530870000000  0.5857230000000 1.0
C      1  0.4181430000000  0.5278460000000  0.5809440000000 1.0
C      1  0.4541340000000  0.4145630000000  0.4756040000000 1.0
C      1  0.5434720000000  0.5037980000000  0.5746210000000 1.0
C      1  0.4135310000000  0.4808910000000  0.5815180000000 1.0
C      1  0.5171200000000  0.3881520000000  0.5504000000000 1.0
C      1  0.4448610000000  0.4191230000000  0.5023720000000 1.0
C      1  0.5117900000000  0.5214570000000  0.6109720000000 1.0
C      1  0.4951140000000  0.5969130000000  0.4709970000000 1.0
C      1  0.5126020000000  0.4869340000000  0.4736780000000 1.0
C      1  0.5593100000000  0.5042560000000  0.3771500000000 1.0
C      1  0.4229620000000  0.4104950000000  0.5430000000000 1.0
C      1  0.4046230000000  0.5285270000000  0.4630130000000 1.0
C      1  0.4510670000000  0.5550840000000  0.4527870000000 1.0
C      1  0.5479430000000  0.4863640000000  0.4223360000000 1.0
C      1  0.5361720000000  0.4243220000000  0.4202600000000 1.0
C      1  0.4412730000000  0.5415890000000  0.5708720000000 1.0
C      1  0.5509490000000  0.4767560000000  0.5321240000000 1.0
C      1  0.5657230000000  0.6080310000000  0.4878110000000 1.0
C      1  0.4565910000000  0.4533030000000  0.6132890000000 1.0
C      1  0.4736210000000  0.5524560000000  0.5133730000000 1.0
C      1  0.4229480000000  0.5038860000000  0.5957560000000 1.0
C      1  0.5476630000000  0.5632430000000  0.3948230000000 1.0
C      1  0.3961950000000  0.5178740000000  0.5331860000000 1.0
C      1  0.5965690000000  0.5022590000000  0.4926990000000 1.0
C      1  0.5066330000000  0.4443210000000  0.5486450000000 1.0
C      1  0.5297700000000  0.4033020000000  0.5300270000000 1.0
C      1  0.5307970000000  0.5046070000000  0.4886440000000 1.0
C      1  0.5573520000000  0.4048860000000  0.5954090000000 1.0
C      1  0.4504240000000  0.5655490000000  0.5013500000000 1.0
C      1  0.4969320000000  0.5225030000000  0.5420390000000 1.0
C      1  0.5831050000000  0.4769400000000  0.4989750000000 1.0
C      1  0.4430090000000  0.5374220000000  0.5425330000000 1.0
C      1  0.4436750000000  0.5776450000000  0.4375220000000 1.0
C      1  0.6111890000000  0.4243560000000  0.5082590000000 1.0
C      1  0.4704990000000  0.5348720000000  0.5369000000000 1.0
C      1  0.4018940000000  0.5754630000000  0.4802850000000 1.0
C      1  0.5443060000000  0.4761450000000  0.6155240000000 1.0
C      1  0.4896410000000  0.4245870000000  0.5610720000000 1.0
C      1  0.5471010000000  0.5601320000000  0.6050230000000 1.0
C      1  0.4412470000000  0.5514100000000  0.4789420000000 1.0
C      1  0.3808620000000  0.4971720000000  0.5193080000000 1.0
C      1  0.5802950000000  0.5610110000000  0.5454230000000 1.0
C      1  0.4918150000000  0.5387990000000  0.4696360000000 1.0
C      1  0.4881300000000  0.5767160000000  0.5237110000000 1.0
C      1  0.5139810000000  0.5779450000000  0.5119040000000 1.0
C      1  0.6298640000000  0.4752090000000  0.5356540000000 1.0
C      1  0.4545140000000  0.4879890000000  0.5210070000000 1.0
C      1  0.4952940000000  0.5151390000000  0.4161430000000 1.0
C      1  0.5061370000000  0.5384460000000  0.4083050000000 1.0
C      1  0.4836530000000  0.4968170000000  0.4357640000000 1.0
C      1  0.4236570000000  0.5960530000000  0.4788010000000 1.0
C      1  0.6032240000000  0.4250460000000  0.5341160000000 1.0
C      1  0.5884250000000  0.5524730000000  0.4738620000000 1.0
C      1  0.3829350000000  0.4631720000000  0.4733510000000 1.0
C      1  0.6062720000000  0.5055450000000  0.4653500000000 1.0
C      1  0.3981230000000  0.4251900000000  0.4983200000000 1.0
C      1  0.6245180000000  0.5266280000000  0.4595350000000 1.0
C      1  0.4793930000000  0.5845650000000  0.5493830000000 1.0
C      1  0.4247580000000  0.4744270000000  0.5566830000000 1.0
C      1  0.5943820000000  0.4319930000000  0.5587400000000 1.0
C      1  0.4865410000000  0.5252940000000  0.5961310000000 1.0
C      1  0.4458190000000  0.5521120000000  0.3932090000000 1.0
C      1  0.4475360000000  0.4989130000000  0.6093900000000 1.0
C      1  0.3773750000000  0.4908060000000  0.4711220000000 1.0
C      1  0.5721550000000  0.4826330000000  0.6112530000000 1.0
C      1  0.5041050000000  0.4764630000000  0.4466670000000 1.0
C      1  0.5633220000000  0.6360280000000  0.4872780000000 1.0
C      1  0.5633480000000  0.5947230000000  0.4623610000000 1.0
C      1  0.4416230000000  0.4553940000000  0.4182210000000 1.0
C      1  0.5821330000000  0.4448440000000  0.5811980000000 1.0
C      1  0.5957780000000  0.5255340000000  0.5135850000000 1.0
C      1  0.5166690000000  0.5510400000000  0.4725510000000 1.0
C      1  0.5221530000000  0.5613950000000  0.4087970000000 1.0
C      1  0.4069560000000  0.4894630000000  0.4310640000000 1.0
C      1  0.5808060000000  0.4784730000000  0.5278920000000 1.0
C      1  0.5408500000000  0.4487960000000  0.6082260000000 1.0
C      1  0.4113740000000  0.4996690000000  0.4049920000000 1.0
C      1  0.5904320000000  0.5329190000000  0.5431170000000 1.0
C      1  0.4714040000000  0.5012650000000  0.5925300000000 1.0
C      1  0.4723590000000  0.5488870000000  0.5841570000000 1.0
C      1  0.5497770000000  0.4123200000000  0.4676940000000 1.0
C      1  0.5578670000000  0.6011730000000  0.5399580000000 1.0
C      1  0.5882080000000  0.5009050000000  0.4440160000000 1.0
C      1  0.3566160000000  0.5308930000000  0.4962010000000 1.0
C      1  0.6125470000000  0.5511470000000  0.4588810000000 1.0
C      1  0.4134770000000  0.4662540000000  0.5320740000000 1.0
C      1  0.5700200000000  0.5961170000000  0.5136000000000 1.0
C      1  0.4387030000000  0.4999900000000  0.3959650000000 1.0
C      1  0.3676760000000  0.5535070000000  0.5064400000000 1.0
C      1  0.5678720000000  0.5668130000000  0.4159690000000 1.0
C      1  0.5191290000000  0.5405140000000  0.5422990000000 1.0
C      1  0.4540570000000  0.4757870000000  0.4003520000000 1.0
C      1  0.5223610000000  0.4756430000000  0.4221700000000 1.0
C      1  0.4716560000000  0.5369140000000  0.4498980000000 1.0
C      1  0.4443700000000  0.4072010000000  0.4280530000000 1.0
C      1  0.4478480000000  0.5256940000000  0.3886750000000 1.0
C      1  0.4422830000000  0.5728950000000  0.4099690000000 1.0
C      1  0.3968440000000  0.5248970000000  0.5611610000000 1.0
C      1  0.5836040000000  0.5169190000000  0.4195120000000 1.0
C      1  0.5537950000000  0.3943160000000  0.4885760000000 1.0
C      1  0.5422340000000  0.5748620000000  0.5813080000000 1.0
C      1  0.4659490000000  0.4325850000000  0.5160390000000 1.0
C      1  0.5637970000000  0.4356800000000  0.4215830000000 1.0
C      1  0.4488000000000  0.4759840000000  0.6259920000000 1.0
C      1  0.4009990000000  0.4479820000000  0.4548850000000 1.0
C      1  0.4452160000000  0.4085430000000  0.5607760000000 1.0
C      1  0.5592990000000  0.6622130000000  0.4872200000000 1.0
C      1  0.5101480000000  0.4337870000000  0.4093560000000 1.0
C      1  0.5356960000000  0.4071720000000  0.4435150000000 1.0
C      1  0.6059490000000  0.4338100000000  0.4562700000000 1.0
C      1  0.4706620000000  0.6067630000000  0.4638250000000 1.0
C      1  0.5231990000000  0.4954590000000  0.6171770000000 1.0
C      1  0.3969430000000  0.5560510000000  0.4591740000000 1.0
C      1  0.3878640000000  0.4693720000000  0.5215560000000 1.0
C      1  0.4433110000000  0.5995880000000  0.4563810000000 1.0
C      1  0.5549820000000  0.6879220000000  0.4872170000000 1.0
C      1  0.5984500000000  0.4909550000000  0.5695770000000 1.0
C      1  0.5266400000000  0.5791580000000  0.4313140000000 1.0
C      1  0.5084400000000  0.4619340000000  0.4004680000000 1.0
C      1  0.5857050000000  0.5450040000000  0.4177880000000 1.0
C      1  0.4732480000000  0.4790970000000  0.5709310000000 1.0
C      1  0.5626150000000  0.5033780000000  0.4041010000000 1.0
C      1  0.5852270000000  0.5722770000000  0.5185820000000 1.0
C      1  0.4683050000000  0.5018090000000  0.4981030000000 1.0
C      1  0.4026940000000  0.4228180000000  0.4691120000000 1.0
C      1  0.4624860000000  0.5090190000000  0.4503350000000 1.0
C      1  0.4264800000000  0.5259210000000  0.4842860000000 1.0
C      1  0.5281270000000  0.4326280000000  0.5312930000000 1.0
C      1  0.5140660000000  0.5796450000000  0.5798820000000 1.0
C      1  0.5517340000000  0.5639180000000  0.3680040000000 1.0
C      1  0.5298440000000  0.5594060000000  0.5262730000000 1.0
C      1  0.5633190000000  0.5404240000000  0.4683710000000 1.0
C      1  0.4390440000000  0.5912830000000  0.5030400000000 1.0
C      1  0.5456530000000  0.4503270000000  0.5168170000000 1.0
C      1  0.5091380000000  0.3821980000000  0.4915600000000 1.0
C      1  0.6037940000000  0.4799570000000  0.5441470000000 1.0
C      1  0.5439210000000  0.4810710000000  0.5603320000000 1.0
C      1  0.4197210000000  0.4163020000000  0.5150890000000 1.0
C      1  0.4841770000000  0.4247580000000  0.4730040000000 1.0
C      1  0.5597560000000  0.4321310000000  0.5946830000000 1.0
C      1  0.4628130000000  0.4305210000000  0.5696520000000 1.0
C      1  0.6143340000000  0.4279430000000  0.4815950000000 1.0
C      1  0.3679760000000  0.5050190000000  0.4946970000000 1.0
C      1  0.4975180000000  0.3978300000000  0.4729950000000 1.0
C      1  0.4904820000000  0.4437310000000  0.4506610000000 1.0
C      1  0.4162150000000  0.5343720000000  0.5171900000000 1.0
C      1  0.5550750000000  0.5824440000000  0.4381160000000 1.0
C      1  0.4920120000000  0.3957290000000  0.5593350000000 1.0
C      1  0.4875110000000  0.4371560000000  0.4999820000000 1.0
C      1  0.4979250000000  0.4728390000000  0.5521720000000 1.0
C      1  0.4818750000000  0.4711600000000  0.3922700000000 1.0
C      1  0.5882460000000  0.5176330000000  0.5670980000000 1.0
C      1  0.3946820000000  0.5618040000000  0.5056370000000 1.0
C      1  0.5306300000000  0.4957130000000  0.5175620000000 1.0
C      1  0.4516950000000  0.4846940000000  0.5500270000000 1.0
C      1  0.5936380000000  0.5521960000000  0.5011960000000 1.0
C      1  0.5608790000000  0.5789200000000  0.5596260000000 1.0
C      1  0.4856870000000  0.4322360000000  0.4255850000000 1.0
C      1  0.5325350000000  0.3891690000000  0.5057320000000 1.0
END
