TITL C-627113-6568-627 -1.01617124178314e-07 125000 -694.874185209858 0 0 114 (C1) n - 1
REM
REM in /home/nfs/bkarasulu/CARBON/AIRSS/Generating-Clusters/LCBOP/Only-C1/SD-CG/FIRE-CG
REM
REM
REM
REM
REM
REM ./C.cell (11c1c37f851c82e70ff6c80c92926a4b)
REM AIRSS Version 0.9.1 bugfix July 2018 build 013d7b7c2542+ Fri, 06 Jul 2018 19:26:36 +0100
REM compiler GCC version 9.2.1 20190827 (Red Hat 9.2.1-1)
REM options -cpp -mtune=generic -march=x86-64 -g -O0 -fpre-include=/usr/include/finclude/math-vector-fortran.h
REM seed 1002468816 -1380186921 1160679318 -1675123109 -1511132416 -935764706 1628946914 -1364301203 1605372788 -1931801159 -1165136367 229600692 1867872674 -302994041 -332128200 2061006475 -1179453724 -204887481 1579119802 751553874 42553014 -304339656 1790557860 -1760396561 1206500889 2120022670 -2065159770 -298958659 1671409879 -259546082 1052748654 918380014 -464879341
REM
CELL 1.54180   50.00000   50.00000   50.00000   90.00000   90.00000   90.00000
LATT -1
SFAC C  
C      1  0.5738390000000  0.4920670000000  0.5788440000000 1.0
C      1  0.4866500000000  0.3993990000000  0.4828820000000 1.0
C      1  0.5764230000000  0.5691570000000  0.5229090000000 1.0
C      1  0.4296540000000  0.5616180000000  0.5191980000000 1.0
C      1  0.4695660000000  0.5302890000000  0.5619030000000 1.0
C      1  0.4280550000000  0.4343850000000  0.5149140000000 1.0
C      1  0.5020470000000  0.5103650000000  0.5369650000000 1.0
C      1  0.4976660000000  0.5156450000000  0.4167230000000 1.0
C      1  0.4400330000000  0.4362840000000  0.5406990000000 1.0
C      1  0.5299360000000  0.3956200000000  0.5202660000000 1.0
C      1  0.4882730000000  0.5908970000000  0.4889630000000 1.0
C      1  0.5579120000000  0.4115380000000  0.4810550000000 1.0
C      1  0.5871900000000  0.4813350000000  0.5580430000000 1.0
C      1  0.4158880000000  0.5136560000000  0.5504220000000 1.0
C      1  0.5542400000000  0.5286290000000  0.4631650000000 1.0
C      1  0.5135360000000  0.5194620000000  0.4410680000000 1.0
C      1  0.4318950000000  0.5842650000000  0.4299200000000 1.0
C      1  0.4418390000000  0.5122550000000  0.5102660000000 1.0
C      1  0.4332710000000  0.5616040000000  0.5479660000000 1.0
C      1  0.4575390000000  0.4698600000000  0.4671400000000 1.0
C      1  0.5434400000000  0.5031310000000  0.5065100000000 1.0
C      1  0.4903190000000  0.5962200000000  0.5178950000000 1.0
C      1  0.4298870000000  0.5834070000000  0.4787340000000 1.0
C      1  0.5764040000000  0.4390870000000  0.5365350000000 1.0
C      1  0.5295510000000  0.4739640000000  0.5770280000000 1.0
C      1  0.5126390000000  0.4012300000000  0.4730090000000 1.0
C      1  0.5364930000000  0.5622470000000  0.4329950000000 1.0
C      1  0.5383550000000  0.5891900000000  0.4409270000000 1.0
C      1  0.5859690000000  0.5076020000000  0.4953800000000 1.0
C      1  0.4765190000000  0.5791460000000  0.5715570000000 1.0
C      1  0.5826150000000  0.4146860000000  0.4934740000000 1.0
C      1  0.4719160000000  0.4132640000000  0.5023200000000 1.0
C      1  0.5358350000000  0.5362730000000  0.4436640000000 1.0
C      1  0.5343030000000  0.3979510000000  0.4922470000000 1.0
C      1  0.5229640000000  0.4283640000000  0.5876660000000 1.0
C      1  0.4332100000000  0.5381480000000  0.5045550000000 1.0
C      1  0.5093080000000  0.4959560000000  0.4004100000000 1.0
C      1  0.5175120000000  0.5149210000000  0.5108000000000 1.0
C      1  0.4482300000000  0.4272080000000  0.4943750000000 1.0
C      1  0.4793680000000  0.4655150000000  0.4849140000000 1.0
C      1  0.5263740000000  0.4765820000000  0.4084090000000 1.0
C      1  0.5216190000000  0.4185700000000  0.4517400000000 1.0
C      1  0.4949730000000  0.5088280000000  0.4915460000000 1.0
C      1  0.4212650000000  0.5387550000000  0.5598770000000 1.0
C      1  0.4617260000000  0.5940140000000  0.5265150000000 1.0
C      1  0.4981470000000  0.6056550000000  0.4675910000000 1.0
C      1  0.5277310000000  0.4278690000000  0.5580000000000 1.0
C      1  0.5912300000000  0.4270440000000  0.5156540000000 1.0
C      1  0.5312240000000  0.4583100000000  0.4292600000000 1.0
C      1  0.4544020000000  0.5693540000000  0.4199960000000 1.0
C      1  0.4087520000000  0.4528550000000  0.5017550000000 1.0
C      1  0.4528550000000  0.4826220000000  0.6178450000000 1.0
C      1  0.4261660000000  0.5399520000000  0.4434960000000 1.0
C      1  0.4555140000000  0.5806500000000  0.5524950000000 1.0
C      1  0.4737310000000  0.5514870000000  0.4623350000000 1.0
C      1  0.4758500000000  0.5689600000000  0.4391180000000 1.0
C      1  0.5219900000000  0.4514400000000  0.5023160000000 1.0
C      1  0.4399110000000  0.5855930000000  0.5061190000000 1.0
C      1  0.5311940000000  0.4632690000000  0.5254500000000 1.0
C      1  0.5967150000000  0.4713550000000  0.4325340000000 1.0
C      1  0.5547570000000  0.4542130000000  0.4482160000000 1.0
C      1  0.5045030000000  0.4548010000000  0.4826930000000 1.0
C      1  0.4881040000000  0.5495710000000  0.5120310000000 1.0
C      1  0.4838970000000  0.4197290000000  0.5284830000000 1.0
C      1  0.4828010000000  0.4384750000000  0.4251360000000 1.0
C      1  0.5614030000000  0.5965240000000  0.4553160000000 1.0
C      1  0.5866570000000  0.5221400000000  0.5221520000000 1.0
C      1  0.4085660000000  0.4481380000000  0.4439810000000 1.0
C      1  0.4768590000000  0.4674940000000  0.5373510000000 1.0
C      1  0.5398100000000  0.5240040000000  0.5705690000000 1.0
C      1  0.5583590000000  0.5785920000000  0.5036010000000 1.0
C      1  0.4697590000000  0.5225670000000  0.4232050000000 1.0
C      1  0.4685760000000  0.4404900000000  0.5423890000000 1.0
C      1  0.4219790000000  0.4988290000000  0.5266540000000 1.0
C      1  0.4978900000000  0.5114970000000  0.4636940000000 1.0
C      1  0.4291010000000  0.4435140000000  0.4260150000000 1.0
C      1  0.5152560000000  0.6040310000000  0.4470490000000 1.0
C      1  0.5164740000000  0.5851840000000  0.5288660000000 1.0
C      1  0.4800340000000  0.5629080000000  0.4875500000000 1.0
C      1  0.5574730000000  0.4210220000000  0.5496000000000 1.0
C      1  0.4132440000000  0.4504900000000  0.4722050000000 1.0
C      1  0.5793550000000  0.4695120000000  0.4542730000000 1.0
C      1  0.4706190000000  0.5202430000000  0.4546430000000 1.0
C      1  0.5030640000000  0.5735040000000  0.5735190000000 1.0
C      1  0.5458020000000  0.5468420000000  0.5539290000000 1.0
C      1  0.5896490000000  0.4833810000000  0.4784790000000 1.0
C      1  0.4421790000000  0.4459960000000  0.4727050000000 1.0
C      1  0.4621220000000  0.4935340000000  0.5960730000000 1.0
C      1  0.5593780000000  0.5152790000000  0.4866650000000 1.0
C      1  0.5530390000000  0.4806300000000  0.5216490000000 1.0
C      1  0.4719660000000  0.5035350000000  0.5723390000000 1.0
C      1  0.4684460000000  0.5030260000000  0.5048140000000 1.0
C      1  0.4246680000000  0.5134240000000  0.4553810000000 1.0
C      1  0.4068300000000  0.4778150000000  0.5152110000000 1.0
C      1  0.5459280000000  0.4974750000000  0.5784690000000 1.0
C      1  0.4875140000000  0.4893770000000  0.5523400000000 1.0
C      1  0.4232490000000  0.5692560000000  0.4540400000000 1.0
C      1  0.4466430000000  0.5405600000000  0.4199320000000 1.0
C      1  0.5317660000000  0.5701980000000  0.5084870000000 1.0
C      1  0.5669700000000  0.5925030000000  0.4811360000000 1.0
C      1  0.5100310000000  0.4377000000000  0.4336320000000 1.0
C      1  0.5537210000000  0.3951240000000  0.5366590000000 1.0
C      1  0.5753930000000  0.4681440000000  0.5361320000000 1.0
C      1  0.4492850000000  0.4979580000000  0.4598070000000 1.0
C      1  0.5243620000000  0.4543120000000  0.5977960000000 1.0
C      1  0.5709300000000  0.5441880000000  0.5360760000000 1.0
C      1  0.4558590000000  0.4401060000000  0.4216250000000 1.0
C      1  0.4838810000000  0.5350480000000  0.5372660000000 1.0
C      1  0.5238910000000  0.5704070000000  0.5540890000000 1.0
C      1  0.5494230000000  0.4274240000000  0.4587820000000 1.0
C      1  0.5176230000000  0.5452600000000  0.5075220000000 1.0
C      1  0.5105940000000  0.4119610000000  0.5364280000000 1.0
C      1  0.4723800000000  0.4752160000000  0.5106830000000 1.0
C      1  0.5262750000000  0.4578480000000  0.5523090000000 1.0
END
