TITL C-627111-6168-1376 -1.01546851810845e-06 125000 -838.209887513194 0 0 138 (C1) n - 1
REM
REM in /home/nfs/bkarasulu/CARBON/AIRSS/Generating-Clusters/LCBOP/Only-C1/SD-CG/FIRE-CG
REM
REM
REM
REM
REM
REM ./C.cell (11c1c37f851c82e70ff6c80c92926a4b)
REM AIRSS Version 0.9.1 bugfix July 2018 build 013d7b7c2542+ Fri, 06 Jul 2018 19:26:36 +0100
REM compiler GCC version 9.2.1 20190827 (Red Hat 9.2.1-1)
REM options -cpp -mtune=generic -march=x86-64 -g -O0 -fpre-include=/usr/include/finclude/math-vector-fortran.h
REM seed -1778380625 1936879856 -855905878 367183870 -1939191786 -1457195835 2095454237 -946048150 -774827960 -847015305 -1376697696 1933878338 -44912582 -641876526 -732949957 1606326469 685800063 -404392473 909467919 1046099143 1886498106 1420235323 1660658352 -1209478638 2026346135 61727343 -716591520 -758835147 1829505929 -496977391 -1773215247 -1461638631 9389998
REM
CELL 1.54180   50.00000   50.00000   50.00000   90.00000   90.00000   90.00000
LATT -1
SFAC C  
C      1  0.4665900000000  0.4723240000000  0.5266590000000 1.0
C      1  0.6285590000000  0.4777370000000  0.5106530000000 1.0
C      1  0.4933470000000  0.5955690000000  0.4791150000000 1.0
C      1  0.5658890000000  0.4157360000000  0.4588850000000 1.0
C      1  0.4519320000000  0.4455910000000  0.4316020000000 1.0
C      1  0.5086910000000  0.5237420000000  0.4605840000000 1.0
C      1  0.5326270000000  0.4396490000000  0.5922490000000 1.0
C      1  0.5182450000000  0.5710660000000  0.4212110000000 1.0
C      1  0.5385770000000  0.5521180000000  0.4875200000000 1.0
C      1  0.4586020000000  0.5399340000000  0.5190780000000 1.0
C      1  0.4984050000000  0.5215160000000  0.5322250000000 1.0
C      1  0.4116700000000  0.5122330000000  0.5423870000000 1.0
C      1  0.5994950000000  0.5121470000000  0.4632100000000 1.0
C      1  0.5041560000000  0.5996690000000  0.5255760000000 1.0
C      1  0.4646350000000  0.4049230000000  0.4983180000000 1.0
C      1  0.3984010000000  0.5163280000000  0.4981310000000 1.0
C      1  0.4169450000000  0.4719890000000  0.5673280000000 1.0
C      1  0.4847380000000  0.4479940000000  0.4898150000000 1.0
C      1  0.4250090000000  0.5614390000000  0.5516910000000 1.0
C      1  0.4974660000000  0.4040490000000  0.4467650000000 1.0
C      1  0.4535610000000  0.4433180000000  0.5960250000000 1.0
C      1  0.4162600000000  0.5397160000000  0.5359930000000 1.0
C      1  0.5970760000000  0.5170070000000  0.5477980000000 1.0
C      1  0.5103570000000  0.4839180000000  0.5049460000000 1.0
C      1  0.5610770000000  0.6423950000000  0.5433580000000 1.0
C      1  0.3959560000000  0.4720600000000  0.4151930000000 1.0
C      1  0.5276450000000  0.5523160000000  0.5130710000000 1.0
C      1  0.4691170000000  0.4028590000000  0.4486050000000 1.0
C      1  0.4673710000000  0.4906470000000  0.5482350000000 1.0
C      1  0.5257780000000  0.5895010000000  0.4416420000000 1.0
C      1  0.5031190000000  0.5467580000000  0.5225450000000 1.0
C      1  0.4277950000000  0.4787540000000  0.4776450000000 1.0
C      1  0.5338530000000  0.5287720000000  0.4727520000000 1.0
C      1  0.4885570000000  0.5705160000000  0.4162870000000 1.0
C      1  0.4590250000000  0.3953670000000  0.4738600000000 1.0
C      1  0.4518180000000  0.5845950000000  0.4469550000000 1.0
C      1  0.4966640000000  0.4225620000000  0.5311570000000 1.0
C      1  0.5362590000000  0.4431050000000  0.5019380000000 1.0
C      1  0.5309100000000  0.4927870000000  0.4186270000000 1.0
C      1  0.4346090000000  0.5024940000000  0.4196050000000 1.0
C      1  0.4994180000000  0.4724790000000  0.4510650000000 1.0
C      1  0.5172440000000  0.4236610000000  0.4579080000000 1.0
C      1  0.5527740000000  0.5343150000000  0.5536790000000 1.0
C      1  0.5330830000000  0.5331660000000  0.5761360000000 1.0
C      1  0.4521670000000  0.4172360000000  0.4306750000000 1.0
C      1  0.4814300000000  0.4255220000000  0.5075430000000 1.0
C      1  0.4120270000000  0.4878950000000  0.4305390000000 1.0
C      1  0.4794700000000  0.5605200000000  0.5136500000000 1.0
C      1  0.5645510000000  0.4164710000000  0.5294070000000 1.0
C      1  0.4147880000000  0.4515970000000  0.5498190000000 1.0
C      1  0.5529120000000  0.4136000000000  0.5548500000000 1.0
C      1  0.4782530000000  0.5520300000000  0.5762320000000 1.0
C      1  0.4292350000000  0.5552220000000  0.5793880000000 1.0
C      1  0.5804920000000  0.5368700000000  0.5070200000000 1.0
C      1  0.4525200000000  0.5383370000000  0.5839910000000 1.0
C      1  0.5138630000000  0.4793940000000  0.3993900000000 1.0
C      1  0.5760190000000  0.4613510000000  0.4772290000000 1.0
C      1  0.5098030000000  0.5513570000000  0.5774600000000 1.0
C      1  0.5301720000000  0.6083800000000  0.5150580000000 1.0
C      1  0.4615940000000  0.4183020000000  0.5860530000000 1.0
C      1  0.5458220000000  0.6265650000000  0.5293670000000 1.0
C      1  0.6375100000000  0.4945790000000  0.4918220000000 1.0
C      1  0.4493920000000  0.5647120000000  0.4668140000000 1.0
C      1  0.4849880000000  0.5238120000000  0.4752170000000 1.0
C      1  0.5447520000000  0.5193290000000  0.4162070000000 1.0
C      1  0.5097590000000  0.4860830000000  0.5719030000000 1.0
C      1  0.4126670000000  0.5445590000000  0.4323020000000 1.0
C      1  0.5271520000000  0.4815850000000  0.4455240000000 1.0
C      1  0.5300710000000  0.4689620000000  0.4925180000000 1.0
C      1  0.4316870000000  0.5354000000000  0.5025390000000 1.0
C      1  0.6259150000000  0.5080610000000  0.4717490000000 1.0
C      1  0.5755470000000  0.5296570000000  0.5355290000000 1.0
C      1  0.5897080000000  0.4777100000000  0.4264260000000 1.0
C      1  0.5721850000000  0.5210960000000  0.4225750000000 1.0
C      1  0.5796670000000  0.5183370000000  0.4836470000000 1.0
C      1  0.4813120000000  0.4809640000000  0.5722720000000 1.0
C      1  0.4834490000000  0.4082810000000  0.5744620000000 1.0
C      1  0.5568980000000  0.5744110000000  0.4881150000000 1.0
C      1  0.5257260000000  0.4883390000000  0.5953930000000 1.0
C      1  0.4686540000000  0.5879160000000  0.4259770000000 1.0
C      1  0.5813840000000  0.5652790000000  0.4996220000000 1.0
C      1  0.4713980000000  0.5480210000000  0.4708190000000 1.0
C      1  0.4866740000000  0.5873130000000  0.5055670000000 1.0
C      1  0.5809530000000  0.4582450000000  0.5055170000000 1.0
C      1  0.4308780000000  0.4457240000000  0.6110160000000 1.0
C      1  0.5606910000000  0.4421840000000  0.5174860000000 1.0
C      1  0.4977260000000  0.5916510000000  0.5523650000000 1.0
C      1  0.5832400000000  0.4380970000000  0.4627960000000 1.0
C      1  0.4725910000000  0.5774870000000  0.5590360000000 1.0
C      1  0.4736440000000  0.4634850000000  0.5946310000000 1.0
C      1  0.5398370000000  0.5979030000000  0.4892230000000 1.0
C      1  0.5042990000000  0.5294800000000  0.4332710000000 1.0
C      1  0.5530260000000  0.5208530000000  0.6193680000000 1.0
C      1  0.4709320000000  0.5019540000000  0.4868630000000 1.0
C      1  0.5533150000000  0.4405080000000  0.4198640000000 1.0
C      1  0.4147000000000  0.4504680000000  0.5228150000000 1.0
C      1  0.5221850000000  0.4619700000000  0.6070160000000 1.0
C      1  0.4604430000000  0.4904240000000  0.4218000000000 1.0
C      1  0.4264600000000  0.5532040000000  0.4785970000000 1.0
C      1  0.5042930000000  0.4170840000000  0.5578230000000 1.0
C      1  0.4221620000000  0.4999480000000  0.5664510000000 1.0
C      1  0.6033830000000  0.5809120000000  0.5033710000000 1.0
C      1  0.4400060000000  0.5119470000000  0.5868210000000 1.0
C      1  0.4075440000000  0.4921670000000  0.4584210000000 1.0
C      1  0.4466360000000  0.5800330000000  0.5466940000000 1.0
C      1  0.5537840000000  0.5089740000000  0.4760040000000 1.0
C      1  0.6055890000000  0.4653100000000  0.5164120000000 1.0
C      1  0.5552920000000  0.4033020000000  0.4830090000000 1.0
C      1  0.4719600000000  0.4838680000000  0.4482460000000 1.0
C      1  0.4398250000000  0.5014910000000  0.6123800000000 1.0
C      1  0.5277690000000  0.5423370000000  0.4205800000000 1.0
C      1  0.5249340000000  0.4866210000000  0.5487860000000 1.0
C      1  0.4075430000000  0.5414860000000  0.4598950000000 1.0
C      1  0.4825700000000  0.5423490000000  0.4200620000000 1.0
C      1  0.4284310000000  0.5297860000000  0.4159640000000 1.0
C      1  0.4909060000000  0.4644280000000  0.3968870000000 1.0
C      1  0.4649000000000  0.4636340000000  0.4093310000000 1.0
C      1  0.5169150000000  0.5789780000000  0.5695620000000 1.0
C      1  0.4442490000000  0.5047340000000  0.4874730000000 1.0
C      1  0.5471690000000  0.4802610000000  0.4703640000000 1.0
C      1  0.4701030000000  0.5175830000000  0.5369740000000 1.0
C      1  0.5900350000000  0.5042760000000  0.4367610000000 1.0
C      1  0.5196960000000  0.5978150000000  0.4681300000000 1.0
C      1  0.5736650000000  0.4581740000000  0.4168090000000 1.0
C      1  0.5306230000000  0.4193070000000  0.4859850000000 1.0
C      1  0.5153940000000  0.5000230000000  0.5268060000000 1.0
C      1  0.5302440000000  0.4228050000000  0.5692040000000 1.0
C      1  0.4035920000000  0.4974500000000  0.5179320000000 1.0
C      1  0.4363390000000  0.4038030000000  0.4128560000000 1.0
C      1  0.5668920000000  0.3969310000000  0.5083430000000 1.0
C      1  0.4817480000000  0.4763520000000  0.5010130000000 1.0
C      1  0.4989890000000  0.4473270000000  0.4646820000000 1.0
C      1  0.5436950000000  0.4241060000000  0.4408830000000 1.0
C      1  0.4138150000000  0.4725070000000  0.5054180000000 1.0
C      1  0.3973460000000  0.5166240000000  0.4703280000000 1.0
C      1  0.4945940000000  0.4596580000000  0.6142160000000 1.0
C      1  0.4498330000000  0.4640680000000  0.4569930000000 1.0
C      1  0.5377010000000  0.5140320000000  0.5977660000000 1.0
END
