TITL C-627113-6568-1535 12129.4334752497 125000 -996.884411231324 0 0 164 (C1) n - 1
REM
REM in /home/nfs/bkarasulu/CARBON/AIRSS/Generating-Clusters/LCBOP/Only-C1/SD-CG/FIRE-CG
REM
REM
REM
REM
REM
REM ./C.cell (11c1c37f851c82e70ff6c80c92926a4b)
REM AIRSS Version 0.9.1 bugfix July 2018 build 013d7b7c2542+ Fri, 06 Jul 2018 19:26:36 +0100
REM compiler GCC version 9.2.1 20190827 (Red Hat 9.2.1-1)
REM options -cpp -mtune=generic -march=x86-64 -g -O0 -fpre-include=/usr/include/finclude/math-vector-fortran.h
REM seed 879722677 -1929815017 -155803245 1846451757 297976398 -1068704139 1715889845 -1147805560 694520093 297645969 1208809303 548849405 244085296 1577332444 690226915 -372060754 -474240380 730076969 2098166861 -888611101 599171080 -195278474 1485084545 -939764134 1893286251 1411636609 -407505016 1554144439 1464877435 1532464346 481021983 -1384908453 -92806655
REM
CELL 1.54180   50.00000   50.00000   50.00000   90.00000   90.00000   90.00000
LATT -1
SFAC C  
C      1  0.5289630000000  0.5086600000000  0.2976580000000 1.0
C      1  0.5579380000000  0.4045350000000  0.5213430000000 1.0
C      1  0.6040310000000  0.4615610000000  0.4859660000000 1.0
C      1  0.5006790000000  0.5940030000000  0.5265680000000 1.0
C      1  0.4803570000000  0.5103320000000  0.5692160000000 1.0
C      1  0.5493450000000  0.4976760000000  0.5844790000000 1.0
C      1  0.5022340000000  0.5329210000000  0.3881370000000 1.0
C      1  0.4827960000000  0.4794620000000  0.6163760000000 1.0
C      1  0.5365510000000  0.4478730000000  0.5851440000000 1.0
C      1  0.5504570000000  0.4702390000000  0.4235510000000 1.0
C      1  0.5289880000000  0.4979180000000  0.4602010000000 1.0
C      1  0.5180660000000  0.4263040000000  0.4967670000000 1.0
C      1  0.4415650000000  0.4948650000000  0.5248270000000 1.0
C      1  0.4094500000000  0.4335310000000  0.6109400000000 1.0
C      1  0.5292130000000  0.4103650000000  0.4765290000000 1.0
C      1  0.4812420000000  0.5811270000000  0.5446450000000 1.0
C      1  0.5254480000000  0.5001710000000  0.5293380000000 1.0
C      1  0.4349100000000  0.5797600000000  0.5612340000000 1.0
C      1  0.4705260000000  0.4932890000000  0.5272960000000 1.0
C      1  0.5142790000000  0.6015610000000  0.4176070000000 1.0
C      1  0.5892310000000  0.5021070000000  0.5126080000000 1.0
C      1  0.4229700000000  0.4540970000000  0.4941170000000 1.0
C      1  0.4237600000000  0.5090910000000  0.5440970000000 1.0
C      1  0.5249840000000  0.4541570000000  0.5321860000000 1.0
C      1  0.4512520000000  0.5429520000000  0.5906900000000 1.0
C      1  0.4859520000000  0.3779770000000  0.4958610000000 1.0
C      1  0.5270340000000  0.4855520000000  0.2220700000000 1.0
C      1  0.5925410000000  0.4347650000000  0.5350250000000 1.0
C      1  0.4755710000000  0.5226820000000  0.3851870000000 1.0
C      1  0.4702260000000  0.5555970000000  0.5338080000000 1.0
C      1  0.5278100000000  0.4935790000000  0.2468610000000 1.0
C      1  0.5057950000000  0.5109910000000  0.5838730000000 1.0
C      1  0.4525410000000  0.5527750000000  0.5111630000000 1.0
C      1  0.4295310000000  0.5586370000000  0.4694230000000 1.0
C      1  0.5964650000000  0.6190460000000  0.4968460000000 1.0
C      1  0.4672500000000  0.5116980000000  0.3615130000000 1.0
C      1  0.4931400000000  0.3818040000000  0.5236530000000 1.0
C      1  0.5192040000000  0.5462150000000  0.5276840000000 1.0
C      1  0.5902760000000  0.5461360000000  0.4708520000000 1.0
C      1  0.5239980000000  0.6301930000000  0.5016540000000 1.0
C      1  0.4125950000000  0.4934350000000  0.5923780000000 1.0
C      1  0.4709850000000  0.5160720000000  0.4814320000000 1.0
C      1  0.4289080000000  0.4284910000000  0.4883400000000 1.0
C      1  0.5210060000000  0.4014870000000  0.5876760000000 1.0
C      1  0.5065110000000  0.4716470000000  0.4953340000000 1.0
C      1  0.5399040000000  0.6319920000000  0.4527940000000 1.0
C      1  0.4025080000000  0.5571340000000  0.5369600000000 1.0
C      1  0.5032560000000  0.5583380000000  0.4000500000000 1.0
C      1  0.5552460000000  0.4930120000000  0.4709170000000 1.0
C      1  0.4109190000000  0.4957400000000  0.5656690000000 1.0
C      1  0.4837750000000  0.4760780000000  0.4575720000000 1.0
C      1  0.4546440000000  0.4174510000000  0.4881310000000 1.0
C      1  0.5207900000000  0.5108660000000  0.6284600000000 1.0
C      1  0.5664200000000  0.4667210000000  0.4498030000000 1.0
C      1  0.4656230000000  0.4977470000000  0.4608130000000 1.0
C      1  0.5021640000000  0.4972470000000  0.5101340000000 1.0
C      1  0.4524410000000  0.5279830000000  0.4981010000000 1.0
C      1  0.5101270000000  0.4803560000000  0.4462330000000 1.0
C      1  0.4789630000000  0.4558020000000  0.5537560000000 1.0
C      1  0.4638600000000  0.5850340000000  0.5677680000000 1.0
C      1  0.4654960000000  0.3920770000000  0.4798360000000 1.0
C      1  0.5331230000000  0.4747260000000  0.5954250000000 1.0
C      1  0.4933970000000  0.4268340000000  0.5132220000000 1.0
C      1  0.3656210000000  0.5201280000000  0.4620440000000 1.0
C      1  0.5279820000000  0.5184780000000  0.3496750000000 1.0
C      1  0.5289530000000  0.5144990000000  0.3235070000000 1.0
C      1  0.6063290000000  0.5284910000000  0.4550690000000 1.0
C      1  0.5400360000000  0.6362270000000  0.4792060000000 1.0
C      1  0.5276060000000  0.6045720000000  0.5168980000000 1.0
C      1  0.3869460000000  0.5024900000000  0.5009090000000 1.0
C      1  0.4242620000000  0.5909640000000  0.5119440000000 1.0
C      1  0.5624810000000  0.4922530000000  0.4085850000000 1.0
C      1  0.5462310000000  0.5090350000000  0.3931620000000 1.0
C      1  0.5648340000000  0.4729930000000  0.5483010000000 1.0
C      1  0.6010930000000  0.5172100000000  0.5338940000000 1.0
C      1  0.5388210000000  0.4771950000000  0.5392860000000 1.0
C      1  0.5612050000000  0.5624020000000  0.5110880000000 1.0
C      1  0.4744120000000  0.4364360000000  0.4940660000000 1.0
C      1  0.4280200000000  0.4503800000000  0.5978050000000 1.0
C      1  0.5362430000000  0.4216300000000  0.5725460000000 1.0
C      1  0.4632280000000  0.3890490000000  0.4516260000000 1.0
C      1  0.4829120000000  0.4572130000000  0.6324620000000 1.0
C      1  0.5847310000000  0.4552290000000  0.5505090000000 1.0
C      1  0.4605250000000  0.5156810000000  0.5916790000000 1.0
C      1  0.4987720000000  0.5208140000000  0.4909900000000 1.0
C      1  0.5983130000000  0.5230100000000  0.4281010000000 1.0
C      1  0.4786450000000  0.6191870000000  0.4926700000000 1.0
C      1  0.5382830000000  0.4073070000000  0.5440240000000 1.0
C      1  0.5090580000000  0.3680590000000  0.4819090000000 1.0
C      1  0.6118490000000  0.5048700000000  0.5568230000000 1.0
C      1  0.5173620000000  0.5215030000000  0.4684370000000 1.0
C      1  0.4779230000000  0.4845930000000  0.5531390000000 1.0
C      1  0.3633670000000  0.4128880000000  0.5558680000000 1.0
C      1  0.5521660000000  0.5900390000000  0.5086210000000 1.0
C      1  0.4083400000000  0.5391990000000  0.4712470000000 1.0
C      1  0.3914930000000  0.4618670000000  0.5359020000000 1.0
C      1  0.5268070000000  0.4528060000000  0.5026920000000 1.0
C      1  0.6203440000000  0.5058030000000  0.4666390000000 1.0
C      1  0.5310940000000  0.5171380000000  0.5712870000000 1.0
C      1  0.4022370000000  0.4440570000000  0.5558470000000 1.0
C      1  0.6022120000000  0.4776160000000  0.5087340000000 1.0
C      1  0.5451210000000  0.5531550000000  0.6107370000000 1.0
C      1  0.5293980000000  0.6202870000000  0.4312940000000 1.0
C      1  0.4327980000000  0.4777480000000  0.6046960000000 1.0
C      1  0.5040880000000  0.5478820000000  0.5030880000000 1.0
C      1  0.5239060000000  0.5778600000000  0.4038790000000 1.0
C      1  0.5130230000000  0.3885620000000  0.5431710000000 1.0
C      1  0.4528310000000  0.4261150000000  0.4154420000000 1.0
C      1  0.6012920000000  0.5011820000000  0.5811980000000 1.0
C      1  0.5786630000000  0.4241450000000  0.5124230000000 1.0
C      1  0.5337190000000  0.5345030000000  0.6263610000000 1.0
C      1  0.5968390000000  0.5444860000000  0.5364700000000 1.0
C      1  0.4770430000000  0.5640670000000  0.4640930000000 1.0
C      1  0.5284170000000  0.5243540000000  0.5435800000000 1.0
C      1  0.5527560000000  0.3818920000000  0.5040970000000 1.0
C      1  0.5285080000000  0.5014790000000  0.2721540000000 1.0
C      1  0.5471100000000  0.4220240000000  0.4587400000000 1.0
C      1  0.4177350000000  0.5364970000000  0.5495210000000 1.0
C      1  0.5077810000000  0.3837200000000  0.5713880000000 1.0
C      1  0.5693160000000  0.5414560000000  0.4905520000000 1.0
C      1  0.3876910000000  0.5206460000000  0.4786230000000 1.0
C      1  0.5254460000000  0.5200070000000  0.3775640000000 1.0
C      1  0.4542570000000  0.4430670000000  0.5581970000000 1.0
C      1  0.4434160000000  0.5002050000000  0.4444290000000 1.0
C      1  0.4435870000000  0.4770100000000  0.4035240000000 1.0
C      1  0.4913970000000  0.5690400000000  0.4875720000000 1.0
C      1  0.5329370000000  0.3830530000000  0.4837230000000 1.0
C      1  0.5881960000000  0.4975550000000  0.4207970000000 1.0
C      1  0.5091090000000  0.4915500000000  0.6078060000000 1.0
C      1  0.4570540000000  0.5260900000000  0.4072060000000 1.0
C      1  0.3846450000000  0.4819480000000  0.5187060000000 1.0
C      1  0.5737110000000  0.6070770000000  0.5011880000000 1.0
C      1  0.4584290000000  0.4042290000000  0.4298930000000 1.0
C      1  0.5763740000000  0.5006750000000  0.5907610000000 1.0
C      1  0.4362160000000  0.5711140000000  0.4956620000000 1.0
C      1  0.4967940000000  0.6386820000000  0.4984350000000 1.0
C      1  0.4310130000000  0.5508380000000  0.5713070000000 1.0
C      1  0.4285600000000  0.4453440000000  0.5689140000000 1.0
C      1  0.5686750000000  0.5109990000000  0.4928990000000 1.0
C      1  0.3838600000000  0.4260500000000  0.5692510000000 1.0
C      1  0.4856470000000  0.5964040000000  0.4196950000000 1.0
C      1  0.4844160000000  0.4596520000000  0.4807480000000 1.0
C      1  0.4863910000000  0.5933250000000  0.5007350000000 1.0
C      1  0.3887950000000  0.4225860000000  0.5970550000000 1.0
C      1  0.5847270000000  0.4390780000000  0.4865700000000 1.0
C      1  0.6113780000000  0.4784100000000  0.4630160000000 1.0
C      1  0.5543130000000  0.5637800000000  0.5878790000000 1.0
C      1  0.4445390000000  0.5021210000000  0.4165540000000 1.0
C      1  0.4306350000000  0.4769540000000  0.5057570000000 1.0
C      1  0.4525210000000  0.5573300000000  0.4505680000000 1.0
C      1  0.5668970000000  0.4408650000000  0.4640070000000 1.0
C      1  0.4584350000000  0.5513560000000  0.4223740000000 1.0
C      1  0.5934140000000  0.4769410000000  0.4411100000000 1.0
C      1  0.4784020000000  0.5693920000000  0.4118550000000 1.0
C      1  0.4986900000000  0.4425230000000  0.5379350000000 1.0
C      1  0.4473680000000  0.4504980000000  0.4057330000000 1.0
C      1  0.3442740000000  0.4009910000000  0.5427130000000 1.0
C      1  0.4684150000000  0.5670850000000  0.5910570000000 1.0
C      1  0.4770660000000  0.5331070000000  0.5496080000000 1.0
C      1  0.4578700000000  0.4915660000000  0.6076890000000 1.0
C      1  0.5620640000000  0.5658890000000  0.5623010000000 1.0
C      1  0.5226160000000  0.4664630000000  0.4253370000000 1.0
C      1  0.5728070000000  0.5584580000000  0.5373250000000 1.0
C      1  0.4166460000000  0.5828490000000  0.5380500000000 1.0
END
