TITL C-627106-156-420 3.46599114474826e-07 125000 -1062.48834508745 0 0 173 (C1) n - 1
REM
REM in /home/nfs/bkarasulu/CARBON/AIRSS/Generating-Clusters/LCBOP/Only-C1/SD-CG/FIRE-CG
REM
REM
REM
REM
REM
REM ./C.cell (11c1c37f851c82e70ff6c80c92926a4b)
REM AIRSS Version 0.9.1 bugfix July 2018 build 013d7b7c2542+ Fri, 06 Jul 2018 19:26:36 +0100
REM compiler GCC version 9.2.1 20190827 (Red Hat 9.2.1-1)
REM options -cpp -mtune=generic -march=x86-64 -g -O0 -fpre-include=/usr/include/finclude/math-vector-fortran.h
REM seed 495174036 294929404 1192088922 1440072616 629686831 331327244 -1211479591 -499061233 1400416477 2070969701 -993304600 1189375225 -1274500036 1564121508 672152455 -1317065278 2084774191 -541540413 -361550595 -939607778 384528354 209812226 31776652 1931788366 -1955599808 -343519040 -621125520 -559812180 395644630 1040727894 -418859106 -827169541 1806384907
REM
CELL 1.54180   50.00000   50.00000   50.00000   90.00000   90.00000   90.00000
LATT -1
SFAC C  
C      1  0.4429150000000  0.4080980000000  0.5834630000000 1.0
C      1  0.4982370000000  0.5145970000000  0.5911370000000 1.0
C      1  0.4009220000000  0.5699820000000  0.5856360000000 1.0
C      1  0.4780360000000  0.6263290000000  0.4696570000000 1.0
C      1  0.4121470000000  0.4220820000000  0.5044710000000 1.0
C      1  0.4736330000000  0.5880600000000  0.4163700000000 1.0
C      1  0.4784670000000  0.3680790000000  0.5291530000000 1.0
C      1  0.5049160000000  0.4527240000000  0.5915640000000 1.0
C      1  0.5961890000000  0.5931690000000  0.5037720000000 1.0
C      1  0.4353010000000  0.5170200000000  0.4308820000000 1.0
C      1  0.4107880000000  0.5857000000000  0.5234420000000 1.0
C      1  0.4360780000000  0.4855710000000  0.5916380000000 1.0
C      1  0.3849790000000  0.4499850000000  0.5740930000000 1.0
C      1  0.4205110000000  0.5659330000000  0.5414450000000 1.0
C      1  0.4681590000000  0.3910310000000  0.5424770000000 1.0
C      1  0.4178490000000  0.4180330000000  0.5927950000000 1.0
C      1  0.5313240000000  0.4465180000000  0.5817180000000 1.0
C      1  0.5131750000000  0.4528790000000  0.4673940000000 1.0
C      1  0.4474630000000  0.4598370000000  0.5444600000000 1.0
C      1  0.4777320000000  0.4848670000000  0.3787040000000 1.0
C      1  0.4440110000000  0.4962970000000  0.6146620000000 1.0
C      1  0.5915010000000  0.4641420000000  0.5354570000000 1.0
C      1  0.4297490000000  0.4668950000000  0.5203610000000 1.0
C      1  0.4526100000000  0.5740090000000  0.4658920000000 1.0
C      1  0.4820670000000  0.6371120000000  0.5752690000000 1.0
C      1  0.5081180000000  0.4871330000000  0.4368140000000 1.0
C      1  0.4558660000000  0.5497890000000  0.4811270000000 1.0
C      1  0.5102110000000  0.4594140000000  0.4404290000000 1.0
C      1  0.4433790000000  0.3949360000000  0.5569500000000 1.0
C      1  0.5785080000000  0.5437140000000  0.4164170000000 1.0
C      1  0.5315210000000  0.5004170000000  0.5042310000000 1.0
C      1  0.5526030000000  0.5119970000000  0.4517490000000 1.0
C      1  0.4978670000000  0.6018480000000  0.5376100000000 1.0
C      1  0.4677630000000  0.5035530000000  0.6277030000000 1.0
C      1  0.5970060000000  0.5657990000000  0.5047980000000 1.0
C      1  0.4683730000000  0.5148070000000  0.6524880000000 1.0
C      1  0.5693520000000  0.4158620000000  0.4971860000000 1.0
C      1  0.3828820000000  0.4764330000000  0.5701370000000 1.0
C      1  0.5090060000000  0.4903350000000  0.5511280000000 1.0
C      1  0.5824410000000  0.5412200000000  0.5011760000000 1.0
C      1  0.5902930000000  0.5138480000000  0.5063830000000 1.0
C      1  0.5568190000000  0.5948670000000  0.4618710000000 1.0
C      1  0.5190850000000  0.6149170000000  0.4899210000000 1.0
C      1  0.4361270000000  0.4445120000000  0.4255540000000 1.0
C      1  0.5059110000000  0.6216700000000  0.4640300000000 1.0
C      1  0.6108370000000  0.5228790000000  0.4489590000000 1.0
C      1  0.5017510000000  0.4721440000000  0.6116610000000 1.0
C      1  0.4465630000000  0.5061260000000  0.4967740000000 1.0
C      1  0.5760240000000  0.4894260000000  0.4991760000000 1.0
C      1  0.5774220000000  0.4581920000000  0.4137100000000 1.0
C      1  0.5361680000000  0.5267340000000  0.3983660000000 1.0
C      1  0.5267950000000  0.5346310000000  0.5571090000000 1.0
C      1  0.4899240000000  0.6202900000000  0.5569830000000 1.0
C      1  0.5498520000000  0.6055580000000  0.4905430000000 1.0
C      1  0.3936090000000  0.5368100000000  0.5008550000000 1.0
C      1  0.5178620000000  0.3961810000000  0.4496920000000 1.0
C      1  0.5112080000000  0.3932460000000  0.4772400000000 1.0
C      1  0.5492290000000  0.5378190000000  0.6031170000000 1.0
C      1  0.4395090000000  0.4750660000000  0.5675100000000 1.0
C      1  0.4716810000000  0.4413840000000  0.5514250000000 1.0
C      1  0.5155740000000  0.4692920000000  0.5366930000000 1.0
C      1  0.5240640000000  0.4415090000000  0.3745120000000 1.0
C      1  0.6109480000000  0.5073660000000  0.5249790000000 1.0
C      1  0.5151360000000  0.4468900000000  0.5227350000000 1.0
C      1  0.5100420000000  0.4079610000000  0.5626500000000 1.0
C      1  0.4893680000000  0.5520340000000  0.3856340000000 1.0
C      1  0.4452430000000  0.4518000000000  0.4017240000000 1.0
C      1  0.4255760000000  0.4460590000000  0.5007350000000 1.0
C      1  0.5763680000000  0.4292390000000  0.4726330000000 1.0
C      1  0.6066400000000  0.4874090000000  0.5453380000000 1.0
C      1  0.5630330000000  0.4225120000000  0.4466780000000 1.0
C      1  0.4754580000000  0.3718910000000  0.4358440000000 1.0
C      1  0.4386750000000  0.3685450000000  0.4730500000000 1.0
C      1  0.4962530000000  0.5301050000000  0.4278550000000 1.0
C      1  0.5518080000000  0.5498220000000  0.4084400000000 1.0
C      1  0.5446890000000  0.4986000000000  0.4064840000000 1.0
C      1  0.6048040000000  0.4985080000000  0.5713020000000 1.0
C      1  0.5538430000000  0.4704540000000  0.4016030000000 1.0
C      1  0.3876810000000  0.5025580000000  0.5663440000000 1.0
C      1  0.4543340000000  0.3673120000000  0.4515130000000 1.0
C      1  0.4183420000000  0.3943760000000  0.5420720000000 1.0
C      1  0.4062780000000  0.5542260000000  0.5631290000000 1.0
C      1  0.4429380000000  0.4476210000000  0.4783530000000 1.0
C      1  0.4966870000000  0.4149100000000  0.4897440000000 1.0
C      1  0.4058660000000  0.5574580000000  0.4837090000000 1.0
C      1  0.5567900000000  0.4263820000000  0.5464800000000 1.0
C      1  0.4236550000000  0.4944020000000  0.5088780000000 1.0
C      1  0.5552630000000  0.5449250000000  0.4929420000000 1.0
C      1  0.5568880000000  0.4870770000000  0.5931080000000 1.0
C      1  0.5350990000000  0.4985050000000  0.4340510000000 1.0
C      1  0.5905850000000  0.4646850000000  0.5051910000000 1.0
C      1  0.4986470000000  0.5703110000000  0.4575090000000 1.0
C      1  0.5456360000000  0.5323290000000  0.4698090000000 1.0
C      1  0.4940320000000  0.5052040000000  0.3835820000000 1.0
C      1  0.5103260000000  0.5136710000000  0.5658850000000 1.0
C      1  0.4181720000000  0.3962360000000  0.5137460000000 1.0
C      1  0.4656350000000  0.4214600000000  0.5939590000000 1.0
C      1  0.4444630000000  0.5938300000000  0.4862070000000 1.0
C      1  0.4063770000000  0.5509630000000  0.4559640000000 1.0
C      1  0.5391610000000  0.5927380000000  0.4401670000000 1.0
C      1  0.5368290000000  0.4616370000000  0.4800560000000 1.0
C      1  0.4843470000000  0.5050550000000  0.4370760000000 1.0
C      1  0.5788700000000  0.6160230000000  0.4976750000000 1.0
C      1  0.5108530000000  0.5139000000000  0.4924540000000 1.0
C      1  0.3988730000000  0.5079290000000  0.5025100000000 1.0
C      1  0.4995210000000  0.3615740000000  0.5132300000000 1.0
C      1  0.5039840000000  0.5448730000000  0.4508120000000 1.0
C      1  0.5171290000000  0.5304800000000  0.4708690000000 1.0
C      1  0.4620740000000  0.5537880000000  0.5097440000000 1.0
C      1  0.5342000000000  0.5593280000000  0.5936540000000 1.0
C      1  0.6012820000000  0.5705260000000  0.4476790000000 1.0
C      1  0.6132940000000  0.4990720000000  0.4614870000000 1.0
C      1  0.5837600000000  0.5888710000000  0.4559170000000 1.0
C      1  0.5146920000000  0.6092230000000  0.4402200000000 1.0
C      1  0.3974880000000  0.5272960000000  0.5630990000000 1.0
C      1  0.4716160000000  0.5704800000000  0.3941720000000 1.0
C      1  0.5328120000000  0.4503540000000  0.3987950000000 1.0
C      1  0.4268340000000  0.3770440000000  0.4953700000000 1.0
C      1  0.4704590000000  0.4984420000000  0.5092510000000 1.0
C      1  0.3708290000000  0.5452170000000  0.5144100000000 1.0
C      1  0.5493730000000  0.4829140000000  0.4935260000000 1.0
C      1  0.4757640000000  0.4718390000000  0.5050660000000 1.0
C      1  0.5195910000000  0.5886920000000  0.3995530000000 1.0
C      1  0.4911680000000  0.4981340000000  0.6126620000000 1.0
C      1  0.4947980000000  0.6083660000000  0.5090730000000 1.0
C      1  0.3951090000000  0.4051020000000  0.5548690000000 1.0
C      1  0.4694920000000  0.4532080000000  0.4853650000000 1.0
C      1  0.5296090000000  0.3991540000000  0.5181510000000 1.0
C      1  0.4601720000000  0.4659800000000  0.3849770000000 1.0
C      1  0.5479120000000  0.5867090000000  0.5141660000000 1.0
C      1  0.4521560000000  0.5222440000000  0.4740530000000 1.0
C      1  0.5528220000000  0.5327250000000  0.5468340000000 1.0
C      1  0.4445430000000  0.5552840000000  0.5316800000000 1.0
C      1  0.5000150000000  0.3822590000000  0.4327970000000 1.0
C      1  0.5194090000000  0.3776290000000  0.5006790000000 1.0
C      1  0.5546600000000  0.4638830000000  0.5766770000000 1.0
C      1  0.5207330000000  0.5613910000000  0.5678690000000 1.0
C      1  0.5342540000000  0.4226520000000  0.5657380000000 1.0
C      1  0.5053860000000  0.4190990000000  0.5180170000000 1.0
C      1  0.4900500000000  0.5178880000000  0.5094580000000 1.0
C      1  0.4154520000000  0.5346760000000  0.4364870000000 1.0
C      1  0.6030820000000  0.4728050000000  0.4570780000000 1.0
C      1  0.4870940000000  0.4147220000000  0.5420330000000 1.0
C      1  0.3962090000000  0.5847670000000  0.6065730000000 1.0
C      1  0.5705970000000  0.4523360000000  0.5527010000000 1.0
C      1  0.5347540000000  0.4175890000000  0.4399140000000 1.0
C      1  0.5049370000000  0.5294720000000  0.3979830000000 1.0
C      1  0.4574990000000  0.5107760000000  0.4477620000000 1.0
C      1  0.4805310000000  0.4417370000000  0.5803760000000 1.0
C      1  0.5778730000000  0.5351490000000  0.5564290000000 1.0
C      1  0.4177920000000  0.5826680000000  0.4957240000000 1.0
C      1  0.4680680000000  0.6110080000000  0.4929770000000 1.0
C      1  0.4578630000000  0.5824580000000  0.4394010000000 1.0
C      1  0.5650450000000  0.5142520000000  0.5961540000000 1.0
C      1  0.5089130000000  0.5762360000000  0.5453110000000 1.0
C      1  0.4991040000000  0.6014080000000  0.4167840000000 1.0
C      1  0.5110100000000  0.5592680000000  0.5213570000000 1.0
C      1  0.5369060000000  0.5613650000000  0.5085140000000 1.0
C      1  0.5760110000000  0.4309390000000  0.4224620000000 1.0
C      1  0.5406330000000  0.5759780000000  0.4151970000000 1.0
C      1  0.5986620000000  0.5449750000000  0.4362820000000 1.0
C      1  0.5869380000000  0.5194990000000  0.5781230000000 1.0
C      1  0.3961300000000  0.4242280000000  0.5757320000000 1.0
C      1  0.5856960000000  0.6422570000000  0.4980170000000 1.0
C      1  0.5565540000000  0.5947920000000  0.5389640000000 1.0
C      1  0.5548610000000  0.4120370000000  0.5214340000000 1.0
C      1  0.5936300000000  0.4531620000000  0.4775560000000 1.0
C      1  0.4348850000000  0.4439150000000  0.4520330000000 1.0
C      1  0.5963200000000  0.4707870000000  0.4296480000000 1.0
C      1  0.4876750000000  0.5445970000000  0.5161380000000 1.0
C      1  0.3774810000000  0.4914970000000  0.4962940000000 1.0
C      1  0.5230050000000  0.4400040000000  0.4238300000000 1.0
C      1  0.4913230000000  0.4386890000000  0.4770820000000 1.0
END
