TITL C-627110-360-1592 -0.0166477370336939 125000 -919.32163229575 0 0 151 (C1) n - 1
REM
REM in /home/nfs/bkarasulu/CARBON/AIRSS/Generating-Clusters/LCBOP/Only-C1/SD-CG/FIRE-CG
REM
REM
REM
REM
REM
REM ./C.cell (11c1c37f851c82e70ff6c80c92926a4b)
REM AIRSS Version 0.9.1 bugfix July 2018 build 013d7b7c2542+ Fri, 06 Jul 2018 19:26:36 +0100
REM compiler GCC version 9.2.1 20190827 (Red Hat 9.2.1-1)
REM options -cpp -mtune=generic -march=x86-64 -g -O0 -fpre-include=/usr/include/finclude/math-vector-fortran.h
REM seed -537208283 403457016 -1056969778 -96585317 158003135 167286210 -1429427271 1677768923 1131125580 -1911271643 657092492 81678403 1169381168 -1189056950 356505523 -1012935163 995652542 -1885480410 1440753181 -1478511006 679373766 1021571446 1408594595 -455213466 1074848455 513425262 1749829771 1117025799 2088496744 1188547814 -698530311 1571362594 204415283
REM
CELL 1.54180   50.00000   50.00000   50.00000   90.00000   90.00000   90.00000
LATT -1
SFAC C  
C      1  0.4889910000000  0.5233290000000  0.5507860000000 1.0
C      1  0.5953940000000  0.4485750000000  0.4711270000000 1.0
C      1  0.5526820000000  0.4899320000000  0.4014470000000 1.0
C      1  0.5068600000000  0.6059520000000  0.5231310000000 1.0
C      1  0.5110460000000  0.5813750000000  0.5088410000000 1.0
C      1  0.5855410000000  0.3876890000000  0.5184820000000 1.0
C      1  0.5501490000000  0.5345330000000  0.5924700000000 1.0
C      1  0.5223250000000  0.5249350000000  0.3846460000000 1.0
C      1  0.4735500000000  0.4842750000000  0.4315310000000 1.0
C      1  0.5265940000000  0.5082910000000  0.3589240000000 1.0
C      1  0.5999660000000  0.4941780000000  0.4892720000000 1.0
C      1  0.5110810000000  0.4521330000000  0.5042730000000 1.0
C      1  0.5052500000000  0.4671180000000  0.5629540000000 1.0
C      1  0.5185590000000  0.5690040000000  0.5862340000000 1.0
C      1  0.5011160000000  0.4167260000000  0.5587550000000 1.0
C      1  0.3947310000000  0.4741060000000  0.5520510000000 1.0
C      1  0.4668590000000  0.5661810000000  0.5007290000000 1.0
C      1  0.4096890000000  0.5800000000000  0.4746220000000 1.0
C      1  0.4615010000000  0.5061900000000  0.4809570000000 1.0
C      1  0.5035490000000  0.5809250000000  0.4580580000000 1.0
C      1  0.5708140000000  0.5878870000000  0.4884420000000 1.0
C      1  0.4304480000000  0.6010980000000  0.5135930000000 1.0
C      1  0.5169530000000  0.4403600000000  0.5614800000000 1.0
C      1  0.5503150000000  0.5368390000000  0.4693860000000 1.0
C      1  0.4085290000000  0.4567590000000  0.5670220000000 1.0
C      1  0.5269670000000  0.4064590000000  0.5158000000000 1.0
C      1  0.5353730000000  0.4926920000000  0.5279570000000 1.0
C      1  0.4485050000000  0.5458140000000  0.5412240000000 1.0
C      1  0.5492170000000  0.4180520000000  0.5305220000000 1.0
C      1  0.4643570000000  0.4028520000000  0.4683890000000 1.0
C      1  0.5878770000000  0.5216080000000  0.5586240000000 1.0
C      1  0.5706370000000  0.5633930000000  0.4367330000000 1.0
C      1  0.5532210000000  0.5854460000000  0.4302030000000 1.0
C      1  0.4693370000000  0.4936760000000  0.6092160000000 1.0
C      1  0.5589680000000  0.4501330000000  0.4283640000000 1.0
C      1  0.5484290000000  0.5843240000000  0.5408460000000 1.0
C      1  0.5033000000000  0.4043200000000  0.5333390000000 1.0
C      1  0.5544360000000  0.4949750000000  0.4510540000000 1.0
C      1  0.5923950000000  0.4617540000000  0.5235660000000 1.0
C      1  0.4506680000000  0.5304870000000  0.4698370000000 1.0
C      1  0.5304610000000  0.4657280000000  0.5165830000000 1.0
C      1  0.5284630000000  0.5782660000000  0.4179950000000 1.0
C      1  0.4484540000000  0.4480410000000  0.4732310000000 1.0
C      1  0.5640310000000  0.5028790000000  0.5231220000000 1.0
C      1  0.5230660000000  0.6014690000000  0.5477050000000 1.0
C      1  0.4824610000000  0.4041690000000  0.5764000000000 1.0
C      1  0.5778930000000  0.4732510000000  0.5747880000000 1.0
C      1  0.4269820000000  0.5363590000000  0.4548390000000 1.0
C      1  0.4823700000000  0.6209300000000  0.5182740000000 1.0
C      1  0.4341110000000  0.4059820000000  0.5228090000000 1.0
C      1  0.5179170000000  0.5566230000000  0.5241500000000 1.0
C      1  0.5800950000000  0.5507480000000  0.5165040000000 1.0
C      1  0.5764260000000  0.4126970000000  0.5243160000000 1.0
C      1  0.5527660000000  0.5203780000000  0.6148800000000 1.0
C      1  0.4597270000000  0.3934620000000  0.5628170000000 1.0
C      1  0.4690670000000  0.5264850000000  0.3883170000000 1.0
C      1  0.5698540000000  0.4398030000000  0.4722800000000 1.0
C      1  0.5430630000000  0.5027080000000  0.6343640000000 1.0
C      1  0.4504230000000  0.5503540000000  0.6002390000000 1.0
C      1  0.4941210000000  0.5152700000000  0.3955680000000 1.0
C      1  0.4645660000000  0.5532650000000  0.4778940000000 1.0
C      1  0.5022340000000  0.4540020000000  0.4779350000000 1.0
C      1  0.4363600000000  0.5255230000000  0.5963810000000 1.0
C      1  0.4577590000000  0.4905890000000  0.5620850000000 1.0
C      1  0.5489880000000  0.4470650000000  0.4549990000000 1.0
C      1  0.5640520000000  0.4514410000000  0.5673440000000 1.0
C      1  0.4723870000000  0.4872190000000  0.4614910000000 1.0
C      1  0.4315280000000  0.4449910000000  0.5740760000000 1.0
C      1  0.5631490000000  0.5359560000000  0.4248500000000 1.0
C      1  0.4167030000000  0.5626010000000  0.4554990000000 1.0
C      1  0.4122430000000  0.5175490000000  0.4408790000000 1.0
C      1  0.5302940000000  0.5441300000000  0.5724550000000 1.0
C      1  0.5844130000000  0.4859690000000  0.5119590000000 1.0
C      1  0.4938110000000  0.3787710000000  0.4978360000000 1.0
C      1  0.4646800000000  0.5028140000000  0.5110090000000 1.0
C      1  0.4002800000000  0.4963780000000  0.5037460000000 1.0
C      1  0.4813990000000  0.3895260000000  0.5212390000000 1.0
C      1  0.4686940000000  0.5597000000000  0.5806940000000 1.0
C      1  0.4142880000000  0.5782590000000  0.5026470000000 1.0
C      1  0.4683250000000  0.5392530000000  0.5600960000000 1.0
C      1  0.4432340000000  0.5189560000000  0.3896560000000 1.0
C      1  0.4559300000000  0.6111280000000  0.5259140000000 1.0
C      1  0.5553600000000  0.6083900000000  0.4468000000000 1.0
C      1  0.4169760000000  0.4958770000000  0.4242240000000 1.0
C      1  0.4775370000000  0.5850600000000  0.5687240000000 1.0
C      1  0.4216990000000  0.5017940000000  0.3965590000000 1.0
C      1  0.5162310000000  0.5741740000000  0.4817660000000 1.0
C      1  0.4589000000000  0.4360730000000  0.4222910000000 1.0
C      1  0.5004520000000  0.4677460000000  0.3951750000000 1.0
C      1  0.4748710000000  0.4605900000000  0.4730540000000 1.0
C      1  0.5248940000000  0.5763840000000  0.3904700000000 1.0
C      1  0.4377960000000  0.4213130000000  0.4355980000000 1.0
C      1  0.5205710000000  0.4498100000000  0.4023170000000 1.0
C      1  0.5592110000000  0.4936600000000  0.6544500000000 1.0
C      1  0.4532100000000  0.4643570000000  0.4250680000000 1.0
C      1  0.4584160000000  0.4466520000000  0.5730270000000 1.0
C      1  0.5286990000000  0.4096030000000  0.4360230000000 1.0
C      1  0.4089130000000  0.5504320000000  0.5131380000000 1.0
C      1  0.3915020000000  0.4891730000000  0.5301630000000 1.0
C      1  0.4564940000000  0.3932910000000  0.5343970000000 1.0
C      1  0.5148130000000  0.4016040000000  0.4605220000000 1.0
C      1  0.4849240000000  0.4232260000000  0.4271360000000 1.0
C      1  0.4636180000000  0.5901050000000  0.5443570000000 1.0
C      1  0.5875680000000  0.4982630000000  0.5724700000000 1.0
C      1  0.5479180000000  0.5194020000000  0.4031060000000 1.0
C      1  0.5917860000000  0.5461740000000  0.4895340000000 1.0
C      1  0.5616740000000  0.5212330000000  0.4496140000000 1.0
C      1  0.6076420000000  0.4725290000000  0.4729680000000 1.0
C      1  0.5125940000000  0.4265130000000  0.4173940000000 1.0
C      1  0.5063070000000  0.5900270000000  0.5705570000000 1.0
C      1  0.4263010000000  0.4668920000000  0.4659590000000 1.0
C      1  0.4094340000000  0.5234030000000  0.6003800000000 1.0
C      1  0.5676810000000  0.5787160000000  0.5174100000000 1.0
C      1  0.4278760000000  0.4730910000000  0.4372050000000 1.0
C      1  0.4489960000000  0.4940660000000  0.5342970000000 1.0
C      1  0.5174810000000  0.3945860000000  0.4886950000000 1.0
C      1  0.4524240000000  0.5030260000000  0.5883030000000 1.0
C      1  0.5225650000000  0.5355770000000  0.5057950000000 1.0
C      1  0.5365270000000  0.5574720000000  0.5458810000000 1.0
C      1  0.5237860000000  0.4614510000000  0.4603490000000 1.0
C      1  0.4013600000000  0.5253370000000  0.4997760000000 1.0
C      1  0.5134880000000  0.5187350000000  0.5650470000000 1.0
C      1  0.5931660000000  0.4351770000000  0.5249580000000 1.0
C      1  0.4913100000000  0.4916360000000  0.6240110000000 1.0
C      1  0.4056650000000  0.4910430000000  0.3771800000000 1.0
C      1  0.4906490000000  0.4901770000000  0.4090940000000 1.0
C      1  0.4605770000000  0.5670770000000  0.5274680000000 1.0
C      1  0.5213720000000  0.5537010000000  0.3768340000000 1.0
C      1  0.4864160000000  0.4016630000000  0.6032290000000 1.0
C      1  0.4170670000000  0.4251150000000  0.5147660000000 1.0
C      1  0.4093840000000  0.4722940000000  0.4888480000000 1.0
C      1  0.4068000000000  0.4476520000000  0.5042250000000 1.0
C      1  0.5150150000000  0.5105630000000  0.5135730000000 1.0
C      1  0.4870130000000  0.4060980000000  0.4519940000000 1.0
C      1  0.6038300000000  0.5214230000000  0.4842620000000 1.0
C      1  0.4210750000000  0.5447020000000  0.5381630000000 1.0
C      1  0.5060180000000  0.5372230000000  0.4382100000000 1.0
C      1  0.4760800000000  0.4677580000000  0.5653580000000 1.0
C      1  0.5822840000000  0.5662150000000  0.4702100000000 1.0
C      1  0.5444280000000  0.4361800000000  0.5536560000000 1.0
C      1  0.5293450000000  0.5483630000000  0.4821000000000 1.0
C      1  0.5106870000000  0.5120710000000  0.4475490000000 1.0
C      1  0.5610370000000  0.6097840000000  0.4733470000000 1.0
C      1  0.5223120000000  0.4915640000000  0.5569560000000 1.0
C      1  0.4435950000000  0.4211320000000  0.4638260000000 1.0
C      1  0.5461060000000  0.4624100000000  0.4068170000000 1.0
C      1  0.5162920000000  0.4945210000000  0.6325370000000 1.0
C      1  0.5756660000000  0.5275980000000  0.5336030000000 1.0
C      1  0.4889290000000  0.5113890000000  0.5240890000000 1.0
C      1  0.5268290000000  0.4890240000000  0.4532670000000 1.0
C      1  0.5093130000000  0.5655780000000  0.4351230000000 1.0
END
