TITL C-627109-622-1901 583.737010997168 125000 -744.076692173482 0 0 123 (C1) n - 1
REM
REM in /home/nfs/bkarasulu/CARBON/AIRSS/Generating-Clusters/LCBOP/Only-C1/SD-CG/FIRE-CG
REM
REM
REM
REM
REM
REM ./C.cell (11c1c37f851c82e70ff6c80c92926a4b)
REM AIRSS Version 0.9.1 bugfix July 2018 build 013d7b7c2542+ Fri, 06 Jul 2018 19:26:36 +0100
REM compiler GCC version 9.2.1 20190827 (Red Hat 9.2.1-1)
REM options -cpp -mtune=generic -march=x86-64 -g -O0 -fpre-include=/usr/include/finclude/math-vector-fortran.h
REM seed -1830914017 408628228 -1432684980 -1086771976 -1964688740 -76637833 -529754447 -2659495 1578499586 745462197 -1352070419 -885797338 2073946858 -1598831844 1620581343 687897524 1537999151 -122208138 -666385374 -1672413291 2076988042 856842684 1076511150 -881531062 1635332412 536655057 -2056825779 1244391527 -903435950 2001389064 59990342 -738560644 -524743744
REM
CELL 1.54180   50.00000   50.00000   50.00000   90.00000   90.00000   90.00000
LATT -1
SFAC C  
C      1  0.4620220000000  0.4291110000000  0.5709600000000 1.0
C      1  0.5192410000000  0.4587080000000  0.5808180000000 1.0
C      1  0.4306020000000  0.4833520000000  0.5265370000000 1.0
C      1  0.4734550000000  0.4140990000000  0.4971420000000 1.0
C      1  0.4798170000000  0.4730160000000  0.5118890000000 1.0
C      1  0.4337660000000  0.5030420000000  0.5838230000000 1.0
C      1  0.4668860000000  0.5189090000000  0.5032060000000 1.0
C      1  0.4718940000000  0.5249730000000  0.4067970000000 1.0
C      1  0.4207990000000  0.5174860000000  0.4763460000000 1.0
C      1  0.5694860000000  0.6649160000000  0.5609840000000 1.0
C      1  0.4687500000000  0.5424870000000  0.5191640000000 1.0
C      1  0.4958330000000  0.4766270000000  0.6183980000000 1.0
C      1  0.5033800000000  0.4217180000000  0.4477780000000 1.0
C      1  0.5485260000000  0.4576490000000  0.5774480000000 1.0
C      1  0.5078580000000  0.5584110000000  0.4918070000000 1.0
C      1  0.4222740000000  0.5650010000000  0.5016660000000 1.0
C      1  0.4619320000000  0.5221900000000  0.4536980000000 1.0
C      1  0.5479510000000  0.5595950000000  0.5160550000000 1.0
C      1  0.4759300000000  0.4968270000000  0.3988290000000 1.0
C      1  0.4637680000000  0.4058160000000  0.4713380000000 1.0
C      1  0.4184110000000  0.4406230000000  0.4890670000000 1.0
C      1  0.4606510000000  0.4273190000000  0.4249080000000 1.0
C      1  0.5173150000000  0.5260020000000  0.3887820000000 1.0
C      1  0.5260530000000  0.3889330000000  0.4836030000000 1.0
C      1  0.4570530000000  0.5084410000000  0.5723920000000 1.0
C      1  0.3868360000000  0.4867760000000  0.6009490000000 1.0
C      1  0.5037770000000  0.5149610000000  0.5876280000000 1.0
C      1  0.4978520000000  0.5409260000000  0.4045780000000 1.0
C      1  0.5600920000000  0.4983130000000  0.4430780000000 1.0
C      1  0.5643380000000  0.4716770000000  0.4425440000000 1.0
C      1  0.4770680000000  0.4386800000000  0.5913640000000 1.0
C      1  0.5727260000000  0.4552850000000  0.5073190000000 1.0
C      1  0.6000800000000  0.4548490000000  0.5077250000000 1.0
C      1  0.4839120000000  0.5119920000000  0.5664080000000 1.0
C      1  0.6664710000000  0.4991150000000  0.4275760000000 1.0
C      1  0.5710460000000  0.5456760000000  0.5243970000000 1.0
C      1  0.5414410000000  0.6236240000000  0.5445120000000 1.0
C      1  0.5042100000000  0.4546590000000  0.5056600000000 1.0
C      1  0.5586140000000  0.4468810000000  0.4515090000000 1.0
C      1  0.5070430000000  0.4583180000000  0.5551290000000 1.0
C      1  0.5016520000000  0.4866740000000  0.4127000000000 1.0
C      1  0.4541850000000  0.4772820000000  0.4059410000000 1.0
C      1  0.4987820000000  0.4275540000000  0.4938560000000 1.0
C      1  0.5108950000000  0.5806280000000  0.4378540000000 1.0
C      1  0.5407920000000  0.3886600000000  0.5067330000000 1.0
C      1  0.5389750000000  0.4274270000000  0.5384870000000 1.0
C      1  0.5294020000000  0.5146550000000  0.5750070000000 1.0
C      1  0.5502570000000  0.4133230000000  0.5170250000000 1.0
C      1  0.5027540000000  0.5945750000000  0.5491960000000 1.0
C      1  0.4482610000000  0.5495340000000  0.5375280000000 1.0
C      1  0.4181640000000  0.5632040000000  0.4724670000000 1.0
C      1  0.5600980000000  0.4316550000000  0.4974490000000 1.0
C      1  0.4510070000000  0.5203310000000  0.4274390000000 1.0
C      1  0.4122470000000  0.4851910000000  0.4355800000000 1.0
C      1  0.4222600000000  0.4389560000000  0.5437170000000 1.0
C      1  0.4479470000000  0.4261540000000  0.5462200000000 1.0
C      1  0.4838320000000  0.5895630000000  0.4412870000000 1.0
C      1  0.4915430000000  0.5578960000000  0.5162960000000 1.0
C      1  0.4750790000000  0.4143460000000  0.4462640000000 1.0
C      1  0.4682900000000  0.5767930000000  0.4637600000000 1.0
C      1  0.4237850000000  0.5417660000000  0.5227530000000 1.0
C      1  0.5190290000000  0.4161670000000  0.4726940000000 1.0
C      1  0.4989330000000  0.5028670000000  0.6125610000000 1.0
C      1  0.4432300000000  0.4540030000000  0.4871680000000 1.0
C      1  0.4101970000000  0.4953550000000  0.5931910000000 1.0
C      1  0.4702810000000  0.4803530000000  0.4523730000000 1.0
C      1  0.5555570000000  0.6444500000000  0.5528150000000 1.0
C      1  0.5637110000000  0.4826840000000  0.5669430000000 1.0
C      1  0.5558120000000  0.4774010000000  0.5151330000000 1.0
C      1  0.5760820000000  0.5238610000000  0.5052700000000 1.0
C      1  0.5228450000000  0.5850560000000  0.4875730000000 1.0
C      1  0.4050280000000  0.5042510000000  0.4954230000000 1.0
C      1  0.4847130000000  0.5002290000000  0.5167530000000 1.0
C      1  0.3964700000000  0.4781200000000  0.4567680000000 1.0
C      1  0.4519280000000  0.4689070000000  0.5103030000000 1.0
C      1  0.5273060000000  0.5899510000000  0.4597530000000 1.0
C      1  0.5478590000000  0.4877080000000  0.5401650000000 1.0
C      1  0.4108600000000  0.4612190000000  0.5296690000000 1.0
C      1  0.4973510000000  0.4922710000000  0.4445600000000 1.0
C      1  0.5538200000000  0.4334940000000  0.5622450000000 1.0
C      1  0.5200560000000  0.4720510000000  0.4845190000000 1.0
C      1  0.5097930000000  0.4473960000000  0.4375310000000 1.0
C      1  0.4950150000000  0.5222040000000  0.4544200000000 1.0
C      1  0.5746170000000  0.5312580000000  0.5744690000000 1.0
C      1  0.4569580000000  0.5692420000000  0.5558950000000 1.0
C      1  0.5226160000000  0.5325100000000  0.4449310000000 1.0
C      1  0.6358930000000  0.5047190000000  0.4699740000000 1.0
C      1  0.4789420000000  0.5851100000000  0.5577050000000 1.0
C      1  0.4628470000000  0.5925720000000  0.4896460000000 1.0
C      1  0.4183920000000  0.5106740000000  0.5206490000000 1.0
C      1  0.6029980000000  0.4957880000000  0.5354920000000 1.0
C      1  0.5319330000000  0.5411970000000  0.4986970000000 1.0
C      1  0.4602340000000  0.4149150000000  0.5225790000000 1.0
C      1  0.5462120000000  0.5195170000000  0.4563670000000 1.0
C      1  0.4545080000000  0.4623560000000  0.4634190000000 1.0
C      1  0.6194980000000  0.5070770000000  0.4906410000000 1.0
C      1  0.4968880000000  0.4565640000000  0.4134120000000 1.0
C      1  0.5996220000000  0.5085550000000  0.5101480000000 1.0
C      1  0.5919990000000  0.4831270000000  0.5568890000000 1.0
C      1  0.5572260000000  0.5096050000000  0.5807610000000 1.0
C      1  0.6513730000000  0.5019080000000  0.4486450000000 1.0
C      1  0.5489530000000  0.5182990000000  0.4872760000000 1.0
C      1  0.5269640000000  0.6014000000000  0.5356510000000 1.0
C      1  0.3988600000000  0.4568800000000  0.5026070000000 1.0
C      1  0.4677950000000  0.4513320000000  0.4110280000000 1.0
C      1  0.4497120000000  0.5182330000000  0.4788940000000 1.0
C      1  0.5135570000000  0.5539560000000  0.4265250000000 1.0
C      1  0.4976240000000  0.5069930000000  0.5410140000000 1.0
C      1  0.4354840000000  0.4945560000000  0.4216970000000 1.0
C      1  0.5227460000000  0.5003050000000  0.3970360000000 1.0
C      1  0.5257280000000  0.5054370000000  0.5466630000000 1.0
C      1  0.5470880000000  0.4308040000000  0.4718980000000 1.0
C      1  0.4879730000000  0.5526330000000  0.4706420000000 1.0
C      1  0.5407340000000  0.4893090000000  0.4940930000000 1.0
C      1  0.5370740000000  0.5864630000000  0.5134840000000 1.0
C      1  0.5790110000000  0.5446140000000  0.5513830000000 1.0
C      1  0.4397080000000  0.5719220000000  0.4558350000000 1.0
C      1  0.4988710000000  0.4549700000000  0.6005840000000 1.0
C      1  0.3936760000000  0.4800630000000  0.4857420000000 1.0
C      1  0.4076870000000  0.5388770000000  0.4640800000000 1.0
C      1  0.5145530000000  0.4698670000000  0.4565360000000 1.0
C      1  0.5172530000000  0.4459630000000  0.5322390000000 1.0
C      1  0.4409510000000  0.5872830000000  0.5055720000000 1.0
END
