TITL C-627113-6568-412 -0.00195600580585063 125000 -296.405903011326 0 0 51 (C1) n - 1
REM
REM in /home/nfs/bkarasulu/CARBON/AIRSS/Generating-Clusters/LCBOP/Only-C1/SD-CG/FIRE-CG
REM
REM
REM
REM
REM
REM ./C.cell (11c1c37f851c82e70ff6c80c92926a4b)
REM AIRSS Version 0.9.1 bugfix July 2018 build 013d7b7c2542+ Fri, 06 Jul 2018 19:26:36 +0100
REM compiler GCC version 9.2.1 20190827 (Red Hat 9.2.1-1)
REM options -cpp -mtune=generic -march=x86-64 -g -O0 -fpre-include=/usr/include/finclude/math-vector-fortran.h
REM seed -689478559 -1340881019 312885891 1597522327 391079321 -1032733534 -1300262542 1171951211 -1189801209 -708527688 862218040 2138449589 -299178160 -53633368 1475609531 -1579624319 -1476405619 2007297440 -562807152 2106852737 387475854 -2022461657 -533295289 -1206784119 -244857708 1280778235 -1497339146 -1442597593 -1660847503 -1333283532 1321791606 -1869901246 -1305565969
REM
CELL 1.54180   50.00000   50.00000   50.00000   90.00000   90.00000   90.00000
LATT -1
SFAC C  
C      1  0.5128880000000  0.4694300000000  0.4554520000000 1.0
C      1  0.5608260000000  0.4602530000000  0.5423310000000 1.0
C      1  0.4622380000000  0.5168080000000  0.4767300000000 1.0
C      1  0.5696580000000  0.4894240000000  0.4597950000000 1.0
C      1  0.5617890000000  0.5451280000000  0.5058210000000 1.0
C      1  0.4712080000000  0.5337760000000  0.4064590000000 1.0
C      1  0.5823420000000  0.4307330000000  0.4952000000000 1.0
C      1  0.4790880000000  0.4444110000000  0.5228730000000 1.0
C      1  0.4727100000000  0.4516180000000  0.4793080000000 1.0
C      1  0.5724340000000  0.5206280000000  0.4980360000000 1.0
C      1  0.4906230000000  0.4970340000000  0.5697340000000 1.0
C      1  0.4818240000000  0.4305130000000  0.4977350000000 1.0
C      1  0.5501550000000  0.4511890000000  0.5648240000000 1.0
C      1  0.4459200000000  0.4602330000000  0.4914810000000 1.0
C      1  0.5737390000000  0.4989680000000  0.5159930000000 1.0
C      1  0.4280590000000  0.4765230000000  0.4754720000000 1.0
C      1  0.5062930000000  0.5128260000000  0.5012760000000 1.0
C      1  0.4649990000000  0.5196580000000  0.4274690000000 1.0
C      1  0.4092360000000  0.5246050000000  0.4843380000000 1.0
C      1  0.5365810000000  0.5657940000000  0.5416670000000 1.0
C      1  0.5083690000000  0.4829290000000  0.4321190000000 1.0
C      1  0.5380320000000  0.4430320000000  0.5864130000000 1.0
C      1  0.5024500000000  0.5175210000000  0.5817830000000 1.0
C      1  0.4489050000000  0.5587290000000  0.4843570000000 1.0
C      1  0.4400540000000  0.4840720000000  0.4505510000000 1.0
C      1  0.4514950000000  0.5084290000000  0.5016460000000 1.0
C      1  0.4269730000000  0.5215400000000  0.5421330000000 1.0
C      1  0.5364020000000  0.4534940000000  0.4579950000000 1.0
C      1  0.4947800000000  0.4706110000000  0.4772240000000 1.0
C      1  0.5283520000000  0.5586000000000  0.5659110000000 1.0
C      1  0.5089220000000  0.6077210000000  0.4699760000000 1.0
C      1  0.5018460000000  0.4844390000000  0.5022490000000 1.0
C      1  0.5750090000000  0.5132930000000  0.4709450000000 1.0
C      1  0.5593760000000  0.4651800000000  0.4698180000000 1.0
C      1  0.5159480000000  0.5404050000000  0.5808310000000 1.0
C      1  0.5700410000000  0.4551910000000  0.4944010000000 1.0
C      1  0.5392490000000  0.5591560000000  0.5146420000000 1.0
C      1  0.4808630000000  0.4830100000000  0.5480730000000 1.0
C      1  0.5685300000000  0.4714050000000  0.5179460000000 1.0
C      1  0.4532780000000  0.4806450000000  0.5387510000000 1.0
C      1  0.4957420000000  0.4692630000000  0.5268790000000 1.0
C      1  0.4570020000000  0.5067370000000  0.4507220000000 1.0
C      1  0.4095750000000  0.4971230000000  0.4840490000000 1.0
C      1  0.4426550000000  0.5044180000000  0.5280030000000 1.0
C      1  0.4234480000000  0.5480010000000  0.4844090000000 1.0
C      1  0.5169490000000  0.5617780000000  0.4971500000000 1.0
C      1  0.4731290000000  0.5430050000000  0.4821130000000 1.0
C      1  0.4991270000000  0.5399940000000  0.4938260000000 1.0
C      1  0.4510590000000  0.4573830000000  0.5210190000000 1.0
C      1  0.5130950000000  0.5856450000000  0.4831800000000 1.0
C      1  0.5367340000000  0.4277000000000  0.4488890000000 1.0
END
