TITL C-627110-360-1977 23.7323624699368 125000 -245.632532048375 0 0 44 (C1) n - 1
REM
REM in /home/nfs/bkarasulu/CARBON/AIRSS/Generating-Clusters/LCBOP/Only-C1/SD-CG/FIRE-CG
REM
REM
REM
REM
REM
REM ./C.cell (11c1c37f851c82e70ff6c80c92926a4b)
REM AIRSS Version 0.9.1 bugfix July 2018 build 013d7b7c2542+ Fri, 06 Jul 2018 19:26:36 +0100
REM compiler GCC version 9.2.1 20190827 (Red Hat 9.2.1-1)
REM options -cpp -mtune=generic -march=x86-64 -g -O0 -fpre-include=/usr/include/finclude/math-vector-fortran.h
REM seed 708972641 -307539746 291694669 1456591856 2105139684 1385828371 -468403339 -1487703512 599683078 -1562207343 2046655469 -1140438711 2091515486 369984773 -121990452 -2142791110 -383967271 608216820 -2094989529 598196986 -990147564 697801054 -1773579258 948061925 2347185 218278643 -2037072345 1341929393 809277582 1013581705 1150846727 2144355376 679354481
REM
CELL 1.54180   50.00000   50.00000   50.00000   90.00000   90.00000   90.00000
LATT -1
SFAC C  
C      1  0.4824550000000  0.4777470000000  0.5589260000000 1.0
C      1  0.5371490000000  0.4614740000000  0.4473230000000 1.0
C      1  0.4911560000000  0.5835310000000  0.4672120000000 1.0
C      1  0.5258390000000  0.3334940000000  0.5827570000000 1.0
C      1  0.4612640000000  0.4553080000000  0.4999130000000 1.0
C      1  0.5635920000000  0.5354640000000  0.4027970000000 1.0
C      1  0.4591550000000  0.4160000000000  0.5356030000000 1.0
C      1  0.5098250000000  0.5737640000000  0.4495880000000 1.0
C      1  0.5234310000000  0.4458270000000  0.4630270000000 1.0
C      1  0.4963030000000  0.6236170000000  0.5277340000000 1.0
C      1  0.4722310000000  0.4584240000000  0.5765940000000 1.0
C      1  0.4831270000000  0.5565940000000  0.5549840000000 1.0
C      1  0.5445160000000  0.5025930000000  0.3727500000000 1.0
C      1  0.4951080000000  0.6056170000000  0.5487330000000 1.0
C      1  0.4939350000000  0.4684880000000  0.5344160000000 1.0
C      1  0.4809340000000  0.5823720000000  0.5116830000000 1.0
C      1  0.4858690000000  0.5796100000000  0.5400260000000 1.0
C      1  0.5015820000000  0.4054910000000  0.5567050000000 1.0
C      1  0.5689560000000  0.4875960000000  0.4118050000000 1.0
C      1  0.4673660000000  0.4310320000000  0.5809100000000 1.0
C      1  0.4814330000000  0.5049760000000  0.5646760000000 1.0
C      1  0.4821550000000  0.6115610000000  0.4742610000000 1.0
C      1  0.4725300000000  0.5694430000000  0.4865690000000 1.0
C      1  0.5148170000000  0.4496530000000  0.5358400000000 1.0
C      1  0.4531740000000  0.6078630000000  0.4698020000000 1.0
C      1  0.5861680000000  0.5482830000000  0.3941510000000 1.0
C      1  0.5521140000000  0.4755420000000  0.4305830000000 1.0
C      1  0.5103840000000  0.3806350000000  0.5653850000000 1.0
C      1  0.4879240000000  0.6114860000000  0.5030700000000 1.0
C      1  0.5274580000000  0.5616590000000  0.4339640000000 1.0
C      1  0.5450020000000  0.5486920000000  0.4189430000000 1.0
C      1  0.4743850000000  0.4139400000000  0.5591440000000 1.0
C      1  0.4481250000000  0.4601160000000  0.4763760000000 1.0
C      1  0.4872150000000  0.4963010000000  0.4954940000000 1.0
C      1  0.4221110000000  0.5675870000000  0.4760770000000 1.0
C      1  0.4459900000000  0.5801880000000  0.4772300000000 1.0
C      1  0.5182120000000  0.3568760000000  0.5741100000000 1.0
C      1  0.5587490000000  0.5084440000000  0.3953860000000 1.0
C      1  0.5185170000000  0.4246280000000  0.5447880000000 1.0
C      1  0.4808900000000  0.4737170000000  0.5096610000000 1.0
C      1  0.4567470000000  0.4214150000000  0.6041000000000 1.0
C      1  0.5949300000000  0.4794150000000  0.4091110000000 1.0
C      1  0.4555240000000  0.4321140000000  0.5146710000000 1.0
C      1  0.4816580000000  0.5314240000000  0.5631240000000 1.0
END
