TITL C-627113-6568-158 -2461.9388651389 125000 -1157.18490460324 0 0 187 (C1) n - 1
REM
REM in /home/nfs/bkarasulu/CARBON/AIRSS/Generating-Clusters/LCBOP/Only-C1/SD-CG/FIRE-CG
REM
REM
REM
REM
REM
REM ./C.cell (11c1c37f851c82e70ff6c80c92926a4b)
REM AIRSS Version 0.9.1 bugfix July 2018 build 013d7b7c2542+ Fri, 06 Jul 2018 19:26:36 +0100
REM compiler GCC version 9.2.1 20190827 (Red Hat 9.2.1-1)
REM options -cpp -mtune=generic -march=x86-64 -g -O0 -fpre-include=/usr/include/finclude/math-vector-fortran.h
REM seed -579205010 1584291161 -1592868739 -1390919401 348850708 -388638485 461906529 77428663 1875924348 -32393892 1079223188 -1807457349 816012632 541279454 1425548269 -130860574 -1080821775 -2033312082 1316409222 1380746975 -455685159 2078578414 1550944160 -1330821967 1540021067 656201312 2013774834 1049027316 925102007 -1476102057 513798414 -830363177 501689315
REM
CELL 1.54180   50.00000   50.00000   50.00000   90.00000   90.00000   90.00000
LATT -1
SFAC C  
C      1  0.5113880000000  0.4067550000000  0.5430370000000 1.0
C      1  0.5594600000000  0.5502950000000  0.6728990000000 1.0
C      1  0.5116240000000  0.5783120000000  0.4155800000000 1.0
C      1  0.4041510000000  0.4266920000000  0.5285810000000 1.0
C      1  0.4073870000000  0.4607600000000  0.5600990000000 1.0
C      1  0.4711010000000  0.5951750000000  0.5598410000000 1.0
C      1  0.5538190000000  0.5540520000000  0.5933750000000 1.0
C      1  0.4645020000000  0.3925290000000  0.5426020000000 1.0
C      1  0.5446750000000  0.5455060000000  0.4716470000000 1.0
C      1  0.5514640000000  0.4495360000000  0.4876380000000 1.0
C      1  0.5647890000000  0.5802730000000  0.5152590000000 1.0
C      1  0.5715410000000  0.4951550000000  0.4947920000000 1.0
C      1  0.4264350000000  0.5920530000000  0.4761210000000 1.0
C      1  0.4223190000000  0.5568220000000  0.4185730000000 1.0
C      1  0.4623500000000  0.4390970000000  0.5169460000000 1.0
C      1  0.5238790000000  0.4113470000000  0.4298720000000 1.0
C      1  0.4971170000000  0.5087800000000  0.5944670000000 1.0
C      1  0.4097450000000  0.5025990000000  0.4605980000000 1.0
C      1  0.5276530000000  0.6415220000000  0.5024590000000 1.0
C      1  0.4789780000000  0.4848490000000  0.5075740000000 1.0
C      1  0.5102950000000  0.4414140000000  0.5117130000000 1.0
C      1  0.4742690000000  0.4024090000000  0.4281950000000 1.0
C      1  0.6052000000000  0.5164840000000  0.5499340000000 1.0
C      1  0.4979540000000  0.4875160000000  0.5276530000000 1.0
C      1  0.4518560000000  0.4127000000000  0.4176810000000 1.0
C      1  0.3961280000000  0.5356080000000  0.4886890000000 1.0
C      1  0.5530230000000  0.5893230000000  0.4555060000000 1.0
C      1  0.3740960000000  0.4752080000000  0.4817530000000 1.0
C      1  0.5849660000000  0.4972190000000  0.5928190000000 1.0
C      1  0.5167370000000  0.4284100000000  0.3846490000000 1.0
C      1  0.5694020000000  0.4149590000000  0.5949030000000 1.0
C      1  0.5535670000000  0.4474860000000  0.4158060000000 1.0
C      1  0.5159120000000  0.3946460000000  0.5167160000000 1.0
C      1  0.4457260000000  0.5406260000000  0.5011940000000 1.0
C      1  0.5478820000000  0.4697480000000  0.5689090000000 1.0
C      1  0.5333590000000  0.3965710000000  0.4726220000000 1.0
C      1  0.5994070000000  0.5444900000000  0.5067750000000 1.0
C      1  0.5630360000000  0.5752150000000  0.4328070000000 1.0
C      1  0.5595130000000  0.4720930000000  0.5035730000000 1.0
C      1  0.3959960000000  0.5285540000000  0.4589990000000 1.0
C      1  0.4532550000000  0.5427840000000  0.5916570000000 1.0
C      1  0.4915050000000  0.3901590000000  0.4988030000000 1.0
C      1  0.4329420000000  0.6121190000000  0.4578120000000 1.0
C      1  0.4467300000000  0.5416170000000  0.4533450000000 1.0
C      1  0.3978470000000  0.4774260000000  0.4658320000000 1.0
C      1  0.4951670000000  0.5163490000000  0.3811840000000 1.0
C      1  0.4987690000000  0.4013770000000  0.4418420000000 1.0
C      1  0.5316200000000  0.4291710000000  0.4083730000000 1.0
C      1  0.4393690000000  0.5110970000000  0.4613650000000 1.0
C      1  0.5428560000000  0.5626260000000  0.5203850000000 1.0
C      1  0.4738690000000  0.5246730000000  0.5565830000000 1.0
C      1  0.4138780000000  0.5092850000000  0.5540020000000 1.0
C      1  0.4004790000000  0.5388250000000  0.4304280000000 1.0
C      1  0.5400410000000  0.4988520000000  0.5660410000000 1.0
C      1  0.5994870000000  0.4947910000000  0.5678970000000 1.0
C      1  0.5714560000000  0.5294500000000  0.4345930000000 1.0
C      1  0.5679720000000  0.4266680000000  0.4425000000000 1.0
C      1  0.3850200000000  0.5152670000000  0.5076140000000 1.0
C      1  0.4503570000000  0.4706070000000  0.5570240000000 1.0
C      1  0.3890050000000  0.5494590000000  0.5637680000000 1.0
C      1  0.4759320000000  0.4558990000000  0.4407530000000 1.0
C      1  0.5874680000000  0.5649210000000  0.5259100000000 1.0
C      1  0.5169540000000  0.4369200000000  0.5418870000000 1.0
C      1  0.5805900000000  0.5645040000000  0.5552880000000 1.0
C      1  0.5660030000000  0.5425540000000  0.5693440000000 1.0
C      1  0.4955080000000  0.4715700000000  0.6246040000000 1.0
C      1  0.5921790000000  0.4249500000000  0.5842970000000 1.0
C      1  0.5573670000000  0.5170730000000  0.4126740000000 1.0
C      1  0.5102490000000  0.6008680000000  0.5244310000000 1.0
C      1  0.5377910000000  0.5376960000000  0.4056050000000 1.0
C      1  0.4176630000000  0.4320510000000  0.5548140000000 1.0
C      1  0.5068150000000  0.5287500000000  0.4893360000000 1.0
C      1  0.4659080000000  0.4507470000000  0.5437840000000 1.0
C      1  0.3934270000000  0.4942060000000  0.4031810000000 1.0
C      1  0.4935060000000  0.4521570000000  0.5541660000000 1.0
C      1  0.4878350000000  0.3990600000000  0.5579180000000 1.0
C      1  0.5510390000000  0.5236460000000  0.5532790000000 1.0
C      1  0.4139780000000  0.5374090000000  0.5625430000000 1.0
C      1  0.5639660000000  0.4978370000000  0.6104540000000 1.0
C      1  0.5667720000000  0.4771740000000  0.4532010000000 1.0
C      1  0.5947260000000  0.4430900000000  0.5151880000000 1.0
C      1  0.3898510000000  0.4711510000000  0.5378380000000 1.0
C      1  0.4676980000000  0.5554080000000  0.3909560000000 1.0
C      1  0.4979900000000  0.4803410000000  0.5549010000000 1.0
C      1  0.5838160000000  0.5549840000000  0.4417210000000 1.0
C      1  0.4905800000000  0.4682670000000  0.3897510000000 1.0
C      1  0.4398850000000  0.4934110000000  0.4093950000000 1.0
C      1  0.3947900000000  0.5009390000000  0.5320410000000 1.0
C      1  0.4190460000000  0.4328460000000  0.4458350000000 1.0
C      1  0.5191060000000  0.4630750000000  0.4528920000000 1.0
C      1  0.5568540000000  0.5491540000000  0.6204230000000 1.0
C      1  0.5898810000000  0.4371410000000  0.4589490000000 1.0
C      1  0.5116690000000  0.4819690000000  0.4319410000000 1.0
C      1  0.4689010000000  0.5584600000000  0.5021340000000 1.0
C      1  0.4962210000000  0.5620380000000  0.3959950000000 1.0
C      1  0.5091660000000  0.4954080000000  0.6172750000000 1.0
C      1  0.4680790000000  0.5277290000000  0.3807930000000 1.0
C      1  0.5442650000000  0.4533160000000  0.5440050000000 1.0
C      1  0.4910770000000  0.5842070000000  0.4363220000000 1.0
C      1  0.3716180000000  0.4517350000000  0.4973740000000 1.0
C      1  0.5388580000000  0.4019620000000  0.5000730000000 1.0
C      1  0.5341850000000  0.4853390000000  0.3824150000000 1.0
C      1  0.4743970000000  0.4140990000000  0.5795200000000 1.0
C      1  0.5578150000000  0.5242160000000  0.4590320000000 1.0
C      1  0.5182600000000  0.4164200000000  0.6019840000000 1.0
C      1  0.4635230000000  0.5898500000000  0.4251880000000 1.0
C      1  0.5452050000000  0.4546890000000  0.5924670000000 1.0
C      1  0.5116080000000  0.4980160000000  0.5718090000000 1.0
C      1  0.4921010000000  0.4600260000000  0.4650620000000 1.0
C      1  0.4166220000000  0.4778500000000  0.4037090000000 1.0
C      1  0.5228670000000  0.4944180000000  0.5191400000000 1.0
C      1  0.5424560000000  0.4757410000000  0.5243520000000 1.0
C      1  0.4297210000000  0.5642210000000  0.4677210000000 1.0
C      1  0.4651750000000  0.5830830000000  0.5156740000000 1.0
C      1  0.4933190000000  0.5426110000000  0.5488620000000 1.0
C      1  0.4954250000000  0.4433290000000  0.3775640000000 1.0
C      1  0.5588500000000  0.5501250000000  0.6468390000000 1.0
C      1  0.5441990000000  0.4271580000000  0.5986120000000 1.0
C      1  0.5431310000000  0.5349370000000  0.5265730000000 1.0
C      1  0.5521310000000  0.4821100000000  0.4041670000000 1.0
C      1  0.5415540000000  0.5723870000000  0.4733240000000 1.0
C      1  0.4481670000000  0.5099850000000  0.3885060000000 1.0
C      1  0.5103940000000  0.5635060000000  0.5536150000000 1.0
C      1  0.4572100000000  0.5123050000000  0.5379680000000 1.0
C      1  0.4202140000000  0.4141480000000  0.5092730000000 1.0
C      1  0.5687280000000  0.4341670000000  0.5269020000000 1.0
C      1  0.4854750000000  0.4481980000000  0.6156190000000 1.0
C      1  0.6156760000000  0.4788610000000  0.4603080000000 1.0
C      1  0.4935720000000  0.5274520000000  0.4287030000000 1.0
C      1  0.4486550000000  0.6111640000000  0.4360870000000 1.0
C      1  0.4204570000000  0.5501110000000  0.4921570000000 1.0
C      1  0.4108560000000  0.4533970000000  0.4604430000000 1.0
C      1  0.5460540000000  0.4085300000000  0.4492370000000 1.0
C      1  0.5153910000000  0.5795720000000  0.5770400000000 1.0
C      1  0.5660070000000  0.5891420000000  0.5666480000000 1.0
C      1  0.4744420000000  0.5431990000000  0.4437920000000 1.0
C      1  0.6071190000000  0.4671670000000  0.5268790000000 1.0
C      1  0.4558510000000  0.4986360000000  0.5130670000000 1.0
C      1  0.4858700000000  0.4407830000000  0.5016230000000 1.0
C      1  0.4363720000000  0.5547750000000  0.5708470000000 1.0
C      1  0.4825680000000  0.5996900000000  0.5319590000000 1.0
C      1  0.4465920000000  0.5132920000000  0.4914530000000 1.0
C      1  0.4379250000000  0.5861850000000  0.5270800000000 1.0
C      1  0.5060510000000  0.4901870000000  0.3793380000000 1.0
C      1  0.4888970000000  0.4685280000000  0.4180070000000 1.0
C      1  0.5081370000000  0.5336990000000  0.4020790000000 1.0
C      1  0.4909240000000  0.5942430000000  0.5808330000000 1.0
C      1  0.3654560000000  0.4991720000000  0.4939590000000 1.0
C      1  0.6053190000000  0.4688770000000  0.5561270000000 1.0
C      1  0.6238330000000  0.4880080000000  0.4842540000000 1.0
C      1  0.4907480000000  0.4248850000000  0.6003600000000 1.0
C      1  0.4890980000000  0.5644610000000  0.4579450000000 1.0
C      1  0.5450680000000  0.4596190000000  0.4619230000000 1.0
C      1  0.5928110000000  0.4649620000000  0.4515940000000 1.0
C      1  0.4206060000000  0.4499150000000  0.4021590000000 1.0
C      1  0.5968720000000  0.5518020000000  0.4747310000000 1.0
C      1  0.4916480000000  0.5536640000000  0.4851850000000 1.0
C      1  0.4657450000000  0.3933670000000  0.5135540000000 1.0
C      1  0.5032530000000  0.3928970000000  0.4699490000000 1.0
C      1  0.4296280000000  0.4297780000000  0.4200000000000 1.0
C      1  0.4417120000000  0.4150880000000  0.5629190000000 1.0
C      1  0.5578920000000  0.6077650000000  0.5228530000000 1.0
C      1  0.6147220000000  0.4913650000000  0.5108100000000 1.0
C      1  0.4491800000000  0.5683390000000  0.4097050000000 1.0
C      1  0.3894310000000  0.5198320000000  0.4113870000000 1.0
C      1  0.4880380000000  0.4832640000000  0.4811530000000 1.0
C      1  0.5658680000000  0.6120900000000  0.5499650000000 1.0
C      1  0.6078920000000  0.5183540000000  0.5210040000000 1.0
C      1  0.5381020000000  0.4977750000000  0.6197320000000 1.0
C      1  0.4487270000000  0.4968030000000  0.4361800000000 1.0
C      1  0.6044340000000  0.4452330000000  0.5716580000000 1.0
C      1  0.5054280000000  0.5070700000000  0.4433880000000 1.0
C      1  0.5003920000000  0.5072430000000  0.4712590000000 1.0
C      1  0.4221110000000  0.5955940000000  0.5048680000000 1.0
C      1  0.5205130000000  0.5752230000000  0.5304560000000 1.0
C      1  0.5535320000000  0.4253480000000  0.5039020000000 1.0
C      1  0.5314450000000  0.6181250000000  0.5158870000000 1.0
C      1  0.5665130000000  0.5006200000000  0.4686160000000 1.0
C      1  0.3855610000000  0.4477230000000  0.5213200000000 1.0
C      1  0.5254050000000  0.5205090000000  0.5101140000000 1.0
C      1  0.4479880000000  0.4156950000000  0.5081350000000 1.0
C      1  0.4441130000000  0.5800690000000  0.5564210000000 1.0
C      1  0.4258850000000  0.4831490000000  0.5635070000000 1.0
C      1  0.5433640000000  0.5799290000000  0.5839660000000 1.0
C      1  0.4733680000000  0.5230230000000  0.5856930000000 1.0
C      1  0.5985590000000  0.4332880000000  0.4870580000000 1.0
C      1  0.5402380000000  0.5665110000000  0.4156480000000 1.0
END
