TITL C-627113-6568-1354 -7.22519568432858e-07 125000 -158.637781163017 0 0 27 (C1) n - 1
REM
REM in /home/nfs/bkarasulu/CARBON/AIRSS/Generating-Clusters/LCBOP/Only-C1/SD-CG/FIRE-CG
REM
REM
REM
REM
REM
REM ./C.cell (11c1c37f851c82e70ff6c80c92926a4b)
REM AIRSS Version 0.9.1 bugfix July 2018 build 013d7b7c2542+ Fri, 06 Jul 2018 19:26:36 +0100
REM compiler GCC version 9.2.1 20190827 (Red Hat 9.2.1-1)
REM options -cpp -mtune=generic -march=x86-64 -g -O0 -fpre-include=/usr/include/finclude/math-vector-fortran.h
REM seed 1913181431 -1607436073 363899341 56261597 1575552840 -699649727 319314696 1528536501 1993608253 681387744 -29687447 2075016517 1579192968 520256598 -1125790103 316682789 938455182 -1568439060 1639669195 1234155788 1186562875 -840023355 -979313099 885124501 1942688893 1355905005 -1196094601 137372808 877452476 -952395639 2110850534 1208792831 74970343
REM
CELL 1.54180   50.00000   50.00000   50.00000   90.00000   90.00000   90.00000
LATT -1
SFAC C  
C      1  0.5181900000000  0.5267280000000  0.5489190000000 1.0
C      1  0.5166120000000  0.4840070000000  0.4440480000000 1.0
C      1  0.4682590000000  0.5285870000000  0.5275040000000 1.0
C      1  0.4903290000000  0.5270910000000  0.5447330000000 1.0
C      1  0.5305670000000  0.4331330000000  0.4832690000000 1.0
C      1  0.5194830000000  0.5037480000000  0.4644820000000 1.0
C      1  0.5282220000000  0.5273540000000  0.5749770000000 1.0
C      1  0.5471210000000  0.5285180000000  0.6240130000000 1.0
C      1  0.4820090000000  0.5327530000000  0.4787430000000 1.0
C      1  0.4645700000000  0.4779680000000  0.4416190000000 1.0
C      1  0.4972480000000  0.4627240000000  0.5066340000000 1.0
C      1  0.4901630000000  0.4869820000000  0.4979820000000 1.0
C      1  0.5397820000000  0.4416540000000  0.4595550000000 1.0
C      1  0.5360700000000  0.5257100000000  0.5271510000000 1.0
C      1  0.4957450000000  0.5079390000000  0.4799820000000 1.0
C      1  0.4342050000000  0.4847990000000  0.4835850000000 1.0
C      1  0.4467590000000  0.5103470000000  0.5266800000000 1.0
C      1  0.4724790000000  0.5425400000000  0.5032930000000 1.0
C      1  0.4345210000000  0.4950010000000  0.5083320000000 1.0
C      1  0.5347320000000  0.4624960000000  0.4433950000000 1.0
C      1  0.4448920000000  0.4793330000000  0.4596870000000 1.0
C      1  0.5131250000000  0.4417760000000  0.5016860000000 1.0
C      1  0.4902720000000  0.4801760000000  0.4343440000000 1.0
C      1  0.5425530000000  0.5132200000000  0.4775020000000 1.0
C      1  0.4779720000000  0.5461250000000  0.4553190000000 1.0
C      1  0.5377480000000  0.5279410000000  0.5996930000000 1.0
C      1  0.5463720000000  0.5213500000000  0.5028730000000 1.0
END
