TITL C-627107-135-336 -5.55301879751821e-07 125000 -588.84421137087 0 0 97 (C1) n - 1
REM
REM in /home/nfs/bkarasulu/CARBON/AIRSS/Generating-Clusters/LCBOP/Only-C1/SD-CG/FIRE-CG
REM
REM
REM
REM
REM
REM ./C.cell (11c1c37f851c82e70ff6c80c92926a4b)
REM AIRSS Version 0.9.1 bugfix July 2018 build 013d7b7c2542+ Fri, 06 Jul 2018 19:26:36 +0100
REM compiler GCC version 9.2.1 20190827 (Red Hat 9.2.1-1)
REM options -cpp -mtune=generic -march=x86-64 -g -O0 -fpre-include=/usr/include/finclude/math-vector-fortran.h
REM seed 75260762 -1386860348 -1806268235 1797543205 -25064066 2140039977 -1162675894 -990608149 -1053836042 598359692 -74382259 -1316665579 -1106352092 341468461 -1790629089 -1442796521 -1080356152 -86334692 -555051108 287572764 -879738004 1256561040 217334841 806979959 -558345272 1760588593 -1412105201 626903055 -2071247691 157906482 1223187212 230001186 979308317
REM
CELL 1.54180   50.00000   50.00000   50.00000   90.00000   90.00000   90.00000
LATT -1
SFAC C  
C      1  0.4926340000000  0.4483130000000  0.5247370000000 1.0
C      1  0.4356130000000  0.4743250000000  0.4893380000000 1.0
C      1  0.5109880000000  0.4729620000000  0.3961620000000 1.0
C      1  0.4595670000000  0.4666740000000  0.4031700000000 1.0
C      1  0.5325530000000  0.5221910000000  0.5995790000000 1.0
C      1  0.4561030000000  0.5721130000000  0.4588570000000 1.0
C      1  0.4847070000000  0.5602480000000  0.5772630000000 1.0
C      1  0.5582760000000  0.5789970000000  0.4820750000000 1.0
C      1  0.5734290000000  0.4904260000000  0.5195710000000 1.0
C      1  0.5172480000000  0.4681210000000  0.4837150000000 1.0
C      1  0.5580450000000  0.5063460000000  0.5400800000000 1.0
C      1  0.5118560000000  0.4592940000000  0.4540660000000 1.0
C      1  0.5555250000000  0.4403420000000  0.4466150000000 1.0
C      1  0.5353980000000  0.5120190000000  0.4814110000000 1.0
C      1  0.4032100000000  0.4765230000000  0.5208540000000 1.0
C      1  0.4553170000000  0.4903920000000  0.5009460000000 1.0
C      1  0.4796260000000  0.5159040000000  0.5342910000000 1.0
C      1  0.5395460000000  0.4845500000000  0.4858720000000 1.0
C      1  0.4704800000000  0.5119350000000  0.5082760000000 1.0
C      1  0.4842590000000  0.5541480000000  0.4267620000000 1.0
C      1  0.4455010000000  0.4497930000000  0.4748590000000 1.0
C      1  0.4766520000000  0.5329860000000  0.5779750000000 1.0
C      1  0.4933680000000  0.4613320000000  0.4992660000000 1.0
C      1  0.4762400000000  0.4601390000000  0.5716260000000 1.0
C      1  0.4406080000000  0.4880790000000  0.5895080000000 1.0
C      1  0.4095730000000  0.4849670000000  0.4941890000000 1.0
C      1  0.4442370000000  0.4220020000000  0.4884110000000 1.0
C      1  0.4908400000000  0.5772070000000  0.5566630000000 1.0
C      1  0.5480120000000  0.5307650000000  0.4981160000000 1.0
C      1  0.4686890000000  0.4847780000000  0.5852760000000 1.0
C      1  0.5287050000000  0.4736000000000  0.5529940000000 1.0
C      1  0.5808260000000  0.5161690000000  0.4478990000000 1.0
C      1  0.5759950000000  0.5349050000000  0.4927240000000 1.0
C      1  0.4165010000000  0.5235360000000  0.4594340000000 1.0
C      1  0.4243830000000  0.5045700000000  0.5753910000000 1.0
C      1  0.4705460000000  0.4523460000000  0.5440760000000 1.0
C      1  0.5679530000000  0.5203700000000  0.5626260000000 1.0
C      1  0.5297240000000  0.5323680000000  0.4142810000000 1.0
C      1  0.4375310000000  0.4554150000000  0.4459820000000 1.0
C      1  0.4442640000000  0.4749870000000  0.4259120000000 1.0
C      1  0.5362400000000  0.5877040000000  0.4956150000000 1.0
C      1  0.4566580000000  0.5501740000000  0.4392720000000 1.0
C      1  0.5641460000000  0.4602990000000  0.5213320000000 1.0
C      1  0.4400460000000  0.4241270000000  0.5166450000000 1.0
C      1  0.5176110000000  0.4074650000000  0.4845700000000 1.0
C      1  0.5834150000000  0.4961740000000  0.4694020000000 1.0
C      1  0.4884710000000  0.4410880000000  0.5885870000000 1.0
C      1  0.4958300000000  0.4827300000000  0.4450350000000 1.0
C      1  0.4432320000000  0.4455690000000  0.5354050000000 1.0
C      1  0.4785300000000  0.5019090000000  0.4409100000000 1.0
C      1  0.5310850000000  0.4785940000000  0.4158340000000 1.0
C      1  0.4928390000000  0.4118610000000  0.4707150000000 1.0
C      1  0.5561590000000  0.4393670000000  0.5004300000000 1.0
C      1  0.4749220000000  0.4532770000000  0.4781540000000 1.0
C      1  0.4985200000000  0.5421620000000  0.4775640000000 1.0
C      1  0.4660680000000  0.4042170000000  0.4795140000000 1.0
C      1  0.4846680000000  0.4675920000000  0.3931530000000 1.0
C      1  0.4993790000000  0.5747030000000  0.4427440000000 1.0
C      1  0.4885320000000  0.5965520000000  0.4893770000000 1.0
C      1  0.4621550000000  0.5257420000000  0.5541100000000 1.0
C      1  0.4820760000000  0.5846230000000  0.4642020000000 1.0
C      1  0.5109410000000  0.4603650000000  0.6278800000000 1.0
C      1  0.5094330000000  0.5867360000000  0.5068250000000 1.0
C      1  0.5864360000000  0.5075150000000  0.4967940000000 1.0
C      1  0.5277780000000  0.5736410000000  0.4390330000000 1.0
C      1  0.5453000000000  0.5522020000000  0.4303120000000 1.0
C      1  0.4916830000000  0.4380730000000  0.4593190000000 1.0
C      1  0.5690870000000  0.5436520000000  0.4464580000000 1.0
C      1  0.4741120000000  0.6190970000000  0.4976080000000 1.0
C      1  0.5349700000000  0.4566780000000  0.4353610000000 1.0
C      1  0.5301510000000  0.5125960000000  0.4537660000000 1.0
C      1  0.5288760000000  0.5003840000000  0.5431970000000 1.0
C      1  0.5095650000000  0.5074420000000  0.6066390000000 1.0
C      1  0.4604740000000  0.6397140000000  0.5058570000000 1.0
C      1  0.5133860000000  0.4280780000000  0.5275960000000 1.0
C      1  0.5736680000000  0.5564610000000  0.4726920000000 1.0
C      1  0.4041480000000  0.5074790000000  0.4776620000000 1.0
C      1  0.5311350000000  0.4232140000000  0.5047680000000 1.0
C      1  0.5076730000000  0.5195660000000  0.5386350000000 1.0
C      1  0.5021090000000  0.5400420000000  0.4092670000000 1.0
C      1  0.5124560000000  0.4870150000000  0.6258000000000 1.0
C      1  0.5644890000000  0.4753520000000  0.4740110000000 1.0
C      1  0.4344490000000  0.5215880000000  0.5568420000000 1.0
C      1  0.5017090000000  0.4409090000000  0.6118910000000 1.0
C      1  0.4852150000000  0.5087390000000  0.5916290000000 1.0
C      1  0.5490920000000  0.4567730000000  0.5460160000000 1.0
C      1  0.5037470000000  0.5718340000000  0.5319010000000 1.0
C      1  0.4201020000000  0.4624510000000  0.5372700000000 1.0
C      1  0.4390690000000  0.5266090000000  0.4420640000000 1.0
C      1  0.5144690000000  0.4111120000000  0.5491240000000 1.0
C      1  0.5163050000000  0.5461660000000  0.5326160000000 1.0
C      1  0.5645490000000  0.4466870000000  0.4730720000000 1.0
C      1  0.4790460000000  0.5298090000000  0.4891860000000 1.0
C      1  0.5327250000000  0.5061090000000  0.4257560000000 1.0
C      1  0.4513080000000  0.5017870000000  0.4347390000000 1.0
C      1  0.5401100000000  0.5459460000000  0.5193230000000 1.0
C      1  0.5551260000000  0.5261070000000  0.5856740000000 1.0
END
