TITL C-627109-622-2005 682.232278441456 125000 -1106.13157689421 0 0 180 (C1) n - 1
REM
REM in /home/nfs/bkarasulu/CARBON/AIRSS/Generating-Clusters/LCBOP/Only-C1/SD-CG/FIRE-CG
REM
REM
REM
REM
REM
REM ./C.cell (11c1c37f851c82e70ff6c80c92926a4b)
REM AIRSS Version 0.9.1 bugfix July 2018 build 013d7b7c2542+ Fri, 06 Jul 2018 19:26:36 +0100
REM compiler GCC version 9.2.1 20190827 (Red Hat 9.2.1-1)
REM options -cpp -mtune=generic -march=x86-64 -g -O0 -fpre-include=/usr/include/finclude/math-vector-fortran.h
REM seed -966785450 -577081165 371744113 1795489281 -1693568811 -2012060715 27120087 539215904 -1006169292 1063819305 -865241346 1966822198 1209140661 1606033033 -962349849 -238371101 119884545 -1795786118 1094999145 887271933 -1944721428 -1466870279 -1974193430 81177633 -727784809 -2131157037 2077808476 1032085232 -662925197 -912488212 959764948 -1171954385 906234202
REM
CELL 1.54180   50.00000   50.00000   50.00000   90.00000   90.00000   90.00000
LATT -1
SFAC C  
C      1  0.6096710000000  0.5201350000000  0.4234650000000 1.0
C      1  0.4454520000000  0.5907320000000  0.6011720000000 1.0
C      1  0.6121060000000  0.5194260000000  0.4716410000000 1.0
C      1  0.5016740000000  0.4263960000000  0.4053010000000 1.0
C      1  0.4142140000000  0.4351780000000  0.5373320000000 1.0
C      1  0.5732230000000  0.5909970000000  0.4914820000000 1.0
C      1  0.5384640000000  0.6070000000000  0.5264920000000 1.0
C      1  0.4070810000000  0.4894320000000  0.5854960000000 1.0
C      1  0.4419080000000  0.4890900000000  0.4038890000000 1.0
C      1  0.6358320000000  0.5124250000000  0.4839490000000 1.0
C      1  0.4060520000000  0.5720950000000  0.5780530000000 1.0
C      1  0.3985230000000  0.5312930000000  0.5223590000000 1.0
C      1  0.4935720000000  0.4967200000000  0.4967780000000 1.0
C      1  0.4939880000000  0.5221250000000  0.5699140000000 1.0
C      1  0.4132430000000  0.5285700000000  0.5466450000000 1.0
C      1  0.4836760000000  0.4935410000000  0.5620150000000 1.0
C      1  0.4869020000000  0.3999890000000  0.4438990000000 1.0
C      1  0.5520490000000  0.5086950000000  0.6292900000000 1.0
C      1  0.4880760000000  0.3772280000000  0.5309610000000 1.0
C      1  0.5845910000000  0.3744820000000  0.4969360000000 1.0
C      1  0.5099140000000  0.5392680000000  0.4244290000000 1.0
C      1  0.4750690000000  0.5813760000000  0.4210350000000 1.0
C      1  0.4574650000000  0.5603670000000  0.4322610000000 1.0
C      1  0.5081890000000  0.5184090000000  0.4919410000000 1.0
C      1  0.5404210000000  0.4505940000000  0.5370750000000 1.0
C      1  0.5168290000000  0.3946190000000  0.4366000000000 1.0
C      1  0.5343190000000  0.5175650000000  0.3749300000000 1.0
C      1  0.5678790000000  0.4245190000000  0.4870120000000 1.0
C      1  0.4396700000000  0.5227540000000  0.4884120000000 1.0
C      1  0.5119940000000  0.4568450000000  0.5340900000000 1.0
C      1  0.5058490000000  0.5416260000000  0.5067400000000 1.0
C      1  0.4858670000000  0.4433130000000  0.5854510000000 1.0
C      1  0.4058700000000  0.4624330000000  0.4771500000000 1.0
C      1  0.5863740000000  0.4469670000000  0.4829500000000 1.0
C      1  0.4658620000000  0.5717840000000  0.5974890000000 1.0
C      1  0.4133610000000  0.5252560000000  0.4694220000000 1.0
C      1  0.3920910000000  0.5075580000000  0.4811200000000 1.0
C      1  0.4657490000000  0.5438720000000  0.5313020000000 1.0
C      1  0.5327970000000  0.4689310000000  0.6039270000000 1.0
C      1  0.4648410000000  0.4599230000000  0.4549710000000 1.0
C      1  0.5561510000000  0.5547950000000  0.4546950000000 1.0
C      1  0.5176780000000  0.5243740000000  0.5515260000000 1.0
C      1  0.5183780000000  0.5439460000000  0.5320040000000 1.0
C      1  0.4835780000000  0.3508920000000  0.5254130000000 1.0
C      1  0.5059600000000  0.4366780000000  0.4611320000000 1.0
C      1  0.4431350000000  0.4580140000000  0.5123560000000 1.0
C      1  0.4928940000000  0.5747300000000  0.3994370000000 1.0
C      1  0.5150750000000  0.4121090000000  0.5567420000000 1.0
C      1  0.5748850000000  0.5416400000000  0.5403520000000 1.0
C      1  0.5872270000000  0.4533630000000  0.4546190000000 1.0
C      1  0.5742000000000  0.4324460000000  0.4375020000000 1.0
C      1  0.4361450000000  0.5103830000000  0.5441220000000 1.0
C      1  0.5113780000000  0.5711410000000  0.4614600000000 1.0
C      1  0.5419150000000  0.4358410000000  0.4897860000000 1.0
C      1  0.5991950000000  0.4463210000000  0.5312740000000 1.0
C      1  0.4885180000000  0.4242540000000  0.5635890000000 1.0
C      1  0.5343800000000  0.6237240000000  0.5499000000000 1.0
C      1  0.4890290000000  0.5863950000000  0.5111610000000 1.0
C      1  0.4877240000000  0.4710850000000  0.4094800000000 1.0
C      1  0.4070960000000  0.5487690000000  0.5651770000000 1.0
C      1  0.5210770000000  0.5692980000000  0.5415340000000 1.0
C      1  0.5045210000000  0.4529780000000  0.3951760000000 1.0
C      1  0.4194670000000  0.5267840000000  0.4397860000000 1.0
C      1  0.4280730000000  0.4157290000000  0.4598040000000 1.0
C      1  0.5192240000000  0.4213020000000  0.4991860000000 1.0
C      1  0.5077200000000  0.5123580000000  0.4206270000000 1.0
C      1  0.5002250000000  0.5491420000000  0.4490690000000 1.0
C      1  0.5423540000000  0.4659240000000  0.4904890000000 1.0
C      1  0.4302390000000  0.4301090000000  0.4354470000000 1.0
C      1  0.4579250000000  0.5500100000000  0.4815630000000 1.0
C      1  0.5266170000000  0.4138880000000  0.4162000000000 1.0
C      1  0.5114430000000  0.5936310000000  0.5835430000000 1.0
C      1  0.4533520000000  0.5040660000000  0.6171780000000 1.0
C      1  0.4161350000000  0.5135320000000  0.5934810000000 1.0
C      1  0.5775880000000  0.5571210000000  0.4077380000000 1.0
C      1  0.5661610000000  0.5224760000000  0.5203800000000 1.0
C      1  0.4388040000000  0.4290760000000  0.5527420000000 1.0
C      1  0.5192160000000  0.6192660000000  0.5727610000000 1.0
C      1  0.4568850000000  0.5462600000000  0.5860070000000 1.0
C      1  0.4831670000000  0.4465570000000  0.4708330000000 1.0
C      1  0.4013070000000  0.5556160000000  0.5081200000000 1.0
C      1  0.5935510000000  0.5702210000000  0.4850800000000 1.0
C      1  0.4842450000000  0.3965800000000  0.4744380000000 1.0
C      1  0.4116540000000  0.5743740000000  0.4895850000000 1.0
C      1  0.5031980000000  0.4864600000000  0.4279520000000 1.0
C      1  0.4200500000000  0.5898940000000  0.5923530000000 1.0
C      1  0.4556970000000  0.4890270000000  0.5532490000000 1.0
C      1  0.5065040000000  0.4806830000000  0.5476120000000 1.0
C      1  0.4627190000000  0.6118440000000  0.4564150000000 1.0
C      1  0.4713370000000  0.5429520000000  0.4538610000000 1.0
C      1  0.4434290000000  0.4922170000000  0.4804440000000 1.0
C      1  0.5677070000000  0.4174620000000  0.5579350000000 1.0
C      1  0.4589900000000  0.4667620000000  0.4104900000000 1.0
C      1  0.5720880000000  0.5696360000000  0.5352880000000 1.0
C      1  0.5065350000000  0.5069300000000  0.6191960000000 1.0
C      1  0.4492190000000  0.5001750000000  0.3787000000000 1.0
C      1  0.4714030000000  0.4954840000000  0.5128620000000 1.0
C      1  0.5575530000000  0.6057930000000  0.4724280000000 1.0
C      1  0.5260320000000  0.4483350000000  0.4460940000000 1.0
C      1  0.3912800000000  0.4822450000000  0.5265060000000 1.0
C      1  0.6048840000000  0.5045290000000  0.4470200000000 1.0
C      1  0.5341430000000  0.6116600000000  0.4596510000000 1.0
C      1  0.5147570000000  0.5901580000000  0.5232150000000 1.0
C      1  0.5021300000000  0.5269090000000  0.5990370000000 1.0
C      1  0.5291590000000  0.4674380000000  0.3877350000000 1.0
C      1  0.3904420000000  0.5068430000000  0.5102880000000 1.0
C      1  0.5341490000000  0.5447610000000  0.3837050000000 1.0
C      1  0.5091730000000  0.5533790000000  0.6087230000000 1.0
C      1  0.4648560000000  0.5105320000000  0.6418900000000 1.0
C      1  0.5594250000000  0.5571180000000  0.3862750000000 1.0
C      1  0.4916690000000  0.5090760000000  0.6431000000000 1.0
C      1  0.5871140000000  0.5066600000000  0.5767880000000 1.0
C      1  0.5360340000000  0.4853810000000  0.4697140000000 1.0
C      1  0.5579200000000  0.4664750000000  0.5914030000000 1.0
C      1  0.5097320000000  0.4532830000000  0.5979010000000 1.0
C      1  0.5679080000000  0.4826130000000  0.4211220000000 1.0
C      1  0.4708070000000  0.5405660000000  0.5605580000000 1.0
C      1  0.5307040000000  0.4927040000000  0.6194150000000 1.0
C      1  0.5228760000000  0.4917490000000  0.3721350000000 1.0
C      1  0.5516450000000  0.5357950000000  0.6310190000000 1.0
C      1  0.5270490000000  0.5751470000000  0.5678440000000 1.0
C      1  0.5671770000000  0.5650470000000  0.4326430000000 1.0
C      1  0.5547390000000  0.5059640000000  0.4310860000000 1.0
C      1  0.5109910000000  0.3862610000000  0.5451930000000 1.0
C      1  0.4783890000000  0.4210820000000  0.4241000000000 1.0
C      1  0.5413090000000  0.4257980000000  0.5524000000000 1.0
C      1  0.4595510000000  0.4741920000000  0.5280590000000 1.0
C      1  0.4709620000000  0.4989540000000  0.3628000000000 1.0
C      1  0.4943500000000  0.5764580000000  0.5996950000000 1.0
C      1  0.4304200000000  0.5515540000000  0.4296170000000 1.0
C      1  0.5121700000000  0.3977220000000  0.4845310000000 1.0
C      1  0.5099990000000  0.5981130000000  0.4530160000000 1.0
C      1  0.5285860000000  0.4995830000000  0.5445120000000 1.0
C      1  0.5455460000000  0.4369730000000  0.4260760000000 1.0
C      1  0.5203460000000  0.4755700000000  0.4476770000000 1.0
C      1  0.4250820000000  0.5038510000000  0.4223950000000 1.0
C      1  0.6000830000000  0.5402600000000  0.4085880000000 1.0
C      1  0.4705120000000  0.6056860000000  0.5028990000000 1.0
C      1  0.4394340000000  0.5755390000000  0.4823180000000 1.0
C      1  0.5911690000000  0.4278050000000  0.5492710000000 1.0
C      1  0.3884950000000  0.4818750000000  0.4694680000000 1.0
C      1  0.5858630000000  0.4598000000000  0.5099310000000 1.0
C      1  0.4689230000000  0.5128480000000  0.4484740000000 1.0
C      1  0.4419900000000  0.5242190000000  0.5997050000000 1.0
C      1  0.5880590000000  0.4099330000000  0.4301060000000 1.0
C      1  0.4564780000000  0.4438460000000  0.4304230000000 1.0
C      1  0.5284300000000  0.3881640000000  0.4624230000000 1.0
C      1  0.5760050000000  0.3983560000000  0.4909860000000 1.0
C      1  0.4644310000000  0.4171560000000  0.5460480000000 1.0
C      1  0.4511820000000  0.5197940000000  0.5184410000000 1.0
C      1  0.5779590000000  0.4825020000000  0.5836150000000 1.0
C      1  0.4134600000000  0.4665340000000  0.5705630000000 1.0
C      1  0.5129030000000  0.5546050000000  0.4006540000000 1.0
C      1  0.4969340000000  0.4926320000000  0.3599610000000 1.0
C      1  0.5962100000000  0.5407120000000  0.4843790000000 1.0
C      1  0.5509660000000  0.4623950000000  0.4072830000000 1.0
C      1  0.5900440000000  0.4789100000000  0.4412770000000 1.0
C      1  0.5479080000000  0.5085290000000  0.4586880000000 1.0
C      1  0.5708490000000  0.5302070000000  0.4937280000000 1.0
C      1  0.5632480000000  0.5918470000000  0.5190020000000 1.0
C      1  0.5022090000000  0.4376720000000  0.5156090000000 1.0
C      1  0.3942610000000  0.5920100000000  0.4777290000000 1.0
C      1  0.4099440000000  0.4312270000000  0.4171640000000 1.0
C      1  0.4536220000000  0.6008310000000  0.4807610000000 1.0
C      1  0.4602370000000  0.4879290000000  0.4586750000000 1.0
C      1  0.5524060000000  0.4982490000000  0.5283910000000 1.0
C      1  0.4838310000000  0.6021140000000  0.4400950000000 1.0
C      1  0.4567500000000  0.4772200000000  0.6084160000000 1.0
C      1  0.4693260000000  0.3981960000000  0.5234330000000 1.0
C      1  0.4596650000000  0.4548890000000  0.5912700000000 1.0
C      1  0.4797520000000  0.5570290000000  0.5063400000000 1.0
C      1  0.5576640000000  0.4704820000000  0.5175790000000 1.0
C      1  0.5852810000000  0.5299250000000  0.5636940000000 1.0
C      1  0.4300860000000  0.4688340000000  0.4901150000000 1.0
C      1  0.4019180000000  0.4614940000000  0.5436820000000 1.0
C      1  0.4368280000000  0.4485710000000  0.5750470000000 1.0
C      1  0.4632440000000  0.3998220000000  0.4943540000000 1.0
C      1  0.4383140000000  0.4062650000000  0.4827620000000 1.0
C      1  0.5536630000000  0.5322740000000  0.4714580000000 1.0
C      1  0.5333310000000  0.5542870000000  0.6236010000000 1.0
END
