TITL C-627111-6168-1253 0.124828295875462 125000 -545.406022768239 0 0 92 (C1) n - 1
REM
REM in /home/nfs/bkarasulu/CARBON/AIRSS/Generating-Clusters/LCBOP/Only-C1/SD-CG/FIRE-CG
REM
REM
REM
REM
REM
REM ./C.cell (11c1c37f851c82e70ff6c80c92926a4b)
REM AIRSS Version 0.9.1 bugfix July 2018 build 013d7b7c2542+ Fri, 06 Jul 2018 19:26:36 +0100
REM compiler GCC version 9.2.1 20190827 (Red Hat 9.2.1-1)
REM options -cpp -mtune=generic -march=x86-64 -g -O0 -fpre-include=/usr/include/finclude/math-vector-fortran.h
REM seed -165456979 1642121937 -1257527766 -540473990 -1869575698 1794576274 1647600752 -1007827996 1369171535 -1946589608 -1472692704 -1504103110 -1091569683 518579410 -1581605585 -1748543489 194233016 943473601 -1131919767 495061895 -2124269954 711042489 248275068 1503789072 649795572 799207996 1701002453 -500717139 830573118 -386338285 -1843746634 1949327888 1512114161
REM
CELL 1.54180   50.00000   50.00000   50.00000   90.00000   90.00000   90.00000
LATT -1
SFAC C  
C      1  0.5126300000000  0.5583290000000  0.4975340000000 1.0
C      1  0.4190850000000  0.5062620000000  0.5132480000000 1.0
C      1  0.4736340000000  0.5873110000000  0.5051640000000 1.0
C      1  0.4346340000000  0.5672940000000  0.4846900000000 1.0
C      1  0.4972240000000  0.4612780000000  0.4176840000000 1.0
C      1  0.4648590000000  0.4909860000000  0.5297310000000 1.0
C      1  0.5220750000000  0.5139220000000  0.5125320000000 1.0
C      1  0.4972880000000  0.5839300000000  0.5700410000000 1.0
C      1  0.5482990000000  0.5033970000000  0.5080960000000 1.0
C      1  0.5384480000000  0.5199560000000  0.4055820000000 1.0
C      1  0.4824300000000  0.5079760000000  0.5731090000000 1.0
C      1  0.4180350000000  0.4544000000000  0.5173770000000 1.0
C      1  0.4989850000000  0.5454810000000  0.4759940000000 1.0
C      1  0.5331950000000  0.5997110000000  0.5156890000000 1.0
C      1  0.5052950000000  0.5038140000000  0.4393270000000 1.0
C      1  0.5017680000000  0.4702440000000  0.5542400000000 1.0
C      1  0.5585750000000  0.4541550000000  0.4546040000000 1.0
C      1  0.4748620000000  0.4831320000000  0.5572360000000 1.0
C      1  0.5697790000000  0.5012170000000  0.5562070000000 1.0
C      1  0.4978850000000  0.5610630000000  0.4515820000000 1.0
C      1  0.4153880000000  0.5460980000000  0.4867890000000 1.0
C      1  0.5288690000000  0.4354340000000  0.5637750000000 1.0
C      1  0.4527390000000  0.5631460000000  0.4625250000000 1.0
C      1  0.5076790000000  0.4148680000000  0.5229100000000 1.0
C      1  0.5566840000000  0.5546910000000  0.5388530000000 1.0
C      1  0.4776290000000  0.5806330000000  0.4591760000000 1.0
C      1  0.4166710000000  0.4998390000000  0.4630060000000 1.0
C      1  0.5391770000000  0.5010240000000  0.5902990000000 1.0
C      1  0.4610700000000  0.5110210000000  0.4738210000000 1.0
C      1  0.5305300000000  0.5438810000000  0.4160660000000 1.0
C      1  0.5049410000000  0.5526660000000  0.4254590000000 1.0
C      1  0.4312320000000  0.4832610000000  0.4456710000000 1.0
C      1  0.5408290000000  0.5558270000000  0.4945510000000 1.0
C      1  0.4301890000000  0.4652680000000  0.5415760000000 1.0
C      1  0.4490850000000  0.4336990000000  0.4905840000000 1.0
C      1  0.5847050000000  0.4444420000000  0.4543600000000 1.0
C      1  0.5593150000000  0.4786410000000  0.4990750000000 1.0
C      1  0.5194370000000  0.4992970000000  0.4617470000000 1.0
C      1  0.5020290000000  0.4444490000000  0.5671230000000 1.0
C      1  0.4813800000000  0.4255430000000  0.5306440000000 1.0
C      1  0.5436700000000  0.4557870000000  0.4307430000000 1.0
C      1  0.4848310000000  0.5100110000000  0.4203980000000 1.0
C      1  0.5555630000000  0.5297600000000  0.5561300000000 1.0
C      1  0.5779580000000  0.4678960000000  0.5178460000000 1.0
C      1  0.4550090000000  0.4570310000000  0.5595370000000 1.0
C      1  0.5152810000000  0.6058740000000  0.4940310000000 1.0
C      1  0.5612880000000  0.5489400000000  0.5109110000000 1.0
C      1  0.4519190000000  0.5338890000000  0.4571680000000 1.0
C      1  0.5857870000000  0.4871570000000  0.5373830000000 1.0
C      1  0.5488250000000  0.4548860000000  0.5726390000000 1.0
C      1  0.5074150000000  0.5012810000000  0.4890440000000 1.0
C      1  0.4480110000000  0.5407770000000  0.5660970000000 1.0
C      1  0.4554630000000  0.5433910000000  0.5401950000000 1.0
C      1  0.4877960000000  0.5983720000000  0.4815540000000 1.0
C      1  0.4843470000000  0.5370740000000  0.4130810000000 1.0
C      1  0.4316270000000  0.4577950000000  0.4910210000000 1.0
C      1  0.5764040000000  0.4401250000000  0.5223270000000 1.0
C      1  0.4140680000000  0.5172150000000  0.4871880000000 1.0
C      1  0.4777000000000  0.4518350000000  0.4364530000000 1.0
C      1  0.4983260000000  0.5759640000000  0.5452100000000 1.0
C      1  0.5318430000000  0.4201520000000  0.5391020000000 1.0
C      1  0.5453910000000  0.5830220000000  0.5357830000000 1.0
C      1  0.4452850000000  0.5842450000000  0.5051540000000 1.0
C      1  0.5097240000000  0.4109620000000  0.4944040000000 1.0
C      1  0.4685570000000  0.4414570000000  0.5107570000000 1.0
C      1  0.5184540000000  0.4556390000000  0.4827270000000 1.0
C      1  0.4757400000000  0.4344830000000  0.5578830000000 1.0
C      1  0.5318100000000  0.5233620000000  0.5735770000000 1.0
C      1  0.5577350000000  0.4214820000000  0.5277380000000 1.0
C      1  0.4592770000000  0.4212520000000  0.4678650000000 1.0
C      1  0.5143170000000  0.4723230000000  0.5290360000000 1.0
C      1  0.4552480000000  0.4722520000000  0.4328220000000 1.0
C      1  0.5039710000000  0.5243560000000  0.5330950000000 1.0
C      1  0.4292830000000  0.5973930000000  0.5229240000000 1.0
C      1  0.4828270000000  0.4324460000000  0.4566050000000 1.0
C      1  0.5559460000000  0.4825760000000  0.5757220000000 1.0
C      1  0.5029780000000  0.4743520000000  0.5007110000000 1.0
C      1  0.4865050000000  0.5206740000000  0.4825040000000 1.0
C      1  0.4359350000000  0.4930500000000  0.5316580000000 1.0
C      1  0.5059000000000  0.4314000000000  0.4745310000000 1.0
C      1  0.4774290000000  0.5341210000000  0.5272760000000 1.0
C      1  0.5064170000000  0.5206180000000  0.5616140000000 1.0
C      1  0.6338750000000  0.4267780000000  0.4600340000000 1.0
C      1  0.4739640000000  0.4721670000000  0.5069150000000 1.0
C      1  0.6095230000000  0.4354900000000  0.4567680000000 1.0
C      1  0.5245100000000  0.4687060000000  0.4143920000000 1.0
C      1  0.4528180000000  0.4812040000000  0.4855600000000 1.0
C      1  0.5463280000000  0.4622890000000  0.4790470000000 1.0
C      1  0.5334400000000  0.4934230000000  0.4027190000000 1.0
C      1  0.4951810000000  0.5722550000000  0.5175490000000 1.0
C      1  0.4614350000000  0.5242560000000  0.5829530000000 1.0
C      1  0.4685050000000  0.4891730000000  0.4139430000000 1.0
END
