TITL C-627111-6168-1036 -8.3049178775306e-07 125000 -879.155649727855 0 0 144 (C1) n - 1
REM
REM in /home/nfs/bkarasulu/CARBON/AIRSS/Generating-Clusters/LCBOP/Only-C1/SD-CG/FIRE-CG
REM
REM
REM
REM
REM
REM ./C.cell (11c1c37f851c82e70ff6c80c92926a4b)
REM AIRSS Version 0.9.1 bugfix July 2018 build 013d7b7c2542+ Fri, 06 Jul 2018 19:26:36 +0100
REM compiler GCC version 9.2.1 20190827 (Red Hat 9.2.1-1)
REM options -cpp -mtune=generic -march=x86-64 -g -O0 -fpre-include=/usr/include/finclude/math-vector-fortran.h
REM seed 435368615 -1278306191 -206798077 -1196354045 1085390364 -516573097 -1506854265 -887938926 -2129611332 -2130533988 56745934 -233509268 915654982 -155171949 1419636235 -326552071 -24249638 -932674990 -1335945858 1592789600 986243838 521169576 -1729363940 -1621106717 -1870027313 -1471648211 469356361 -1537358954 1408251095 -912513404 -1492487054 1221308764 600671507
REM
CELL 1.54180   50.00000   50.00000   50.00000   90.00000   90.00000   90.00000
LATT -1
SFAC C  
C      1  0.4765480000000  0.5510380000000  0.6203510000000 1.0
C      1  0.5013200000000  0.4501240000000  0.4027550000000 1.0
C      1  0.5928090000000  0.5473020000000  0.4848740000000 1.0
C      1  0.5008340000000  0.4442730000000  0.4799820000000 1.0
C      1  0.4657580000000  0.6161390000000  0.5170030000000 1.0
C      1  0.3920340000000  0.5397200000000  0.5198800000000 1.0
C      1  0.4834710000000  0.5255850000000  0.4511660000000 1.0
C      1  0.3828770000000  0.5152040000000  0.5137340000000 1.0
C      1  0.4731070000000  0.4781600000000  0.5809140000000 1.0
C      1  0.5430430000000  0.4635790000000  0.4825150000000 1.0
C      1  0.5076120000000  0.4819850000000  0.4496670000000 1.0
C      1  0.5831970000000  0.4540460000000  0.5694790000000 1.0
C      1  0.5318350000000  0.5897940000000  0.5012180000000 1.0
C      1  0.3833730000000  0.4896850000000  0.5052490000000 1.0
C      1  0.5636590000000  0.5011010000000  0.5991600000000 1.0
C      1  0.4620960000000  0.5325910000000  0.5783500000000 1.0
C      1  0.5917810000000  0.5285980000000  0.4335950000000 1.0
C      1  0.5548150000000  0.4887470000000  0.4805150000000 1.0
C      1  0.5349340000000  0.5266480000000  0.4488620000000 1.0
C      1  0.4096040000000  0.5615430000000  0.5931000000000 1.0
C      1  0.4570150000000  0.4893530000000  0.4040230000000 1.0
C      1  0.5256370000000  0.4466160000000  0.4672120000000 1.0
C      1  0.4140280000000  0.5608130000000  0.5195540000000 1.0
C      1  0.3562670000000  0.5978090000000  0.5591650000000 1.0
C      1  0.4853260000000  0.3703750000000  0.4128560000000 1.0
C      1  0.5078200000000  0.4013960000000  0.5303010000000 1.0
C      1  0.4960380000000  0.4416060000000  0.5584390000000 1.0
C      1  0.5359430000000  0.4084680000000  0.5266230000000 1.0
C      1  0.4878530000000  0.5482990000000  0.5385760000000 1.0
C      1  0.4739880000000  0.4324860000000  0.4776560000000 1.0
C      1  0.5422930000000  0.4293060000000  0.4516030000000 1.0
C      1  0.5848050000000  0.4130010000000  0.4709940000000 1.0
C      1  0.5682540000000  0.5940490000000  0.4711460000000 1.0
C      1  0.5474720000000  0.5485710000000  0.5197640000000 1.0
C      1  0.4595030000000  0.4442230000000  0.5008780000000 1.0
C      1  0.5454660000000  0.4400680000000  0.4244880000000 1.0
C      1  0.5413930000000  0.4883100000000  0.6106210000000 1.0
C      1  0.4371450000000  0.4895750000000  0.4645770000000 1.0
C      1  0.4396290000000  0.5344860000000  0.4201940000000 1.0
C      1  0.4960390000000  0.4754520000000  0.5979250000000 1.0
C      1  0.5630610000000  0.4611670000000  0.5254010000000 1.0
C      1  0.4423820000000  0.5561090000000  0.4389040000000 1.0
C      1  0.5562650000000  0.4135140000000  0.4730000000000 1.0
C      1  0.6005740000000  0.4699270000000  0.5515980000000 1.0
C      1  0.4125880000000  0.4928000000000  0.4267660000000 1.0
C      1  0.5907420000000  0.4744340000000  0.4535740000000 1.0
C      1  0.4122580000000  0.4816720000000  0.4534060000000 1.0
C      1  0.4495430000000  0.5753800000000  0.5507380000000 1.0
C      1  0.4217940000000  0.5699030000000  0.5468740000000 1.0
C      1  0.4596780000000  0.4232960000000  0.4544610000000 1.0
C      1  0.5943550000000  0.5034500000000  0.4184980000000 1.0
C      1  0.4312020000000  0.4811610000000  0.5288680000000 1.0
C      1  0.4866590000000  0.5595290000000  0.5125360000000 1.0
C      1  0.4594260000000  0.5988320000000  0.5384250000000 1.0
C      1  0.5236810000000  0.4690720000000  0.6002260000000 1.0
C      1  0.4723490000000  0.5041800000000  0.5425250000000 1.0
C      1  0.4507280000000  0.4347850000000  0.5503260000000 1.0
C      1  0.4010470000000  0.4604900000000  0.4695120000000 1.0
C      1  0.5372650000000  0.4477930000000  0.5871220000000 1.0
C      1  0.4708470000000  0.4201780000000  0.4281010000000 1.0
C      1  0.5070220000000  0.5741400000000  0.4978430000000 1.0
C      1  0.5438850000000  0.6050460000000  0.4792960000000 1.0
C      1  0.5059330000000  0.5824630000000  0.4279980000000 1.0
C      1  0.4690130000000  0.5266980000000  0.4752770000000 1.0
C      1  0.4608920000000  0.6083940000000  0.4902620000000 1.0
C      1  0.5237400000000  0.4333190000000  0.4070350000000 1.0
C      1  0.5551790000000  0.5733200000000  0.5096870000000 1.0
C      1  0.4381820000000  0.4343420000000  0.5205960000000 1.0
C      1  0.5830500000000  0.4771130000000  0.4255710000000 1.0
C      1  0.5532480000000  0.4879090000000  0.5309170000000 1.0
C      1  0.5010780000000  0.5614610000000  0.6204680000000 1.0
C      1  0.6052750000000  0.5167650000000  0.5251410000000 1.0
C      1  0.4368290000000  0.5466700000000  0.5044070000000 1.0
C      1  0.6092330000000  0.4982050000000  0.5480860000000 1.0
C      1  0.4658060000000  0.5460140000000  0.4977420000000 1.0
C      1  0.4778800000000  0.3943380000000  0.4198860000000 1.0
C      1  0.4088280000000  0.5834380000000  0.4994620000000 1.0
C      1  0.4177850000000  0.4578510000000  0.5174710000000 1.0
C      1  0.4699330000000  0.4550160000000  0.5633590000000 1.0
C      1  0.5444450000000  0.5029640000000  0.5530450000000 1.0
C      1  0.4940560000000  0.4136300000000  0.5521720000000 1.0
C      1  0.5762320000000  0.5716100000000  0.4878800000000 1.0
C      1  0.5574830000000  0.5431500000000  0.5776700000000 1.0
C      1  0.5772160000000  0.4978240000000  0.4651140000000 1.0
C      1  0.4085650000000  0.4344250000000  0.4616530000000 1.0
C      1  0.5580850000000  0.4385750000000  0.5698380000000 1.0
C      1  0.4637470000000  0.5749100000000  0.4505110000000 1.0
C      1  0.5585110000000  0.5150810000000  0.5748560000000 1.0
C      1  0.4314560000000  0.4214280000000  0.4564930000000 1.0
C      1  0.4948210000000  0.5208380000000  0.5389190000000 1.0
C      1  0.4220730000000  0.5831420000000  0.4739220000000 1.0
C      1  0.5565560000000  0.4669970000000  0.4170980000000 1.0
C      1  0.6021680000000  0.4599520000000  0.4753410000000 1.0
C      1  0.6018590000000  0.4317670000000  0.4834390000000 1.0
C      1  0.4620390000000  0.3892740000000  0.5093910000000 1.0
C      1  0.3978100000000  0.4661280000000  0.4979180000000 1.0
C      1  0.4986730000000  0.4649860000000  0.5007090000000 1.0
C      1  0.4880040000000  0.5191780000000  0.4252860000000 1.0
C      1  0.5715160000000  0.5455130000000  0.4231190000000 1.0
C      1  0.4546080000000  0.4609300000000  0.4025990000000 1.0
C      1  0.5458080000000  0.5337980000000  0.4232780000000 1.0
C      1  0.4216250000000  0.5571160000000  0.4601790000000 1.0
C      1  0.5359550000000  0.4857520000000  0.4043700000000 1.0
C      1  0.5426410000000  0.5290490000000  0.4996910000000 1.0
C      1  0.5072610000000  0.4786690000000  0.4012640000000 1.0
C      1  0.5244340000000  0.5668510000000  0.6088760000000 1.0
C      1  0.4029580000000  0.5723450000000  0.5680530000000 1.0
C      1  0.4424330000000  0.5149480000000  0.4729990000000 1.0
C      1  0.4831850000000  0.4727040000000  0.4499600000000 1.0
C      1  0.4352250000000  0.5063850000000  0.4140460000000 1.0
C      1  0.5505230000000  0.4181560000000  0.5504450000000 1.0
C      1  0.5893520000000  0.5254440000000  0.4629360000000 1.0
C      1  0.5443030000000  0.5614730000000  0.5919650000000 1.0
C      1  0.4496390000000  0.5926010000000  0.4699840000000 1.0
C      1  0.4849330000000  0.4979880000000  0.4064710000000 1.0
C      1  0.5184680000000  0.5121490000000  0.5498010000000 1.0
C      1  0.4587020000000  0.4870390000000  0.5255450000000 1.0
C      1  0.5099820000000  0.5616020000000  0.4718190000000 1.0
C      1  0.5940830000000  0.4573450000000  0.5246040000000 1.0
C      1  0.4394250000000  0.4042750000000  0.5137840000000 1.0
C      1  0.4583680000000  0.4736330000000  0.4579890000000 1.0
C      1  0.3787710000000  0.5856690000000  0.5642000000000 1.0
C      1  0.6030560000000  0.4311920000000  0.5126990000000 1.0
C      1  0.4288000000000  0.5502180000000  0.6078310000000 1.0
C      1  0.4891670000000  0.3885550000000  0.5127270000000 1.0
C      1  0.5586900000000  0.5038690000000  0.5057650000000 1.0
C      1  0.4746420000000  0.4419530000000  0.4096800000000 1.0
C      1  0.4768820000000  0.6406080000000  0.5221930000000 1.0
C      1  0.5412980000000  0.5138640000000  0.4032590000000 1.0
C      1  0.5882470000000  0.5008770000000  0.6109680000000 1.0
C      1  0.5301780000000  0.5399750000000  0.4735030000000 1.0
C      1  0.5499870000000  0.4476370000000  0.5050780000000 1.0
C      1  0.4726340000000  0.4683960000000  0.5102290000000 1.0
C      1  0.4653580000000  0.4093880000000  0.5560590000000 1.0
C      1  0.4654540000000  0.5044320000000  0.5705960000000 1.0
C      1  0.5465270000000  0.4190100000000  0.5014290000000 1.0
C      1  0.4554080000000  0.5421470000000  0.6043100000000 1.0
C      1  0.6085160000000  0.5408290000000  0.5094250000000 1.0
C      1  0.5261120000000  0.5003640000000  0.4496590000000 1.0
C      1  0.4245480000000  0.5359400000000  0.4792710000000 1.0
C      1  0.4929610000000  0.5724400000000  0.4502560000000 1.0
C      1  0.4672080000000  0.5539370000000  0.5580540000000 1.0
C      1  0.5897130000000  0.5012530000000  0.5068200000000 1.0
C      1  0.6007560000000  0.4755210000000  0.5006310000000 1.0
END
