TITL C-627108-131-536 359.462947257505 125000 -1077.97385265376 0 0 176 (C1) n - 1
REM
REM in /home/nfs/bkarasulu/CARBON/AIRSS/Generating-Clusters/LCBOP/Only-C1/SD-CG/FIRE-CG
REM
REM
REM
REM
REM
REM ./C.cell (11c1c37f851c82e70ff6c80c92926a4b)
REM AIRSS Version 0.9.1 bugfix July 2018 build 013d7b7c2542+ Fri, 06 Jul 2018 19:26:36 +0100
REM compiler GCC version 9.2.1 20190827 (Red Hat 9.2.1-1)
REM options -cpp -mtune=generic -march=x86-64 -g -O0 -fpre-include=/usr/include/finclude/math-vector-fortran.h
REM seed -1098455332 -1230793686 -1271824625 1385143999 -1065071713 152917847 -758759207 -498273468 234759502 -1640564182 -166527053 46156811 -954132256 -1739610647 -27432274 -468712689 492254510 997333901 1886038193 -836534837 -942933443 1836707942 -1136912582 -283809225 -1662323296 452611357 975159773 1648984566 1988995318 -1476417609 148674797 932705082 1385595279
REM
CELL 1.54180   50.00000   50.00000   50.00000   90.00000   90.00000   90.00000
LATT -1
SFAC C  
C      1  0.4459180000000  0.4196240000000  0.5997130000000 1.0
C      1  0.4405540000000  0.5096000000000  0.4150260000000 1.0
C      1  0.4314480000000  0.5485700000000  0.4796010000000 1.0
C      1  0.5984540000000  0.5615580000000  0.4654410000000 1.0
C      1  0.4425350000000  0.5446970000000  0.5729150000000 1.0
C      1  0.5513730000000  0.5344380000000  0.5943110000000 1.0
C      1  0.4825000000000  0.4524550000000  0.4001650000000 1.0
C      1  0.5780890000000  0.5737290000000  0.4526110000000 1.0
C      1  0.4727380000000  0.6108780000000  0.5387840000000 1.0
C      1  0.5378910000000  0.3734500000000  0.5607860000000 1.0
C      1  0.5698430000000  0.5097400000000  0.5153930000000 1.0
C      1  0.5125570000000  0.6468730000000  0.4647070000000 1.0
C      1  0.5384140000000  0.4212280000000  0.4946480000000 1.0
C      1  0.4045120000000  0.5401220000000  0.4733780000000 1.0
C      1  0.5927450000000  0.4157730000000  0.4545550000000 1.0
C      1  0.5210300000000  0.4121670000000  0.6036890000000 1.0
C      1  0.4720200000000  0.5012780000000  0.5322010000000 1.0
C      1  0.4695970000000  0.4063120000000  0.4775820000000 1.0
C      1  0.4279950000000  0.4136140000000  0.5018060000000 1.0
C      1  0.4951090000000  0.5879780000000  0.5775090000000 1.0
C      1  0.4920770000000  0.6105500000000  0.5929150000000 1.0
C      1  0.5372960000000  0.4741290000000  0.4904230000000 1.0
C      1  0.4958170000000  0.4769100000000  0.4613930000000 1.0
C      1  0.4287380000000  0.4978650000000  0.4922950000000 1.0
C      1  0.4924680000000  0.3877160000000  0.5451160000000 1.0
C      1  0.4451760000000  0.4326550000000  0.4282950000000 1.0
C      1  0.5452540000000  0.4235420000000  0.4666460000000 1.0
C      1  0.4588650000000  0.5002210000000  0.5568740000000 1.0
C      1  0.5503890000000  0.4524240000000  0.4123700000000 1.0
C      1  0.3629800000000  0.5069950000000  0.5245450000000 1.0
C      1  0.4880380000000  0.6346800000000  0.4706330000000 1.0
C      1  0.4760220000000  0.6186300000000  0.4505150000000 1.0
C      1  0.5435590000000  0.4836520000000  0.5499520000000 1.0
C      1  0.5756500000000  0.4427410000000  0.5646350000000 1.0
C      1  0.4648420000000  0.3933820000000  0.5378070000000 1.0
C      1  0.5566110000000  0.5019420000000  0.4416060000000 1.0
C      1  0.5640180000000  0.6507020000000  0.4538740000000 1.0
C      1  0.5465380000000  0.5018440000000  0.5295020000000 1.0
C      1  0.4902040000000  0.4459980000000  0.5237610000000 1.0
C      1  0.5311590000000  0.5617730000000  0.3965020000000 1.0
C      1  0.5458070000000  0.5536940000000  0.5289370000000 1.0
C      1  0.4283750000000  0.5635750000000  0.5553920000000 1.0
C      1  0.5740320000000  0.4639340000000  0.5847080000000 1.0
C      1  0.4635940000000  0.5723930000000  0.4286500000000 1.0
C      1  0.5695600000000  0.4312720000000  0.4537070000000 1.0
C      1  0.5380710000000  0.6514300000000  0.4592160000000 1.0
C      1  0.4986600000000  0.4783290000000  0.6140940000000 1.0
C      1  0.4643130000000  0.5461140000000  0.5903770000000 1.0
C      1  0.4902270000000  0.5659420000000  0.5327190000000 1.0
C      1  0.3728570000000  0.5023710000000  0.4983510000000 1.0
C      1  0.4408280000000  0.5632790000000  0.4135990000000 1.0
C      1  0.5720920000000  0.3878060000000  0.3889820000000 1.0
C      1  0.5053980000000  0.4346540000000  0.5451170000000 1.0
C      1  0.5218320000000  0.5115960000000  0.5196260000000 1.0
C      1  0.5014670000000  0.4964160000000  0.5711620000000 1.0
C      1  0.5168390000000  0.4037950000000  0.5059510000000 1.0
C      1  0.4773340000000  0.6377210000000  0.4969670000000 1.0
C      1  0.5547170000000  0.5217290000000  0.3927130000000 1.0
C      1  0.4322560000000  0.5372140000000  0.4136270000000 1.0
C      1  0.4427860000000  0.5549340000000  0.5062590000000 1.0
C      1  0.5702660000000  0.5358270000000  0.5718490000000 1.0
C      1  0.4040980000000  0.5171050000000  0.4564340000000 1.0
C      1  0.3864460000000  0.4792190000000  0.4826610000000 1.0
C      1  0.5367400000000  0.5612830000000  0.5907940000000 1.0
C      1  0.5185830000000  0.5013560000000  0.6119190000000 1.0
C      1  0.4918780000000  0.4292770000000  0.4154660000000 1.0
C      1  0.5057150000000  0.5173620000000  0.5906070000000 1.0
C      1  0.4994110000000  0.4465230000000  0.4679440000000 1.0
C      1  0.5738490000000  0.4797030000000  0.4477830000000 1.0
C      1  0.6057700000000  0.5111860000000  0.5489980000000 1.0
C      1  0.3671010000000  0.4392920000000  0.4128710000000 1.0
C      1  0.6339650000000  0.5501760000000  0.5181020000000 1.0
C      1  0.5896850000000  0.6465510000000  0.4487190000000 1.0
C      1  0.5190700000000  0.4953000000000  0.4752920000000 1.0
C      1  0.4084470000000  0.4362090000000  0.5022690000000 1.0
C      1  0.5912120000000  0.4870800000000  0.4694260000000 1.0
C      1  0.5027030000000  0.4725640000000  0.3930560000000 1.0
C      1  0.5972820000000  0.5170120000000  0.5229170000000 1.0
C      1  0.5432810000000  0.5747520000000  0.4168460000000 1.0
C      1  0.4634980000000  0.4399670000000  0.5212140000000 1.0
C      1  0.5155100000000  0.4479740000000  0.5723200000000 1.0
C      1  0.4889970000000  0.6255540000000  0.5201540000000 1.0
C      1  0.5940880000000  0.5215370000000  0.5707140000000 1.0
C      1  0.6094830000000  0.3818040000000  0.4213120000000 1.0
C      1  0.4491260000000  0.5393340000000  0.4601720000000 1.0
C      1  0.3713240000000  0.5311530000000  0.5362190000000 1.0
C      1  0.3831510000000  0.4378740000000  0.4333510000000 1.0
C      1  0.4702610000000  0.4166230000000  0.6104680000000 1.0
C      1  0.4741190000000  0.4896540000000  0.5769250000000 1.0
C      1  0.5673130000000  0.4547150000000  0.4362930000000 1.0
C      1  0.5973100000000  0.4693460000000  0.4909170000000 1.0
C      1  0.4276200000000  0.4255240000000  0.4515640000000 1.0
C      1  0.4557740000000  0.4850280000000  0.4898110000000 1.0
C      1  0.4781720000000  0.4273390000000  0.4609490000000 1.0
C      1  0.5083280000000  0.5650840000000  0.5892440000000 1.0
C      1  0.4455260000000  0.4988960000000  0.3893380000000 1.0
C      1  0.5174440000000  0.5574950000000  0.5342520000000 1.0
C      1  0.4499750000000  0.4139300000000  0.5231410000000 1.0
C      1  0.5407620000000  0.4253480000000  0.4082880000000 1.0
C      1  0.4523750000000  0.4509490000000  0.4058060000000 1.0
C      1  0.4398660000000  0.4095120000000  0.4755080000000 1.0
C      1  0.5004900000000  0.5444920000000  0.4879500000000 1.0
C      1  0.5222240000000  0.4325660000000  0.4523090000000 1.0
C      1  0.4944920000000  0.4961730000000  0.3787510000000 1.0
C      1  0.5030020000000  0.5798620000000  0.4538760000000 1.0
C      1  0.5614570000000  0.5139100000000  0.4171610000000 1.0
C      1  0.4121740000000  0.4760860000000  0.5334000000000 1.0
C      1  0.4768790000000  0.5011640000000  0.5046510000000 1.0
C      1  0.5475870000000  0.6033760000000  0.5610230000000 1.0
C      1  0.5177920000000  0.4244280000000  0.4249250000000 1.0
C      1  0.4842240000000  0.5874480000000  0.5505620000000 1.0
C      1  0.5206700000000  0.4766010000000  0.5641420000000 1.0
C      1  0.5468590000000  0.5071250000000  0.6062790000000 1.0
C      1  0.5346590000000  0.4260110000000  0.5821680000000 1.0
C      1  0.4390430000000  0.5192350000000  0.5598930000000 1.0
C      1  0.4243410000000  0.5219430000000  0.5361560000000 1.0
C      1  0.4517690000000  0.4950580000000  0.4380940000000 1.0
C      1  0.4716780000000  0.5461100000000  0.4430940000000 1.0
C      1  0.5945170000000  0.4567010000000  0.5146660000000 1.0
C      1  0.4263000000000  0.4339570000000  0.5884050000000 1.0
C      1  0.5877540000000  0.4478770000000  0.5392890000000 1.0
C      1  0.4219570000000  0.4562440000000  0.5166690000000 1.0
C      1  0.4671780000000  0.4849880000000  0.4607920000000 1.0
C      1  0.4094040000000  0.4938590000000  0.4715540000000 1.0
C      1  0.3899520000000  0.5476820000000  0.5201260000000 1.0
C      1  0.4491540000000  0.4597860000000  0.5074330000000 1.0
C      1  0.5889860000000  0.5157830000000  0.4741990000000 1.0
C      1  0.5360400000000  0.6200440000000  0.5435480000000 1.0
C      1  0.5621710000000  0.5224590000000  0.4883600000000 1.0
C      1  0.5525770000000  0.4054400000000  0.3931980000000 1.0
C      1  0.4069490000000  0.4699590000000  0.5602190000000 1.0
C      1  0.5499860000000  0.5485130000000  0.5005240000000 1.0
C      1  0.4218800000000  0.4776530000000  0.6062120000000 1.0
C      1  0.5580230000000  0.3920360000000  0.5610460000000 1.0
C      1  0.4928140000000  0.3950220000000  0.4908680000000 1.0
C      1  0.4967060000000  0.4256140000000  0.6112130000000 1.0
C      1  0.4903840000000  0.5551420000000  0.4628310000000 1.0
C      1  0.6081190000000  0.3972440000000  0.4431060000000 1.0
C      1  0.5946950000000  0.3779830000000  0.3993230000000 1.0
C      1  0.4198990000000  0.5508800000000  0.5285980000000 1.0
C      1  0.5617690000000  0.5563240000000  0.5526140000000 1.0
C      1  0.4669350000000  0.4977000000000  0.3732800000000 1.0
C      1  0.4455300000000  0.4855480000000  0.6163260000000 1.0
C      1  0.5299030000000  0.5766690000000  0.4629550000000 1.0
C      1  0.5018930000000  0.4526700000000  0.6009050000000 1.0
C      1  0.4555570000000  0.6542070000000  0.5000690000000 1.0
C      1  0.4476820000000  0.6192970000000  0.5457980000000 1.0
C      1  0.5031190000000  0.5139700000000  0.4956220000000 1.0
C      1  0.6133000000000  0.5359030000000  0.5074020000000 1.0
C      1  0.4852680000000  0.5273260000000  0.4245540000000 1.0
C      1  0.4739420000000  0.5564330000000  0.5109550000000 1.0
C      1  0.3861300000000  0.5364700000000  0.4937530000000 1.0
C      1  0.6146960000000  0.6411040000000  0.4437800000000 1.0
C      1  0.4010940000000  0.4375550000000  0.4547320000000 1.0
C      1  0.5512760000000  0.5773750000000  0.5705480000000 1.0
C      1  0.5423830000000  0.5120950000000  0.4646330000000 1.0
C      1  0.5640510000000  0.4847820000000  0.5993150000000 1.0
C      1  0.5512570000000  0.5768210000000  0.4440660000000 1.0
C      1  0.5104050000000  0.5194600000000  0.3762840000000 1.0
C      1  0.4716280000000  0.4232160000000  0.4343880000000 1.0
C      1  0.5107810000000  0.3698110000000  0.5581150000000 1.0
C      1  0.4922570000000  0.5420400000000  0.5922250000000 1.0
C      1  0.5102730000000  0.4079750000000  0.5343120000000 1.0
C      1  0.5284870000000  0.5585250000000  0.4858630000000 1.0
C      1  0.4812330000000  0.5930940000000  0.4399880000000 1.0
C      1  0.4190450000000  0.5004410000000  0.5198500000000 1.0
C      1  0.5586220000000  0.4195260000000  0.5689100000000 1.0
C      1  0.5302070000000  0.4701680000000  0.4017280000000 1.0
C      1  0.5315310000000  0.5357760000000  0.3852930000000 1.0
C      1  0.4710980000000  0.4857470000000  0.6054040000000 1.0
C      1  0.3935050000000  0.4490610000000  0.4804810000000 1.0
C      1  0.4156220000000  0.4599230000000  0.5850870000000 1.0
C      1  0.5162290000000  0.6276890000000  0.5272460000000 1.0
C      1  0.6054590000000  0.5383390000000  0.4799920000000 1.0
C      1  0.5322410000000  0.4490490000000  0.5013700000000 1.0
C      1  0.5032140000000  0.4484030000000  0.4989940000000 1.0
END
