TITL C-627108-131-256 0.000194559156915035 125000 -700.553564223879 0 0 114 (C1) n - 1
REM
REM in /home/nfs/bkarasulu/CARBON/AIRSS/Generating-Clusters/LCBOP/Only-C1/SD-CG/FIRE-CG
REM
REM
REM
REM
REM
REM ./C.cell (11c1c37f851c82e70ff6c80c92926a4b)
REM AIRSS Version 0.9.1 bugfix July 2018 build 013d7b7c2542+ Fri, 06 Jul 2018 19:26:36 +0100
REM compiler GCC version 9.2.1 20190827 (Red Hat 9.2.1-1)
REM options -cpp -mtune=generic -march=x86-64 -g -O0 -fpre-include=/usr/include/finclude/math-vector-fortran.h
REM seed -1040797682 -475944295 -1018753338 66641046 15138128 241602972 -1637469836 -180343170 1134821637 -1017646644 -757408112 -1369791303 -1777846520 1707984077 748510615 1921858491 1829301023 -1006465762 973446571 -1493604666 1590554523 -100064906 925961933 -1044917411 351800053 769527432 -1884074145 241889475 1486230319 216346564 1551631751 2047763825 -1261292368
REM
CELL 1.54180   50.00000   50.00000   50.00000   90.00000   90.00000   90.00000
LATT -1
SFAC C  
C      1  0.4946350000000  0.5809670000000  0.5515340000000 1.0
C      1  0.5240540000000  0.4652620000000  0.4203470000000 1.0
C      1  0.5379050000000  0.4740350000000  0.4879680000000 1.0
C      1  0.4408770000000  0.5090780000000  0.5424260000000 1.0
C      1  0.4913200000000  0.4581850000000  0.4932290000000 1.0
C      1  0.5031680000000  0.4555430000000  0.5186450000000 1.0
C      1  0.4622890000000  0.5363550000000  0.5097020000000 1.0
C      1  0.5268820000000  0.5619520000000  0.5804230000000 1.0
C      1  0.4912670000000  0.5725290000000  0.4987080000000 1.0
C      1  0.5185770000000  0.4356720000000  0.4607560000000 1.0
C      1  0.5236720000000  0.5199440000000  0.4989890000000 1.0
C      1  0.4967070000000  0.6507360000000  0.3602400000000 1.0
C      1  0.5557650000000  0.4925070000000  0.4440710000000 1.0
C      1  0.4293620000000  0.4889990000000  0.4808760000000 1.0
C      1  0.5844120000000  0.5339370000000  0.4631340000000 1.0
C      1  0.5245410000000  0.5039740000000  0.6401950000000 1.0
C      1  0.5307730000000  0.5788520000000  0.4642440000000 1.0
C      1  0.5744110000000  0.4474710000000  0.5037290000000 1.0
C      1  0.5029640000000  0.5202910000000  0.5737310000000 1.0
C      1  0.4288810000000  0.4210370000000  0.5538060000000 1.0
C      1  0.4765190000000  0.5581920000000  0.4220240000000 1.0
C      1  0.5124180000000  0.5828610000000  0.4834050000000 1.0
C      1  0.5654450000000  0.4644780000000  0.4824400000000 1.0
C      1  0.4511550000000  0.4380170000000  0.5494510000000 1.0
C      1  0.3433310000000  0.5227750000000  0.5058600000000 1.0
C      1  0.5525850000000  0.4737210000000  0.4233350000000 1.0
C      1  0.4232560000000  0.3994860000000  0.5365740000000 1.0
C      1  0.5269270000000  0.4749150000000  0.5549080000000 1.0
C      1  0.5827680000000  0.5573090000000  0.5179480000000 1.0
C      1  0.4804480000000  0.5629600000000  0.5714660000000 1.0
C      1  0.4038520000000  0.4814520000000  0.4913190000000 1.0
C      1  0.4819100000000  0.5773040000000  0.5257510000000 1.0
C      1  0.5297310000000  0.6038310000000  0.3971620000000 1.0
C      1  0.5445300000000  0.5643950000000  0.4440120000000 1.0
C      1  0.5638130000000  0.5764400000000  0.5260700000000 1.0
C      1  0.5170840000000  0.5325750000000  0.5236770000000 1.0
C      1  0.4877010000000  0.4988690000000  0.5331240000000 1.0
C      1  0.4988260000000  0.4940250000000  0.5912600000000 1.0
C      1  0.5692380000000  0.5521950000000  0.4504650000000 1.0
C      1  0.4790190000000  0.5474580000000  0.4891310000000 1.0
C      1  0.5514190000000  0.5499940000000  0.5862560000000 1.0
C      1  0.5244720000000  0.4380910000000  0.4330770000000 1.0
C      1  0.5020060000000  0.5472150000000  0.5836810000000 1.0
C      1  0.5432490000000  0.4998410000000  0.5019010000000 1.0
C      1  0.5083820000000  0.4852870000000  0.4085040000000 1.0
C      1  0.5549800000000  0.4273070000000  0.5130740000000 1.0
C      1  0.4549310000000  0.4469330000000  0.5228350000000 1.0
C      1  0.4445850000000  0.3797990000000  0.5353810000000 1.0
C      1  0.5018950000000  0.3986770000000  0.5395780000000 1.0
C      1  0.5778550000000  0.5297130000000  0.5242600000000 1.0
C      1  0.4638710000000  0.4619050000000  0.5002310000000 1.0
C      1  0.3706620000000  0.5230240000000  0.5074330000000 1.0
C      1  0.4515320000000  0.5114790000000  0.5890670000000 1.0
C      1  0.5456120000000  0.4105130000000  0.4926020000000 1.0
C      1  0.5503940000000  0.4276800000000  0.4242180000000 1.0
C      1  0.5214920000000  0.6456140000000  0.3691150000000 1.0
C      1  0.4458930000000  0.4416550000000  0.4331600000000 1.0
C      1  0.4606140000000  0.5071190000000  0.5192010000000 1.0
C      1  0.4903210000000  0.5345290000000  0.4666730000000 1.0
C      1  0.3852550000000  0.5009400000000  0.4983760000000 1.0
C      1  0.4479080000000  0.4178490000000  0.4449290000000 1.0
C      1  0.4518640000000  0.4876220000000  0.4981170000000 1.0
C      1  0.4647190000000  0.6158920000000  0.3755130000000 1.0
C      1  0.5220330000000  0.4122180000000  0.4771940000000 1.0
C      1  0.4031440000000  0.4282540000000  0.4999360000000 1.0
C      1  0.5774890000000  0.5236390000000  0.5516780000000 1.0
C      1  0.5833370000000  0.5101040000000  0.4785380000000 1.0
C      1  0.4405140000000  0.4676620000000  0.4356240000000 1.0
C      1  0.5489070000000  0.4579580000000  0.5505040000000 1.0
C      1  0.4601220000000  0.5568450000000  0.5305280000000 1.0
C      1  0.4714560000000  0.5951480000000  0.3907740000000 1.0
C      1  0.4338380000000  0.4866310000000  0.4532300000000 1.0
C      1  0.4613160000000  0.3852900000000  0.5125200000000 1.0
C      1  0.4692010000000  0.4441130000000  0.5704560000000 1.0
C      1  0.4602900000000  0.4628820000000  0.5898670000000 1.0
C      1  0.4576050000000  0.5505980000000  0.5588220000000 1.0
C      1  0.5700700000000  0.5113910000000  0.5040550000000 1.0
C      1  0.4882060000000  0.3941920000000  0.5142320000000 1.0
C      1  0.3984950000000  0.4540460000000  0.4949690000000 1.0
C      1  0.5136550000000  0.4235410000000  0.5494900000000 1.0
C      1  0.4877480000000  0.5786360000000  0.4063610000000 1.0
C      1  0.4190370000000  0.4068130000000  0.5082240000000 1.0
C      1  0.5335380000000  0.5096950000000  0.4523810000000 1.0
C      1  0.5310000000000  0.5598380000000  0.4189640000000 1.0
C      1  0.5163180000000  0.5814830000000  0.4072290000000 1.0
C      1  0.4732950000000  0.6379790000000  0.3631350000000 1.0
C      1  0.4422050000000  0.3969850000000  0.4932660000000 1.0
C      1  0.5145150000000  0.4596260000000  0.4764290000000 1.0
C      1  0.5751320000000  0.4860840000000  0.4647730000000 1.0
C      1  0.4793340000000  0.5404980000000  0.4417310000000 1.0
C      1  0.5115140000000  0.4979770000000  0.6179370000000 1.0
C      1  0.5262180000000  0.5343310000000  0.4076390000000 1.0
C      1  0.5227670000000  0.5807990000000  0.5584030000000 1.0
C      1  0.5106650000000  0.4683660000000  0.5778180000000 1.0
C      1  0.6063970000000  0.5650990000000  0.5065720000000 1.0
C      1  0.5153450000000  0.5218220000000  0.4713730000000 1.0
C      1  0.5132680000000  0.5112600000000  0.4030380000000 1.0
C      1  0.4459260000000  0.5254790000000  0.5653160000000 1.0
C      1  0.5332000000000  0.6265880000000  0.3837970000000 1.0
C      1  0.5895600000000  0.4586570000000  0.5250240000000 1.0
C      1  0.5047700000000  0.3766420000000  0.5560250000000 1.0
C      1  0.5762530000000  0.4644160000000  0.5480620000000 1.0
C      1  0.4981610000000  0.4421010000000  0.5689920000000 1.0
C      1  0.5067330000000  0.4775950000000  0.5344550000000 1.0
C      1  0.5025620000000  0.5203840000000  0.5448410000000 1.0
C      1  0.5673050000000  0.4491330000000  0.4192130000000 1.0
C      1  0.4463920000000  0.4020230000000  0.4662570000000 1.0
C      1  0.5690250000000  0.5332290000000  0.5751370000000 1.0
C      1  0.3839120000000  0.5446410000000  0.5177810000000 1.0
C      1  0.5437000000000  0.5860400000000  0.5406990000000 1.0
C      1  0.5378070000000  0.5106200000000  0.6616290000000 1.0
C      1  0.4687490000000  0.4896070000000  0.5938320000000 1.0
C      1  0.5404180000000  0.4326510000000  0.5384750000000 1.0
C      1  0.5006250000000  0.3991300000000  0.4894580000000 1.0
END
