TITL C-627107-135-1326 5.13967030120274e-07 125000 -623.641943444561 0 0 101 (C1) n - 1
REM
REM in /home/nfs/bkarasulu/CARBON/AIRSS/Generating-Clusters/LCBOP/Only-C1/SD-CG/FIRE-CG
REM
REM
REM
REM
REM
REM ./C.cell (11c1c37f851c82e70ff6c80c92926a4b)
REM AIRSS Version 0.9.1 bugfix July 2018 build 013d7b7c2542+ Fri, 06 Jul 2018 19:26:36 +0100
REM compiler GCC version 9.2.1 20190827 (Red Hat 9.2.1-1)
REM options -cpp -mtune=generic -march=x86-64 -g -O0 -fpre-include=/usr/include/finclude/math-vector-fortran.h
REM seed 1536165838 1179525308 -826095966 2134956142 -1662890720 194515729 -681450716 976155598 -256225899 -1961524977 -1850947739 -1019118350 854122306 1186197036 454122881 -638449249 -527041376 -537383173 -750640792 -1794768109 -1398385852 -1138940822 -439540836 -294666700 -469114745 -1430285814 1430882905 -542153677 332130652 -1421670804 -969091646 -11776285 1584667731
REM
CELL 1.54180   50.00000   50.00000   50.00000   90.00000   90.00000   90.00000
LATT -1
SFAC C  
C      1  0.5181030000000  0.5422540000000  0.5362170000000 1.0
C      1  0.5788290000000  0.4760930000000  0.5144020000000 1.0
C      1  0.5245830000000  0.4735830000000  0.5276040000000 1.0
C      1  0.5190930000000  0.4942050000000  0.4809190000000 1.0
C      1  0.5328900000000  0.4817020000000  0.4319700000000 1.0
C      1  0.4303830000000  0.4945810000000  0.5016950000000 1.0
C      1  0.4830600000000  0.5513930000000  0.4012390000000 1.0
C      1  0.5278500000000  0.4657820000000  0.4789000000000 1.0
C      1  0.4246760000000  0.5562890000000  0.5930590000000 1.0
C      1  0.5680290000000  0.5674700000000  0.5888370000000 1.0
C      1  0.4096360000000  0.4940410000000  0.5193180000000 1.0
C      1  0.4778470000000  0.4686660000000  0.4781270000000 1.0
C      1  0.4009320000000  0.5392370000000  0.5023260000000 1.0
C      1  0.4796440000000  0.6050680000000  0.5425170000000 1.0
C      1  0.5432940000000  0.5748130000000  0.4200320000000 1.0
C      1  0.5120390000000  0.4200850000000  0.5389410000000 1.0
C      1  0.5006190000000  0.4352960000000  0.5619290000000 1.0
C      1  0.5680210000000  0.4567580000000  0.5896300000000 1.0
C      1  0.5894650000000  0.4743600000000  0.5839860000000 1.0
C      1  0.4700740000000  0.4684450000000  0.5049970000000 1.0
C      1  0.4639860000000  0.5619580000000  0.4192200000000 1.0
C      1  0.4491870000000  0.5422950000000  0.4332270000000 1.0
C      1  0.5258520000000  0.5219000000000  0.5808070000000 1.0
C      1  0.5156310000000  0.4720350000000  0.5927460000000 1.0
C      1  0.4808280000000  0.4206300000000  0.4654480000000 1.0
C      1  0.6022550000000  0.4693930000000  0.5589860000000 1.0
C      1  0.5290400000000  0.4060380000000  0.4668940000000 1.0
C      1  0.4816790000000  0.5114900000000  0.4509430000000 1.0
C      1  0.4646450000000  0.4537970000000  0.4209760000000 1.0
C      1  0.5520450000000  0.5014850000000  0.4276860000000 1.0
C      1  0.5413310000000  0.5924950000000  0.5599720000000 1.0
C      1  0.5957590000000  0.4849450000000  0.5359760000000 1.0
C      1  0.4482330000000  0.4523010000000  0.4448100000000 1.0
C      1  0.4489130000000  0.5453490000000  0.5091190000000 1.0
C      1  0.4696990000000  0.5092500000000  0.5299080000000 1.0
C      1  0.4960830000000  0.5969060000000  0.4284750000000 1.0
C      1  0.4628700000000  0.4723080000000  0.5589500000000 1.0
C      1  0.4225690000000  0.5413910000000  0.5208310000000 1.0
C      1  0.4298510000000  0.5252530000000  0.4220610000000 1.0
C      1  0.4217530000000  0.5424060000000  0.5712020000000 1.0
C      1  0.4905160000000  0.5062020000000  0.4235040000000 1.0
C      1  0.5084470000000  0.4869950000000  0.5446380000000 1.0
C      1  0.4906380000000  0.5232870000000  0.4008030000000 1.0
C      1  0.5058970000000  0.4824060000000  0.4204040000000 1.0
C      1  0.4208870000000  0.5280430000000  0.5473730000000 1.0
C      1  0.5757380000000  0.4467400000000  0.5130080000000 1.0
C      1  0.3914070000000  0.5234410000000  0.4825910000000 1.0
C      1  0.5749740000000  0.5956600000000  0.5898890000000 1.0
C      1  0.5487440000000  0.4409610000000  0.5762380000000 1.0
C      1  0.4872920000000  0.5804560000000  0.5386360000000 1.0
C      1  0.5945220000000  0.4969840000000  0.5992210000000 1.0
C      1  0.5301340000000  0.5302620000000  0.5136840000000 1.0
C      1  0.4544500000000  0.5433240000000  0.4813740000000 1.0
C      1  0.5278960000000  0.5459830000000  0.3871270000000 1.0
C      1  0.4183320000000  0.4450390000000  0.5094410000000 1.0
C      1  0.4762080000000  0.4479140000000  0.5510980000000 1.0
C      1  0.4918830000000  0.5533750000000  0.5336070000000 1.0
C      1  0.4567910000000  0.4923640000000  0.5109470000000 1.0
C      1  0.5800130000000  0.4328400000000  0.5383130000000 1.0
C      1  0.5682290000000  0.4304510000000  0.4912750000000 1.0
C      1  0.6031860000000  0.4416720000000  0.5521840000000 1.0
C      1  0.5228240000000  0.4545530000000  0.5053900000000 1.0
C      1  0.4489700000000  0.6041790000000  0.4393480000000 1.0
C      1  0.5909400000000  0.5225100000000  0.6053800000000 1.0
C      1  0.3942450000000  0.5016560000000  0.4669490000000 1.0
C      1  0.5588770000000  0.6100010000000  0.5724570000000 1.0
C      1  0.5522410000000  0.4130340000000  0.4785830000000 1.0
C      1  0.5315440000000  0.4592710000000  0.4509850000000 1.0
C      1  0.4166410000000  0.4491640000000  0.4825200000000 1.0
C      1  0.4678800000000  0.4458530000000  0.4647670000000 1.0
C      1  0.5378240000000  0.5092700000000  0.4965860000000 1.0
C      1  0.4242040000000  0.4519090000000  0.5353250000000 1.0
C      1  0.5628420000000  0.4957810000000  0.5014980000000 1.0
C      1  0.4812380000000  0.4938170000000  0.5504040000000 1.0
C      1  0.5373220000000  0.4087070000000  0.5426550000000 1.0
C      1  0.5304540000000  0.5426180000000  0.5621690000000 1.0
C      1  0.5168710000000  0.5849030000000  0.4139560000000 1.0
C      1  0.5042530000000  0.4344320000000  0.5148640000000 1.0
C      1  0.5201270000000  0.4985260000000  0.5925610000000 1.0
C      1  0.4918810000000  0.4933600000000  0.4706160000000 1.0
C      1  0.4185660000000  0.4989220000000  0.5465310000000 1.0
C      1  0.5196920000000  0.5014740000000  0.3650720000000 1.0
C      1  0.4704680000000  0.5368480000000  0.5256640000000 1.0
C      1  0.4340000000000  0.4739680000000  0.5525300000000 1.0
C      1  0.4106270000000  0.4862960000000  0.4493860000000 1.0
C      1  0.4192220000000  0.5010680000000  0.4268830000000 1.0
C      1  0.5455720000000  0.5651970000000  0.5695210000000 1.0
C      1  0.5139060000000  0.5211060000000  0.3828100000000 1.0
C      1  0.5125980000000  0.4405380000000  0.4383040000000 1.0
C      1  0.4623220000000  0.5321190000000  0.4566850000000 1.0
C      1  0.5488950000000  0.5492920000000  0.4072270000000 1.0
C      1  0.4688790000000  0.5883460000000  0.4295070000000 1.0
C      1  0.5069650000000  0.5661560000000  0.3939390000000 1.0
C      1  0.4784390000000  0.4467930000000  0.5214770000000 1.0
C      1  0.4232740000000  0.4612820000000  0.4568560000000 1.0
C      1  0.5810150000000  0.5468000000000  0.6017530000000 1.0
C      1  0.5587320000000  0.5260940000000  0.4194640000000 1.0
C      1  0.5204490000000  0.4474600000000  0.5793810000000 1.0
C      1  0.4934570000000  0.4560080000000  0.4213500000000 1.0
C      1  0.5575850000000  0.4246340000000  0.5539630000000 1.0
C      1  0.5066970000000  0.4179090000000  0.4544450000000 1.0
END
