TITL C-627110-360-454 1.08412843889187 125000 -81.4217189028073 0 0 16 (C1) n - 1
REM
REM in /home/nfs/bkarasulu/CARBON/AIRSS/Generating-Clusters/LCBOP/Only-C1/SD-CG/FIRE-CG
REM
REM
REM
REM
REM
REM ./C.cell (11c1c37f851c82e70ff6c80c92926a4b)
REM AIRSS Version 0.9.1 bugfix July 2018 build 013d7b7c2542+ Fri, 06 Jul 2018 19:26:36 +0100
REM compiler GCC version 9.2.1 20190827 (Red Hat 9.2.1-1)
REM options -cpp -mtune=generic -march=x86-64 -g -O0 -fpre-include=/usr/include/finclude/math-vector-fortran.h
REM seed 1825110575 1278925072 -1455016141 -907321834 1287312163 215517179 -226336675 1777574239 836218679 1985160714 601527477 892632705 146383410 -416213268 110968177 -1834166559 -1371991532 -519009893 1082345015 1795850916 629594876 -247724142 -1147966053 376664966 1773279734 -261493488 700012499 -1889115726 -135080163 -771490774 306333214 -703805178 847375677
REM
CELL 1.54180   50.00000   50.00000   50.00000   90.00000   90.00000   90.00000
LATT -1
SFAC C  
C      1  0.4574350000000  0.4985440000000  0.4576800000000 1.0
C      1  0.5206090000000  0.5179750000000  0.4532640000000 1.0
C      1  0.4893060000000  0.5147070000000  0.5686870000000 1.0
C      1  0.4506230000000  0.5097750000000  0.4336480000000 1.0
C      1  0.4773020000000  0.5109450000000  0.4738010000000 1.0
C      1  0.5046080000000  0.5038710000000  0.4704080000000 1.0
C      1  0.5531630000000  0.4870630000000  0.5494500000000 1.0
C      1  0.5150530000000  0.4819750000000  0.4852310000000 1.0
C      1  0.4700190000000  0.5299330000000  0.4929340000000 1.0
C      1  0.4636220000000  0.5477580000000  0.5108350000000 1.0
C      1  0.5765890000000  0.4820680000000  0.5597210000000 1.0
C      1  0.5280620000000  0.4924040000000  0.5384180000000 1.0
C      1  0.5172040000000  0.4572660000000  0.4736890000000 1.0
C      1  0.4453980000000  0.4755490000000  0.4664250000000 1.0
C      1  0.5229120000000  0.4860910000000  0.5117210000000 1.0
C      1  0.5080930000000  0.5040730000000  0.5540860000000 1.0
END
