TITL C-627112-676-761 8.99292485012347e-07 125000 -882.418349893999 0 0 145 (C1) n - 1
REM
REM in /home/nfs/bkarasulu/CARBON/AIRSS/Generating-Clusters/LCBOP/Only-C1/SD-CG/FIRE-CG
REM
REM
REM
REM
REM
REM ./C.cell (11c1c37f851c82e70ff6c80c92926a4b)
REM AIRSS Version 0.9.1 bugfix July 2018 build 013d7b7c2542+ Fri, 06 Jul 2018 19:26:36 +0100
REM compiler GCC version 9.2.1 20190827 (Red Hat 9.2.1-1)
REM options -cpp -mtune=generic -march=x86-64 -g -O0 -fpre-include=/usr/include/finclude/math-vector-fortran.h
REM seed 559008721 1936686035 -456411756 123498031 726757042 1329797699 -1549537350 -1131262091 -1168170611 -52520806 408059172 1725409572 -20032029 -850034739 -557810952 195393061 1230453094 -359079146 -2101991169 1653921340 1099837485 -1876401031 -1595903725 180276230 -436891667 -1474894531 1847238552 626559709 1620848221 -917626914 -1436948425 -816262549 -376527039
REM
CELL 1.54180   50.00000   50.00000   50.00000   90.00000   90.00000   90.00000
LATT -1
SFAC C  
C      1  0.4640020000000  0.4792750000000  0.3831630000000 1.0
C      1  0.5783130000000  0.5281190000000  0.5422490000000 1.0
C      1  0.4204730000000  0.5490420000000  0.4689370000000 1.0
C      1  0.5478370000000  0.4217740000000  0.3978540000000 1.0
C      1  0.4075180000000  0.4286190000000  0.5601070000000 1.0
C      1  0.5825600000000  0.4219150000000  0.4664510000000 1.0
C      1  0.5360810000000  0.4846720000000  0.4601060000000 1.0
C      1  0.5279180000000  0.3812430000000  0.4107470000000 1.0
C      1  0.4015590000000  0.4981890000000  0.5981450000000 1.0
C      1  0.4357840000000  0.4608820000000  0.6163910000000 1.0
C      1  0.5326160000000  0.5865060000000  0.5482680000000 1.0
C      1  0.5158340000000  0.5054470000000  0.5388540000000 1.0
C      1  0.4531250000000  0.5856980000000  0.4591900000000 1.0
C      1  0.5505070000000  0.5088230000000  0.5097880000000 1.0
C      1  0.4578720000000  0.5440890000000  0.4948480000000 1.0
C      1  0.5657610000000  0.5658330000000  0.5799910000000 1.0
C      1  0.4601100000000  0.4335930000000  0.5696950000000 1.0
C      1  0.5278690000000  0.5839900000000  0.4723400000000 1.0
C      1  0.4559850000000  0.5375290000000  0.4016340000000 1.0
C      1  0.4668550000000  0.4911240000000  0.4062610000000 1.0
C      1  0.6008680000000  0.5040800000000  0.4986040000000 1.0
C      1  0.6172180000000  0.5703590000000  0.5111530000000 1.0
C      1  0.5927870000000  0.5291180000000  0.5157880000000 1.0
C      1  0.4083390000000  0.5509020000000  0.5200960000000 1.0
C      1  0.4566250000000  0.4924560000000  0.5636780000000 1.0
C      1  0.4452980000000  0.4984450000000  0.5892430000000 1.0
C      1  0.4022030000000  0.5203750000000  0.5821850000000 1.0
C      1  0.4256470000000  0.5699830000000  0.5352980000000 1.0
C      1  0.5424090000000  0.3956660000000  0.3929500000000 1.0
C      1  0.6050420000000  0.4793530000000  0.5147440000000 1.0
C      1  0.5934800000000  0.5569400000000  0.5058620000000 1.0
C      1  0.4820700000000  0.5473270000000  0.4080520000000 1.0
C      1  0.5452920000000  0.4059680000000  0.5309760000000 1.0
C      1  0.4517990000000  0.4954360000000  0.5349930000000 1.0
C      1  0.4843260000000  0.4861380000000  0.5700470000000 1.0
C      1  0.4130100000000  0.5256280000000  0.5338550000000 1.0
C      1  0.3805060000000  0.4756750000000  0.4913340000000 1.0
C      1  0.4523640000000  0.4074550000000  0.5200770000000 1.0
C      1  0.4291620000000  0.3985070000000  0.5096650000000 1.0
C      1  0.4297650000000  0.5699280000000  0.4514630000000 1.0
C      1  0.5452490000000  0.5829680000000  0.4971790000000 1.0
C      1  0.4210390000000  0.5042990000000  0.4220890000000 1.0
C      1  0.4326440000000  0.4284790000000  0.5685640000000 1.0
C      1  0.5452220000000  0.4715220000000  0.5418080000000 1.0
C      1  0.5183300000000  0.4758110000000  0.4395600000000 1.0
C      1  0.4625620000000  0.4339640000000  0.5220670000000 1.0
C      1  0.3948830000000  0.4982000000000  0.4883180000000 1.0
C      1  0.4789780000000  0.4598510000000  0.4645160000000 1.0
C      1  0.4595920000000  0.5155080000000  0.4516700000000 1.0
C      1  0.5895510000000  0.4363020000000  0.5494100000000 1.0
C      1  0.5296230000000  0.5063240000000  0.5856170000000 1.0
C      1  0.5980620000000  0.4423610000000  0.4579660000000 1.0
C      1  0.4573470000000  0.4442970000000  0.6154530000000 1.0
C      1  0.4966680000000  0.5106660000000  0.4804740000000 1.0
C      1  0.5959930000000  0.4951020000000  0.4644800000000 1.0
C      1  0.4582430000000  0.5197000000000  0.6028500000000 1.0
C      1  0.4741930000000  0.4908620000000  0.5181290000000 1.0
C      1  0.4833990000000  0.5431800000000  0.5433370000000 1.0
C      1  0.4899170000000  0.4758340000000  0.4435410000000 1.0
C      1  0.4517380000000  0.4500510000000  0.5015980000000 1.0
C      1  0.4943780000000  0.4646030000000  0.5534940000000 1.0
C      1  0.4800230000000  0.5761300000000  0.4524970000000 1.0
C      1  0.5599140000000  0.4148470000000  0.4826710000000 1.0
C      1  0.4037850000000  0.5537420000000  0.4920840000000 1.0
C      1  0.5853620000000  0.4319520000000  0.5214000000000 1.0
C      1  0.5888810000000  0.4562760000000  0.5058250000000 1.0
C      1  0.5286770000000  0.5313630000000  0.4517990000000 1.0
C      1  0.5098850000000  0.5381320000000  0.4764570000000 1.0
C      1  0.5635710000000  0.4661230000000  0.4973280000000 1.0
C      1  0.5756090000000  0.5044690000000  0.4455040000000 1.0
C      1  0.5585650000000  0.5195540000000  0.4859560000000 1.0
C      1  0.5547360000000  0.4827550000000  0.5178140000000 1.0
C      1  0.5182140000000  0.3918700000000  0.4352010000000 1.0
C      1  0.4806550000000  0.5306400000000  0.5889120000000 1.0
C      1  0.4726070000000  0.4960170000000  0.4334500000000 1.0
C      1  0.5381980000000  0.4355590000000  0.4208760000000 1.0
C      1  0.4413230000000  0.5273840000000  0.4753410000000 1.0
C      1  0.5165030000000  0.5424870000000  0.5073510000000 1.0
C      1  0.6047260000000  0.4685300000000  0.4586530000000 1.0
C      1  0.5291950000000  0.5373460000000  0.4236110000000 1.0
C      1  0.4746760000000  0.4434730000000  0.5468140000000 1.0
C      1  0.5002520000000  0.5085800000000  0.5826820000000 1.0
C      1  0.5037990000000  0.6008300000000  0.5133640000000 1.0
C      1  0.5440450000000  0.4647990000000  0.4779790000000 1.0
C      1  0.3924470000000  0.3911830000000  0.4788840000000 1.0
C      1  0.5179970000000  0.4124100000000  0.5766510000000 1.0
C      1  0.4983820000000  0.4604970000000  0.4861550000000 1.0
C      1  0.5524610000000  0.5424520000000  0.5404160000000 1.0
C      1  0.5505790000000  0.5663280000000  0.5559320000000 1.0
C      1  0.4973550000000  0.5552330000000  0.5227080000000 1.0
C      1  0.6075720000000  0.4796210000000  0.5433780000000 1.0
C      1  0.4827010000000  0.5697240000000  0.4250480000000 1.0
C      1  0.4254520000000  0.4834110000000  0.6029210000000 1.0
C      1  0.4863220000000  0.5785750000000  0.5738720000000 1.0
C      1  0.3898460000000  0.4272970000000  0.5115220000000 1.0
C      1  0.5095580000000  0.5897280000000  0.5651730000000 1.0
C      1  0.5775400000000  0.5203540000000  0.5710030000000 1.0
C      1  0.5641980000000  0.4144930000000  0.5116080000000 1.0
C      1  0.4729950000000  0.4321870000000  0.5950580000000 1.0
C      1  0.4993180000000  0.3790950000000  0.4501890000000 1.0
C      1  0.5803220000000  0.6032010000000  0.4220960000000 1.0
C      1  0.4356290000000  0.6087180000000  0.5004840000000 1.0
C      1  0.4716010000000  0.5526590000000  0.5689240000000 1.0
C      1  0.5314130000000  0.4069450000000  0.5539930000000 1.0
C      1  0.5493580000000  0.5110890000000  0.4599920000000 1.0
C      1  0.5327820000000  0.5260000000000  0.5250330000000 1.0
C      1  0.5072660000000  0.5340100000000  0.4047400000000 1.0
C      1  0.3906780000000  0.4285450000000  0.5395480000000 1.0
C      1  0.4464290000000  0.6083710000000  0.4753060000000 1.0
C      1  0.4989540000000  0.4210930000000  0.5936850000000 1.0
C      1  0.5822620000000  0.5821570000000  0.4662530000000 1.0
C      1  0.5663620000000  0.5049340000000  0.4174110000000 1.0
C      1  0.5892580000000  0.4634610000000  0.5590100000000 1.0
C      1  0.5178160000000  0.4765920000000  0.5435450000000 1.0
C      1  0.4224810000000  0.4858520000000  0.4420210000000 1.0
C      1  0.5791460000000  0.5433630000000  0.5878360000000 1.0
C      1  0.5577950000000  0.4997570000000  0.5778050000000 1.0
C      1  0.5310310000000  0.5940680000000  0.5203240000000 1.0
C      1  0.5553000000000  0.5315130000000  0.4122330000000 1.0
C      1  0.4332830000000  0.5239880000000  0.4079080000000 1.0
C      1  0.4179820000000  0.5326190000000  0.5621690000000 1.0
C      1  0.4861720000000  0.5791010000000  0.5127180000000 1.0
C      1  0.5339190000000  0.4219750000000  0.4710450000000 1.0
C      1  0.5227090000000  0.4461600000000  0.4822730000000 1.0
C      1  0.5489700000000  0.4843290000000  0.4042260000000 1.0
C      1  0.4331880000000  0.4802200000000  0.4683230000000 1.0
C      1  0.5135600000000  0.5149800000000  0.3844800000000 1.0
C      1  0.5684170000000  0.5941860000000  0.4447980000000 1.0
C      1  0.5325380000000  0.4955090000000  0.3833400000000 1.0
C      1  0.5730440000000  0.5729630000000  0.4919770000000 1.0
C      1  0.4525050000000  0.4606810000000  0.4754300000000 1.0
C      1  0.5033420000000  0.5679350000000  0.4685620000000 1.0
C      1  0.3802760000000  0.4496540000000  0.4974820000000 1.0
C      1  0.5630270000000  0.4748940000000  0.5639350000000 1.0
C      1  0.5292950000000  0.4174760000000  0.4428550000000 1.0
C      1  0.4398470000000  0.5860990000000  0.5169520000000 1.0
C      1  0.4927700000000  0.4875810000000  0.4971870000000 1.0
C      1  0.4370670000000  0.5556400000000  0.5599130000000 1.0
C      1  0.5406270000000  0.5955520000000  0.4497190000000 1.0
C      1  0.4036310000000  0.4052780000000  0.4994510000000 1.0
C      1  0.4291220000000  0.5056300000000  0.5207950000000 1.0
C      1  0.4254800000000  0.5025560000000  0.4891100000000 1.0
C      1  0.4155630000000  0.5766650000000  0.4290040000000 1.0
C      1  0.4606210000000  0.5706590000000  0.5053880000000 1.0
C      1  0.5348360000000  0.4639130000000  0.4194410000000 1.0
END
