TITL C-627112-676-1947 465.529301496906 125000 -776.985044759374 0 0 127 (C1) n - 1
REM
REM in /home/nfs/bkarasulu/CARBON/AIRSS/Generating-Clusters/LCBOP/Only-C1/SD-CG/FIRE-CG
REM
REM
REM
REM
REM
REM ./C.cell (11c1c37f851c82e70ff6c80c92926a4b)
REM AIRSS Version 0.9.1 bugfix July 2018 build 013d7b7c2542+ Fri, 06 Jul 2018 19:26:36 +0100
REM compiler GCC version 9.2.1 20190827 (Red Hat 9.2.1-1)
REM options -cpp -mtune=generic -march=x86-64 -g -O0 -fpre-include=/usr/include/finclude/math-vector-fortran.h
REM seed -1651670263 -82789540 177263489 474088814 -627987222 -1049925999 -2100017804 421433024 -21996487 -1178356388 -1225792750 559269187 -565672896 -146242005 559733323 -1776279788 2026135614 -1547045600 820574613 -890555797 1695412785 -1734513958 -269600983 1530760211 -810611668 1520116824 -916437121 -1032244718 -852426914 64355458 -1913892349 -1806014791 -1614254177
REM
CELL 1.54180   50.00000   50.00000   50.00000   90.00000   90.00000   90.00000
LATT -1
SFAC C  
C      1  0.5238110000000  0.5743950000000  0.6070940000000 1.0
C      1  0.5321180000000  0.5349070000000  0.4870950000000 1.0
C      1  0.5074240000000  0.4656850000000  0.5468050000000 1.0
C      1  0.5583200000000  0.4050970000000  0.4774940000000 1.0
C      1  0.5301430000000  0.5242910000000  0.6003570000000 1.0
C      1  0.5159520000000  0.4621230000000  0.4614400000000 1.0
C      1  0.4277510000000  0.5687470000000  0.4673610000000 1.0
C      1  0.4611940000000  0.5334510000000  0.5009890000000 1.0
C      1  0.5855770000000  0.5276530000000  0.5338280000000 1.0
C      1  0.4502060000000  0.4218530000000  0.5530310000000 1.0
C      1  0.5590170000000  0.5716870000000  0.5156290000000 1.0
C      1  0.5099230000000  0.5669340000000  0.4229020000000 1.0
C      1  0.4857210000000  0.5505170000000  0.4159650000000 1.0
C      1  0.4390880000000  0.5025780000000  0.4183870000000 1.0
C      1  0.4280000000000  0.4415390000000  0.5136720000000 1.0
C      1  0.5255900000000  0.4663790000000  0.4896530000000 1.0
C      1  0.5165440000000  0.5357380000000  0.5138500000000 1.0
C      1  0.4966860000000  0.4521060000000  0.5240210000000 1.0
C      1  0.5255530000000  0.5500060000000  0.4626990000000 1.0
C      1  0.5217640000000  0.3916160000000  0.5089110000000 1.0
C      1  0.5593070000000  0.5276170000000  0.4945520000000 1.0
C      1  0.4884590000000  0.4590450000000  0.4577650000000 1.0
C      1  0.5188940000000  0.5038000000000  0.4501950000000 1.0
C      1  0.5508360000000  0.5861610000000  0.4914700000000 1.0
C      1  0.4327140000000  0.5312310000000  0.5986600000000 1.0
C      1  0.4246740000000  0.5220830000000  0.4714160000000 1.0
C      1  0.4717070000000  0.4313980000000  0.5691020000000 1.0
C      1  0.5968000000000  0.4955740000000  0.4329030000000 1.0
C      1  0.4713660000000  0.4603620000000  0.5186270000000 1.0
C      1  0.5040740000000  0.5671380000000  0.5467780000000 1.0
C      1  0.5957360000000  0.4995450000000  0.4974140000000 1.0
C      1  0.4941040000000  0.4137630000000  0.5723950000000 1.0
C      1  0.5680600000000  0.4476450000000  0.4883330000000 1.0
C      1  0.5362370000000  0.4589110000000  0.5501330000000 1.0
C      1  0.5140150000000  0.4235600000000  0.5903270000000 1.0
C      1  0.5810320000000  0.4756720000000  0.5375950000000 1.0
C      1  0.6007580000000  0.5178240000000  0.4503540000000 1.0
C      1  0.4382530000000  0.4499750000000  0.4309030000000 1.0
C      1  0.5116600000000  0.4436720000000  0.5020110000000 1.0
C      1  0.5211900000000  0.4982400000000  0.5952580000000 1.0
C      1  0.4967570000000  0.3965600000000  0.5503230000000 1.0
C      1  0.5059870000000  0.5947680000000  0.5956590000000 1.0
C      1  0.4551510000000  0.4996070000000  0.5689340000000 1.0
C      1  0.4925010000000  0.5161170000000  0.4451010000000 1.0
C      1  0.4749190000000  0.4833150000000  0.5817060000000 1.0
C      1  0.4426490000000  0.4186470000000  0.5255070000000 1.0
C      1  0.4315920000000  0.5100410000000  0.5804910000000 1.0
C      1  0.4770100000000  0.4724320000000  0.4054750000000 1.0
C      1  0.4973030000000  0.5565460000000  0.5730290000000 1.0
C      1  0.5487510000000  0.5837370000000  0.5390450000000 1.0
C      1  0.5293410000000  0.4790290000000  0.4429130000000 1.0
C      1  0.4089480000000  0.4988030000000  0.4699360000000 1.0
C      1  0.4545080000000  0.5685640000000  0.4561110000000 1.0
C      1  0.5701620000000  0.5443040000000  0.5155470000000 1.0
C      1  0.5234160000000  0.5924970000000  0.4844630000000 1.0
C      1  0.5828130000000  0.5393630000000  0.4431400000000 1.0
C      1  0.6106720000000  0.5114420000000  0.4764750000000 1.0
C      1  0.5220880000000  0.5087050000000  0.4778240000000 1.0
C      1  0.4415840000000  0.5298360000000  0.4227880000000 1.0
C      1  0.4204110000000  0.5242180000000  0.5253450000000 1.0
C      1  0.4448350000000  0.4686040000000  0.4786850000000 1.0
C      1  0.5250250000000  0.4456230000000  0.6016460000000 1.0
C      1  0.5157360000000  0.4353770000000  0.4070850000000 1.0
C      1  0.5674460000000  0.4993240000000  0.4899050000000 1.0
C      1  0.4078540000000  0.5038050000000  0.5665540000000 1.0
C      1  0.5546330000000  0.4699520000000  0.4340470000000 1.0
C      1  0.5153400000000  0.4922280000000  0.4996330000000 1.0
C      1  0.4178080000000  0.5680390000000  0.6264680000000 1.0
C      1  0.4162340000000  0.4738480000000  0.4804830000000 1.0
C      1  0.4502950000000  0.4559360000000  0.5027930000000 1.0
C      1  0.5195990000000  0.5491360000000  0.5928360000000 1.0
C      1  0.5476970000000  0.4073210000000  0.5059690000000 1.0
C      1  0.4054150000000  0.5034200000000  0.5384260000000 1.0
C      1  0.5012600000000  0.4960860000000  0.5471370000000 1.0
C      1  0.5042530000000  0.4243160000000  0.4823420000000 1.0
C      1  0.4065850000000  0.4609170000000  0.5059780000000 1.0
C      1  0.4555880000000  0.4140230000000  0.4735290000000 1.0
C      1  0.3971810000000  0.4798330000000  0.5250340000000 1.0
C      1  0.5233290000000  0.5888960000000  0.5498420000000 1.0
C      1  0.4008860000000  0.5778640000000  0.6436820000000 1.0
C      1  0.5612150000000  0.4340670000000  0.5145880000000 1.0
C      1  0.5174640000000  0.6063420000000  0.5719370000000 1.0
C      1  0.4998040000000  0.4984020000000  0.5771350000000 1.0
C      1  0.5053090000000  0.4008540000000  0.4684590000000 1.0
C      1  0.5391150000000  0.4283320000000  0.4194530000000 1.0
C      1  0.4678520000000  0.4771150000000  0.4649790000000 1.0
C      1  0.5347670000000  0.5534120000000  0.4347650000000 1.0
C      1  0.5154640000000  0.4978760000000  0.3843670000000 1.0
C      1  0.5582660000000  0.5379770000000  0.4274110000000 1.0
C      1  0.5610250000000  0.4540590000000  0.5365740000000 1.0
C      1  0.5554690000000  0.4732870000000  0.4878130000000 1.0
C      1  0.5396140000000  0.5083940000000  0.3898920000000 1.0
C      1  0.5570500000000  0.5134030000000  0.4113750000000 1.0
C      1  0.4951190000000  0.3971060000000  0.5220190000000 1.0
C      1  0.4791270000000  0.4576970000000  0.5716120000000 1.0
C      1  0.4147650000000  0.5472760000000  0.4808610000000 1.0
C      1  0.4996540000000  0.5898950000000  0.4680600000000 1.0
C      1  0.4645890000000  0.5075730000000  0.5434540000000 1.0
C      1  0.4888790000000  0.5208740000000  0.4159050000000 1.0
C      1  0.5711190000000  0.5955430000000  0.4745310000000 1.0
C      1  0.4763730000000  0.5740380000000  0.4763230000000 1.0
C      1  0.5150160000000  0.3797130000000  0.4830930000000 1.0
C      1  0.4087520000000  0.5445860000000  0.5086700000000 1.0
C      1  0.5288170000000  0.4723520000000  0.6042480000000 1.0
C      1  0.4585860000000  0.5534320000000  0.4298770000000 1.0
C      1  0.5894340000000  0.6049020000000  0.4585300000000 1.0
C      1  0.4496790000000  0.5220730000000  0.5246020000000 1.0
C      1  0.5571080000000  0.4410840000000  0.4381140000000 1.0
C      1  0.4703710000000  0.5046140000000  0.4611100000000 1.0
C      1  0.4916100000000  0.4973250000000  0.3995060000000 1.0
C      1  0.5037350000000  0.5904410000000  0.4392290000000 1.0
C      1  0.4903010000000  0.4468650000000  0.4130320000000 1.0
C      1  0.4530620000000  0.5205570000000  0.4765820000000 1.0
C      1  0.4767370000000  0.5580420000000  0.5015040000000 1.0
C      1  0.4488930000000  0.4749490000000  0.4164610000000 1.0
C      1  0.4572550000000  0.5731660000000  0.5987520000000 1.0
C      1  0.4639030000000  0.4069440000000  0.5064110000000 1.0
C      1  0.5117350000000  0.5083360000000  0.5231210000000 1.0
C      1  0.4809780000000  0.4391610000000  0.4392330000000 1.0
C      1  0.5709790000000  0.4902000000000  0.4226960000000 1.0
C      1  0.4545450000000  0.4296910000000  0.4467060000000 1.0
C      1  0.4985540000000  0.5564960000000  0.5208980000000 1.0
C      1  0.4977660000000  0.5425740000000  0.4588780000000 1.0
C      1  0.4826680000000  0.5774560000000  0.5886950000000 1.0
C      1  0.4358990000000  0.5574990000000  0.6079970000000 1.0
C      1  0.5647240000000  0.4304280000000  0.4645450000000 1.0
C      1  0.5930380000000  0.5000010000000  0.5267360000000 1.0
END
