TITL C-627108-131-1985 0.0143208961806069 125000 -453.275190575502 0 0 75 (C1) n - 1
REM
REM in /home/nfs/bkarasulu/CARBON/AIRSS/Generating-Clusters/LCBOP/Only-C1/SD-CG/FIRE-CG
REM
REM
REM
REM
REM
REM ./C.cell (11c1c37f851c82e70ff6c80c92926a4b)
REM AIRSS Version 0.9.1 bugfix July 2018 build 013d7b7c2542+ Fri, 06 Jul 2018 19:26:36 +0100
REM compiler GCC version 9.2.1 20190827 (Red Hat 9.2.1-1)
REM options -cpp -mtune=generic -march=x86-64 -g -O0 -fpre-include=/usr/include/finclude/math-vector-fortran.h
REM seed -92884369 1918455799 455203008 1180397836 -1114505098 -1715684786 -1270353902 1896274883 1138600463 -1973612153 -1395618945 -433639897 943094021 43154017 -32646203 -531277934 1058388300 968912283 1302988251 806926470 -1636765862 -653370514 -71556974 -1627692513 1579152562 -25467284 -38754564 1521682704 -1106621658 -1475725218 339284878 -249254369 1512294051
REM
CELL 1.54180   50.00000   50.00000   50.00000   90.00000   90.00000   90.00000
LATT -1
SFAC C  
C      1  0.4679630000000  0.4511040000000  0.4341620000000 1.0
C      1  0.5219260000000  0.5193960000000  0.4720600000000 1.0
C      1  0.3953940000000  0.4788550000000  0.4879990000000 1.0
C      1  0.5754770000000  0.5440210000000  0.4718280000000 1.0
C      1  0.4838740000000  0.5655650000000  0.5193890000000 1.0
C      1  0.5818800000000  0.4927250000000  0.5450390000000 1.0
C      1  0.4253690000000  0.4498240000000  0.5701220000000 1.0
C      1  0.4370960000000  0.5645240000000  0.4981220000000 1.0
C      1  0.4217160000000  0.4679100000000  0.4859380000000 1.0
C      1  0.4973820000000  0.5811470000000  0.4996100000000 1.0
C      1  0.5171050000000  0.5657030000000  0.4843090000000 1.0
C      1  0.4731610000000  0.4586160000000  0.5521530000000 1.0
C      1  0.5294560000000  0.4311460000000  0.5017410000000 1.0
C      1  0.5417180000000  0.4709970000000  0.5661260000000 1.0
C      1  0.4847400000000  0.4059280000000  0.4892380000000 1.0
C      1  0.5576650000000  0.4730810000000  0.4398620000000 1.0
C      1  0.4969670000000  0.5411690000000  0.5617920000000 1.0
C      1  0.5706650000000  0.4967490000000  0.4968800000000 1.0
C      1  0.3709170000000  0.4598060000000  0.5241310000000 1.0
C      1  0.5156400000000  0.4976780000000  0.4557910000000 1.0
C      1  0.5055590000000  0.6082860000000  0.4964300000000 1.0
C      1  0.5977930000000  0.4500900000000  0.4563570000000 1.0
C      1  0.4490740000000  0.4706630000000  0.4453970000000 1.0
C      1  0.4560440000000  0.5583350000000  0.5181920000000 1.0
C      1  0.4012810000000  0.4592020000000  0.5632140000000 1.0
C      1  0.6433080000000  0.4237980000000  0.4496830000000 1.0
C      1  0.4820320000000  0.4388850000000  0.4563040000000 1.0
C      1  0.6884870000000  0.3977150000000  0.4431400000000 1.0
C      1  0.4602800000000  0.5091240000000  0.5695310000000 1.0
C      1  0.6205380000000  0.4369450000000  0.4529830000000 1.0
C      1  0.5347460000000  0.4867710000000  0.4385040000000 1.0
C      1  0.5675210000000  0.4771370000000  0.5634030000000 1.0
C      1  0.4685160000000  0.4621160000000  0.4985940000000 1.0
C      1  0.5741400000000  0.4640100000000  0.4607120000000 1.0
C      1  0.4930300000000  0.4762270000000  0.5425390000000 1.0
C      1  0.5648070000000  0.4702540000000  0.4871300000000 1.0
C      1  0.3955410000000  0.5037090000000  0.5031930000000 1.0
C      1  0.4918130000000  0.4844050000000  0.4611290000000 1.0
C      1  0.4678930000000  0.4175830000000  0.4696610000000 1.0
C      1  0.5630690000000  0.5678100000000  0.4696900000000 1.0
C      1  0.4318040000000  0.4542510000000  0.4633040000000 1.0
C      1  0.5777000000000  0.5184940000000  0.4799360000000 1.0
C      1  0.3891320000000  0.4728150000000  0.5418980000000 1.0
C      1  0.4876210000000  0.4600270000000  0.4759120000000 1.0
C      1  0.5086620000000  0.4140590000000  0.4993890000000 1.0
C      1  0.5175740000000  0.4744560000000  0.5557090000000 1.0
C      1  0.5200080000000  0.6520340000000  0.4909240000000 1.0
C      1  0.4817540000000  0.5242320000000  0.5761510000000 1.0
C      1  0.4880370000000  0.4956320000000  0.5221270000000 1.0
C      1  0.5406090000000  0.6362160000000  0.4780860000000 1.0
C      1  0.3993280000000  0.5297180000000  0.4937910000000 1.0
C      1  0.4514650000000  0.4493650000000  0.5645570000000 1.0
C      1  0.5394140000000  0.5818600000000  0.4751790000000 1.0
C      1  0.5661930000000  0.5038130000000  0.5241190000000 1.0
C      1  0.4044140000000  0.4940310000000  0.5293210000000 1.0
C      1  0.3744970000000  0.4615890000000  0.4970400000000 1.0
C      1  0.4421770000000  0.4727060000000  0.5069000000000 1.0
C      1  0.5447130000000  0.5211500000000  0.5296710000000 1.0
C      1  0.4146150000000  0.5515520000000  0.4906530000000 1.0
C      1  0.6660850000000  0.4106480000000  0.4463850000000 1.0
C      1  0.4607090000000  0.5113480000000  0.4791570000000 1.0
C      1  0.5319330000000  0.6088160000000  0.4813000000000 1.0
C      1  0.5208260000000  0.5389660000000  0.4916290000000 1.0
C      1  0.4461250000000  0.5113030000000  0.5451520000000 1.0
C      1  0.6086990000000  0.4970760000000  0.5471470000000 1.0
C      1  0.5000270000000  0.6359850000000  0.5013680000000 1.0
C      1  0.4401010000000  0.4262910000000  0.4677340000000 1.0
C      1  0.5020930000000  0.5486560000000  0.5351600000000 1.0
C      1  0.5227280000000  0.5353700000000  0.5199390000000 1.0
C      1  0.4639730000000  0.4938330000000  0.4566340000000 1.0
C      1  0.5471520000000  0.4513130000000  0.4990030000000 1.0
C      1  0.4332920000000  0.4910420000000  0.5292490000000 1.0
C      1  0.4751770000000  0.5094220000000  0.5024460000000 1.0
C      1  0.5630220000000  0.6451800000000  0.4658120000000 1.0
C      1  0.4467600000000  0.5377420000000  0.5351400000000 1.0
END
