TITL C-627106-156-148 0.0295201800317376 125000 -461.068568361059 0 0 75 (C1) n - 1
REM
REM in /home/nfs/bkarasulu/CARBON/AIRSS/Generating-Clusters/LCBOP/Only-C1/SD-CG/FIRE-CG
REM
REM
REM
REM
REM
REM ./C.cell (11c1c37f851c82e70ff6c80c92926a4b)
REM AIRSS Version 0.9.1 bugfix July 2018 build 013d7b7c2542+ Fri, 06 Jul 2018 19:26:36 +0100
REM compiler GCC version 9.2.1 20190827 (Red Hat 9.2.1-1)
REM options -cpp -mtune=generic -march=x86-64 -g -O0 -fpre-include=/usr/include/finclude/math-vector-fortran.h
REM seed 613681587 904911288 942855051 1367539085 -213544093 -844644192 -400087291 -1829661799 -2043224169 -1570506434 1434235981 -946482053 2067890603 -1992017856 2040898501 850041254 1318327577 1982956730 -418471538 -133450963 -1630624202 -1446939889 -1307685917 517291815 1597780001 538121201 -1231073831 -2007707872 -1848343951 -311577781 -2043289046 931849750 836027481
REM
CELL 1.54180   50.00000   50.00000   50.00000   90.00000   90.00000   90.00000
LATT -1
SFAC C  
C      1  0.5335470000000  0.5556390000000  0.5327700000000 1.0
C      1  0.5590800000000  0.4957980000000  0.5859780000000 1.0
C      1  0.4307980000000  0.4918080000000  0.4456040000000 1.0
C      1  0.5374490000000  0.4350160000000  0.5076150000000 1.0
C      1  0.4348390000000  0.4279350000000  0.4682560000000 1.0
C      1  0.4135050000000  0.5398710000000  0.4590710000000 1.0
C      1  0.4749730000000  0.4753500000000  0.4209010000000 1.0
C      1  0.5171540000000  0.5312770000000  0.5316990000000 1.0
C      1  0.4291300000000  0.5215940000000  0.4442800000000 1.0
C      1  0.5521280000000  0.4888790000000  0.6839790000000 1.0
C      1  0.5608170000000  0.4483970000000  0.5182300000000 1.0
C      1  0.5168480000000  0.5615060000000  0.4711800000000 1.0
C      1  0.4277210000000  0.5358890000000  0.5046400000000 1.0
C      1  0.5805500000000  0.4329560000000  0.5295710000000 1.0
C      1  0.5712970000000  0.5172560000000  0.4885920000000 1.0
C      1  0.4871490000000  0.4960930000000  0.4050550000000 1.0
C      1  0.4405280000000  0.4898570000000  0.5074460000000 1.0
C      1  0.5549780000000  0.4913490000000  0.7097750000000 1.0
C      1  0.4775990000000  0.5242370000000  0.5012320000000 1.0
C      1  0.4452110000000  0.5726740000000  0.4756700000000 1.0
C      1  0.4345430000000  0.4542010000000  0.4754690000000 1.0
C      1  0.4712550000000  0.5716310000000  0.4639530000000 1.0
C      1  0.5492310000000  0.4863690000000  0.6577520000000 1.0
C      1  0.4600800000000  0.4860060000000  0.4427430000000 1.0
C      1  0.4984030000000  0.4774710000000  0.5012240000000 1.0
C      1  0.5123870000000  0.4520270000000  0.4401940000000 1.0
C      1  0.4116450000000  0.4926600000000  0.5069780000000 1.0
C      1  0.5686610000000  0.5024490000000  0.5605240000000 1.0
C      1  0.5463370000000  0.4838610000000  0.6315420000000 1.0
C      1  0.4924420000000  0.5405060000000  0.5186500000000 1.0
C      1  0.4944820000000  0.5692410000000  0.5109170000000 1.0
C      1  0.5138200000000  0.4556760000000  0.5698210000000 1.0
C      1  0.4507630000000  0.5172440000000  0.5065300000000 1.0
C      1  0.4902190000000  0.5197520000000  0.4755470000000 1.0
C      1  0.5351160000000  0.4276540000000  0.4802720000000 1.0
C      1  0.5213480000000  0.6043240000000  0.5348350000000 1.0
C      1  0.5929290000000  0.5148250000000  0.5579330000000 1.0
C      1  0.5858260000000  0.4775720000000  0.4708710000000 1.0
C      1  0.5433510000000  0.4812630000000  0.6040030000000 1.0
C      1  0.5132930000000  0.4354350000000  0.5236490000000 1.0
C      1  0.5261930000000  0.5041860000000  0.5335740000000 1.0
C      1  0.5599630000000  0.5537810000000  0.5237850000000 1.0
C      1  0.5779100000000  0.4939530000000  0.4499210000000 1.0
C      1  0.5120920000000  0.4575220000000  0.5422380000000 1.0
C      1  0.4725930000000  0.5094580000000  0.4554500000000 1.0
C      1  0.4257580000000  0.5529750000000  0.4816770000000 1.0
C      1  0.4170250000000  0.4739110000000  0.4633520000000 1.0
C      1  0.4734590000000  0.5538850000000  0.4400180000000 1.0
C      1  0.5246630000000  0.4317100000000  0.4557050000000 1.0
C      1  0.3978630000000  0.4837410000000  0.4819740000000 1.0
C      1  0.5090760000000  0.4823100000000  0.5275110000000 1.0
C      1  0.3747760000000  0.5010100000000  0.4807570000000 1.0
C      1  0.4937480000000  0.5737350000000  0.4821740000000 1.0
C      1  0.5136990000000  0.4806090000000  0.4778920000000 1.0
C      1  0.4773890000000  0.4575470000000  0.5007710000000 1.0
C      1  0.4811890000000  0.4276520000000  0.4110510000000 1.0
C      1  0.5777800000000  0.4893200000000  0.4961230000000 1.0
C      1  0.4565700000000  0.5309090000000  0.4433530000000 1.0
C      1  0.5629960000000  0.5168050000000  0.4603320000000 1.0
C      1  0.5244510000000  0.4639710000000  0.5927180000000 1.0
C      1  0.5534230000000  0.4952470000000  0.5376060000000 1.0
C      1  0.4879520000000  0.4327210000000  0.5101740000000 1.0
C      1  0.5161560000000  0.5333740000000  0.4692250000000 1.0
C      1  0.5043690000000  0.5155070000000  0.4171760000000 1.0
C      1  0.5179430000000  0.4782050000000  0.4498040000000 1.0
C      1  0.4948540000000  0.5431560000000  0.4223330000000 1.0
C      1  0.4510210000000  0.4657040000000  0.4961190000000 1.0
C      1  0.5644770000000  0.4770650000000  0.5178360000000 1.0
C      1  0.5727860000000  0.5393920000000  0.5052960000000 1.0
C      1  0.5361170000000  0.5209760000000  0.4533710000000 1.0
C      1  0.3775730000000  0.5224400000000  0.4982020000000 1.0
C      1  0.4032540000000  0.5214710000000  0.5115240000000 1.0
C      1  0.5170020000000  0.5787520000000  0.5268420000000 1.0
C      1  0.4892160000000  0.4505330000000  0.4235040000000 1.0
C      1  0.5232330000000  0.5029180000000  0.4356590000000 1.0
END
