TITL C-627110-360-1173 -1.57908446135408e-07 125000 -673.260748527446 0 0 111 (C1) n - 1
REM
REM in /home/nfs/bkarasulu/CARBON/AIRSS/Generating-Clusters/LCBOP/Only-C1/SD-CG/FIRE-CG
REM
REM
REM
REM
REM
REM ./C.cell (11c1c37f851c82e70ff6c80c92926a4b)
REM AIRSS Version 0.9.1 bugfix July 2018 build 013d7b7c2542+ Fri, 06 Jul 2018 19:26:36 +0100
REM compiler GCC version 9.2.1 20190827 (Red Hat 9.2.1-1)
REM options -cpp -mtune=generic -march=x86-64 -g -O0 -fpre-include=/usr/include/finclude/math-vector-fortran.h
REM seed 28425032 -130742451 1636402762 569668865 500382331 1107828984 2135762402 1053469505 -1838190982 1271566298 -1194629912 1568050810 34804859 -447676034 -2056156972 1169234027 -731791526 1053262495 -595519625 -247372428 -1034288778 -1606473794 51674205 -2001055987 -1205369291 -1217226657 200926529 -53365966 1370490691 834610645 -1924070941 -685059259 50167062
REM
CELL 1.54180   50.00000   50.00000   50.00000   90.00000   90.00000   90.00000
LATT -1
SFAC C  
C      1  0.4356440000000  0.4915810000000  0.6086890000000 1.0
C      1  0.4831280000000  0.4850470000000  0.5985810000000 1.0
C      1  0.5590320000000  0.4826810000000  0.4134340000000 1.0
C      1  0.4231680000000  0.4498720000000  0.4569240000000 1.0
C      1  0.5896570000000  0.4733460000000  0.4993630000000 1.0
C      1  0.4809990000000  0.4431400000000  0.4171340000000 1.0
C      1  0.4658020000000  0.5291500000000  0.5004420000000 1.0
C      1  0.5395040000000  0.5063520000000  0.5319920000000 1.0
C      1  0.4863900000000  0.4911610000000  0.4363520000000 1.0
C      1  0.5648180000000  0.4334160000000  0.5003650000000 1.0
C      1  0.4213970000000  0.5594070000000  0.4810180000000 1.0
C      1  0.5911610000000  0.4447830000000  0.5014280000000 1.0
C      1  0.5222360000000  0.5301650000000  0.5853960000000 1.0
C      1  0.4457860000000  0.5622920000000  0.4639040000000 1.0
C      1  0.4324210000000  0.4300080000000  0.5253450000000 1.0
C      1  0.4452450000000  0.5910360000000  0.5021140000000 1.0
C      1  0.4865390000000  0.5671080000000  0.5313900000000 1.0
C      1  0.4139250000000  0.4747570000000  0.4529800000000 1.0
C      1  0.5075760000000  0.4755290000000  0.4764930000000 1.0
C      1  0.5589790000000  0.5707450000000  0.5357150000000 1.0
C      1  0.5371030000000  0.5510650000000  0.5736080000000 1.0
C      1  0.4245130000000  0.5717260000000  0.5079950000000 1.0
C      1  0.5188840000000  0.4949320000000  0.3849130000000 1.0
C      1  0.4467740000000  0.4386480000000  0.4665990000000 1.0
C      1  0.4391990000000  0.5213660000000  0.5039320000000 1.0
C      1  0.4749370000000  0.4043490000000  0.5040710000000 1.0
C      1  0.5839130000000  0.5605880000000  0.5272410000000 1.0
C      1  0.5583350000000  0.4451160000000  0.5494980000000 1.0
C      1  0.4562090000000  0.4926920000000  0.5894680000000 1.0
C      1  0.4486430000000  0.4805310000000  0.4105050000000 1.0
C      1  0.4669770000000  0.3974630000000  0.4769140000000 1.0
C      1  0.5036380000000  0.4110200000000  0.5063100000000 1.0
C      1  0.5409810000000  0.5262330000000  0.4743680000000 1.0
C      1  0.4721930000000  0.4698670000000  0.4227730000000 1.0
C      1  0.5399100000000  0.4801790000000  0.3928460000000 1.0
C      1  0.5514550000000  0.5305360000000  0.4281570000000 1.0
C      1  0.5736610000000  0.4808750000000  0.5214930000000 1.0
C      1  0.5131390000000  0.4280400000000  0.6061680000000 1.0
C      1  0.4597910000000  0.4613260000000  0.5092920000000 1.0
C      1  0.5232230000000  0.4395480000000  0.5836740000000 1.0
C      1  0.4841930000000  0.5975600000000  0.4727850000000 1.0
C      1  0.5648010000000  0.4619160000000  0.4586850000000 1.0
C      1  0.4859810000000  0.4789460000000  0.6260350000000 1.0
C      1  0.4244710000000  0.4992960000000  0.4626620000000 1.0
C      1  0.5475690000000  0.4331580000000  0.5244640000000 1.0
C      1  0.5476310000000  0.4889180000000  0.5116620000000 1.0
C      1  0.6027250000000  0.5541590000000  0.5461660000000 1.0
C      1  0.5764710000000  0.4839880000000  0.4747300000000 1.0
C      1  0.5903020000000  0.5564910000000  0.4996950000000 1.0
C      1  0.4860620000000  0.5028140000000  0.5533350000000 1.0
C      1  0.5213810000000  0.5245080000000  0.5225830000000 1.0
C      1  0.5278790000000  0.5381070000000  0.4975960000000 1.0
C      1  0.5023200000000  0.4481910000000  0.5399740000000 1.0
C      1  0.5492080000000  0.4345050000000  0.5739690000000 1.0
C      1  0.5178850000000  0.4290430000000  0.5246620000000 1.0
C      1  0.4883510000000  0.5147450000000  0.4202580000000 1.0
C      1  0.4788120000000  0.5411270000000  0.5227820000000 1.0
C      1  0.4731550000000  0.5508950000000  0.5903360000000 1.0
C      1  0.5083370000000  0.4568830000000  0.5664910000000 1.0
C      1  0.5182910000000  0.4057140000000  0.4823080000000 1.0
C      1  0.5662140000000  0.4730220000000  0.5489730000000 1.0
C      1  0.4326520000000  0.4581170000000  0.5182230000000 1.0
C      1  0.5676690000000  0.4613180000000  0.4301440000000 1.0
C      1  0.4966710000000  0.5386140000000  0.5947930000000 1.0
C      1  0.4650640000000  0.4524530000000  0.4832450000000 1.0
C      1  0.4810380000000  0.5157040000000  0.4804740000000 1.0
C      1  0.4370950000000  0.5170490000000  0.4429050000000 1.0
C      1  0.4399280000000  0.4850570000000  0.6348040000000 1.0
C      1  0.5676820000000  0.5129450000000  0.4765930000000 1.0
C      1  0.5798730000000  0.4396090000000  0.4185710000000 1.0
C      1  0.4715640000000  0.4205210000000  0.4315660000000 1.0
C      1  0.5209120000000  0.5651650000000  0.4936560000000 1.0
C      1  0.4227180000000  0.5281940000000  0.5270300000000 1.0
C      1  0.5069520000000  0.5856400000000  0.4840280000000 1.0
C      1  0.5003430000000  0.5114570000000  0.3951310000000 1.0
C      1  0.4174380000000  0.4818610000000  0.5133840000000 1.0
C      1  0.5087380000000  0.5518270000000  0.4404440000000 1.0
C      1  0.4516570000000  0.5601160000000  0.5771330000000 1.0
C      1  0.5998030000000  0.5774460000000  0.4848120000000 1.0
C      1  0.5134170000000  0.5770600000000  0.4277090000000 1.0
C      1  0.5362880000000  0.5912170000000  0.4330770000000 1.0
C      1  0.4587610000000  0.5018600000000  0.5628450000000 1.0
C      1  0.4984910000000  0.4387780000000  0.3964650000000 1.0
C      1  0.5867040000000  0.5312830000000  0.4875670000000 1.0
C      1  0.4338750000000  0.5636950000000  0.5572890000000 1.0
C      1  0.4650320000000  0.4788480000000  0.6434750000000 1.0
C      1  0.4594570000000  0.5849540000000  0.4773560000000 1.0
C      1  0.5295740000000  0.4793390000000  0.4929020000000 1.0
C      1  0.4929020000000  0.4959690000000  0.4638790000000 1.0
C      1  0.5546080000000  0.4379630000000  0.4732810000000 1.0
C      1  0.4957930000000  0.5216950000000  0.5344820000000 1.0
C      1  0.4830890000000  0.5387420000000  0.4352620000000 1.0
C      1  0.5474450000000  0.4955460000000  0.5578940000000 1.0
C      1  0.4551690000000  0.5409180000000  0.4466470000000 1.0
C      1  0.4924190000000  0.4522380000000  0.4766200000000 1.0
C      1  0.4588750000000  0.4151000000000  0.4560940000000 1.0
C      1  0.5278790000000  0.5024580000000  0.5779440000000 1.0
C      1  0.4806530000000  0.4606850000000  0.5275710000000 1.0
C      1  0.4955470000000  0.5863580000000  0.4090870000000 1.0
C      1  0.4371990000000  0.5043890000000  0.4170670000000 1.0
C      1  0.5325990000000  0.5363900000000  0.4483880000000 1.0
C      1  0.4272280000000  0.4991600000000  0.4906030000000 1.0
C      1  0.5351270000000  0.4190440000000  0.4660050000000 1.0
C      1  0.4528430000000  0.4118510000000  0.5211370000000 1.0
C      1  0.5096060000000  0.5762810000000  0.5425930000000 1.0
C      1  0.4233020000000  0.5560260000000  0.5322010000000 1.0
C      1  0.4101940000000  0.5025890000000  0.5330920000000 1.0
C      1  0.5653040000000  0.5093990000000  0.4194530000000 1.0
C      1  0.4855560000000  0.6215300000000  0.4597520000000 1.0
C      1  0.5356250000000  0.5684800000000  0.5513450000000 1.0
C      1  0.5027130000000  0.4853980000000  0.5749480000000 1.0
END
