TITL C-627111-6168-952 9.59876187873584e-07 125000 -1127.60068087953 0 0 185 (C1) n - 1
REM
REM in /home/nfs/bkarasulu/CARBON/AIRSS/Generating-Clusters/LCBOP/Only-C1/SD-CG/FIRE-CG
REM
REM
REM
REM
REM
REM ./C.cell (11c1c37f851c82e70ff6c80c92926a4b)
REM AIRSS Version 0.9.1 bugfix July 2018 build 013d7b7c2542+ Fri, 06 Jul 2018 19:26:36 +0100
REM compiler GCC version 9.2.1 20190827 (Red Hat 9.2.1-1)
REM options -cpp -mtune=generic -march=x86-64 -g -O0 -fpre-include=/usr/include/finclude/math-vector-fortran.h
REM seed 1062014226 380445713 -1111356207 -102251367 766435561 -1875600381 -725921514 -1616265472 375017738 122136089 -538366076 -1621413618 983000683 -1003324316 1313907107 -598518027 1128944204 -1125977607 1318548190 758254447 -263622833 -309358668 -798142840 1886061153 -1635131702 -2077495646 913690497 1074295948 1614772110 -1877008348 -877069653 -1005032940 840124133
REM
CELL 1.54180   50.00000   50.00000   50.00000   90.00000   90.00000   90.00000
LATT -1
SFAC C  
C      1  0.4902510000000  0.5570720000000  0.6141180000000 1.0
C      1  0.5516170000000  0.5242460000000  0.3866730000000 1.0
C      1  0.5254660000000  0.4345870000000  0.3792730000000 1.0
C      1  0.4036580000000  0.4656870000000  0.4262260000000 1.0
C      1  0.5079250000000  0.5863110000000  0.4459990000000 1.0
C      1  0.5481100000000  0.4508060000000  0.3828830000000 1.0
C      1  0.5791930000000  0.5653490000000  0.4602990000000 1.0
C      1  0.4793810000000  0.4728070000000  0.3979290000000 1.0
C      1  0.4412170000000  0.5414640000000  0.5324400000000 1.0
C      1  0.4638880000000  0.5464950000000  0.6061680000000 1.0
C      1  0.6307010000000  0.5128980000000  0.5107520000000 1.0
C      1  0.5352760000000  0.6366430000000  0.5130070000000 1.0
C      1  0.5481370000000  0.4791400000000  0.4653000000000 1.0
C      1  0.5212140000000  0.4022300000000  0.4322480000000 1.0
C      1  0.3854760000000  0.4768820000000  0.4471900000000 1.0
C      1  0.5342160000000  0.5675390000000  0.5889350000000 1.0
C      1  0.4092110000000  0.4307940000000  0.6171220000000 1.0
C      1  0.3882220000000  0.4731360000000  0.4755360000000 1.0
C      1  0.5829030000000  0.4228180000000  0.5266960000000 1.0
C      1  0.6329990000000  0.4894390000000  0.4978940000000 1.0
C      1  0.4219370000000  0.5847600000000  0.4990030000000 1.0
C      1  0.4642970000000  0.5714910000000  0.5638920000000 1.0
C      1  0.4996990000000  0.4713520000000  0.5204850000000 1.0
C      1  0.3754020000000  0.4507770000000  0.4868200000000 1.0
C      1  0.5428520000000  0.6267420000000  0.4870260000000 1.0
C      1  0.5597400000000  0.5057250000000  0.6307740000000 1.0
C      1  0.6064420000000  0.5299970000000  0.5502980000000 1.0
C      1  0.4110800000000  0.4888780000000  0.4069060000000 1.0
C      1  0.5931940000000  0.4881570000000  0.4278810000000 1.0
C      1  0.5280950000000  0.5411800000000  0.6483830000000 1.0
C      1  0.4103490000000  0.5588890000000  0.4933860000000 1.0
C      1  0.4239490000000  0.5799050000000  0.4510370000000 1.0
C      1  0.5110450000000  0.4768170000000  0.5767840000000 1.0
C      1  0.4181170000000  0.4542880000000  0.6101940000000 1.0
C      1  0.5722320000000  0.5908720000000  0.5573210000000 1.0
C      1  0.5419500000000  0.4536370000000  0.5087950000000 1.0
C      1  0.5888230000000  0.5358560000000  0.5061860000000 1.0
C      1  0.4583630000000  0.5493440000000  0.4580690000000 1.0
C      1  0.4987820000000  0.4858140000000  0.4128720000000 1.0
C      1  0.4448000000000  0.3969740000000  0.5548530000000 1.0
C      1  0.4057430000000  0.4987350000000  0.5953650000000 1.0
C      1  0.5551590000000  0.6016800000000  0.4814490000000 1.0
C      1  0.5050010000000  0.4259340000000  0.3945400000000 1.0
C      1  0.5713400000000  0.6069290000000  0.3766560000000 1.0
C      1  0.5654590000000  0.4668950000000  0.5189600000000 1.0
C      1  0.6125070000000  0.5314030000000  0.5220910000000 1.0
C      1  0.5408280000000  0.5727500000000  0.4061070000000 1.0
C      1  0.5099880000000  0.5849760000000  0.5481360000000 1.0
C      1  0.4504570000000  0.4037240000000  0.5270270000000 1.0
C      1  0.4699400000000  0.4093880000000  0.4788770000000 1.0
C      1  0.4200390000000  0.5363640000000  0.5107950000000 1.0
C      1  0.5172260000000  0.5106980000000  0.5016750000000 1.0
C      1  0.5108910000000  0.5507680000000  0.4825410000000 1.0
C      1  0.5306240000000  0.5292460000000  0.4840750000000 1.0
C      1  0.5125510000000  0.4472310000000  0.4667390000000 1.0
C      1  0.5494710000000  0.4048700000000  0.4692470000000 1.0
C      1  0.4538530000000  0.4544880000000  0.4378110000000 1.0
C      1  0.4484890000000  0.5133110000000  0.4840160000000 1.0
C      1  0.5574620000000  0.5848640000000  0.4569970000000 1.0
C      1  0.4805510000000  0.5294630000000  0.3801970000000 1.0
C      1  0.5123160000000  0.4457040000000  0.6126910000000 1.0
C      1  0.5531310000000  0.4527200000000  0.5820860000000 1.0
C      1  0.5381650000000  0.5375670000000  0.5794710000000 1.0
C      1  0.3734330000000  0.5010420000000  0.4377400000000 1.0
C      1  0.4788770000000  0.5910140000000  0.4441320000000 1.0
C      1  0.5034130000000  0.5323710000000  0.4219400000000 1.0
C      1  0.5923440000000  0.4867540000000  0.5713180000000 1.0
C      1  0.5190160000000  0.4509040000000  0.5276450000000 1.0
C      1  0.4131710000000  0.4385200000000  0.4302240000000 1.0
C      1  0.5212850000000  0.6598980000000  0.5159490000000 1.0
C      1  0.5588380000000  0.3984660000000  0.4953730000000 1.0
C      1  0.4560880000000  0.4093360000000  0.5787790000000 1.0
C      1  0.4480780000000  0.5024660000000  0.4568630000000 1.0
C      1  0.4969780000000  0.5248720000000  0.5160000000000 1.0
C      1  0.4993070000000  0.5022950000000  0.5707910000000 1.0
C      1  0.4771020000000  0.5029260000000  0.5522400000000 1.0
C      1  0.5181840000000  0.4702690000000  0.4261270000000 1.0
C      1  0.5115690000000  0.5761510000000  0.4724340000000 1.0
C      1  0.4392350000000  0.4445060000000  0.5005850000000 1.0
C      1  0.6113290000000  0.4462920000000  0.4760300000000 1.0
C      1  0.5657560000000  0.4500430000000  0.4070290000000 1.0
C      1  0.3963790000000  0.5504220000000  0.5863570000000 1.0
C      1  0.5071170000000  0.5151670000000  0.6158620000000 1.0
C      1  0.4955880000000  0.4910860000000  0.6248210000000 1.0
C      1  0.4355650000000  0.4557150000000  0.5265530000000 1.0
C      1  0.4476650000000  0.4739610000000  0.4574510000000 1.0
C      1  0.5709080000000  0.5164120000000  0.5177710000000 1.0
C      1  0.5319970000000  0.5413600000000  0.5501410000000 1.0
C      1  0.4494520000000  0.5616790000000  0.5864020000000 1.0
C      1  0.4494060000000  0.4079030000000  0.4567160000000 1.0
C      1  0.5867060000000  0.4507260000000  0.5277120000000 1.0
C      1  0.3896400000000  0.5093280000000  0.4143150000000 1.0
C      1  0.5062650000000  0.5396290000000  0.6307150000000 1.0
C      1  0.4476890000000  0.5279160000000  0.4414010000000 1.0
C      1  0.3705440000000  0.5246020000000  0.4539520000000 1.0
C      1  0.3736080000000  0.5649500000000  0.5824290000000 1.0
C      1  0.5605720000000  0.5884160000000  0.5069840000000 1.0
C      1  0.4549280000000  0.5202990000000  0.5468630000000 1.0
C      1  0.3855390000000  0.4004130000000  0.4816770000000 1.0
C      1  0.4306480000000  0.5294180000000  0.4193020000000 1.0
C      1  0.5777910000000  0.5451570000000  0.4808260000000 1.0
C      1  0.4740810000000  0.4738570000000  0.6157290000000 1.0
C      1  0.4391140000000  0.4301950000000  0.4410750000000 1.0
C      1  0.4834160000000  0.4463010000000  0.6088950000000 1.0
C      1  0.5288650000000  0.6056370000000  0.5561320000000 1.0
C      1  0.5290380000000  0.5336250000000  0.4336620000000 1.0
C      1  0.5680160000000  0.4989910000000  0.4699190000000 1.0
C      1  0.5909150000000  0.4963910000000  0.4534380000000 1.0
C      1  0.4498360000000  0.5882040000000  0.4906160000000 1.0
C      1  0.3907350000000  0.5440840000000  0.4476250000000 1.0
C      1  0.6009290000000  0.5664620000000  0.4435910000000 1.0
C      1  0.4938170000000  0.4301670000000  0.5634930000000 1.0
C      1  0.4538290000000  0.4188460000000  0.5022390000000 1.0
C      1  0.3749670000000  0.4240970000000  0.4879580000000 1.0
C      1  0.4773210000000  0.4801420000000  0.5352080000000 1.0
C      1  0.5001400000000  0.4016200000000  0.4819050000000 1.0
C      1  0.5415330000000  0.5688040000000  0.5134590000000 1.0
C      1  0.3955820000000  0.5225770000000  0.5895690000000 1.0
C      1  0.4337340000000  0.4645270000000  0.4810460000000 1.0
C      1  0.4250330000000  0.4807940000000  0.6049660000000 1.0
C      1  0.5718280000000  0.4745500000000  0.5880180000000 1.0
C      1  0.5573870000000  0.5251330000000  0.4759460000000 1.0
C      1  0.4539100000000  0.5796520000000  0.4595420000000 1.0
C      1  0.4571130000000  0.5149810000000  0.3824240000000 1.0
C      1  0.4549490000000  0.5670900000000  0.5370140000000 1.0
C      1  0.5494770000000  0.4765930000000  0.3698130000000 1.0
C      1  0.6257350000000  0.4667450000000  0.4856440000000 1.0
C      1  0.5895020000000  0.5161400000000  0.5683840000000 1.0
C      1  0.4347740000000  0.5079230000000  0.3993700000000 1.0
C      1  0.5108710000000  0.4842400000000  0.4976060000000 1.0
C      1  0.5465380000000  0.4314660000000  0.5613080000000 1.0
C      1  0.5613990000000  0.4964450000000  0.3876660000000 1.0
C      1  0.5424670000000  0.4951400000000  0.5479770000000 1.0
C      1  0.5562810000000  0.5906890000000  0.3903850000000 1.0
C      1  0.5439730000000  0.5113980000000  0.4319500000000 1.0
C      1  0.5294590000000  0.4653070000000  0.4834440000000 1.0
C      1  0.5412350000000  0.4816970000000  0.3443740000000 1.0
C      1  0.5128870000000  0.3994180000000  0.5088950000000 1.0
C      1  0.4027510000000  0.5346240000000  0.4228350000000 1.0
C      1  0.5355300000000  0.5826660000000  0.4343690000000 1.0
C      1  0.5630030000000  0.4990580000000  0.6035610000000 1.0
C      1  0.4869710000000  0.5434030000000  0.4971710000000 1.0
C      1  0.4591920000000  0.4595570000000  0.5403990000000 1.0
C      1  0.5479680000000  0.5894220000000  0.5738920000000 1.0
C      1  0.4552910000000  0.5194260000000  0.6110940000000 1.0
C      1  0.4054260000000  0.3861070000000  0.4710250000000 1.0
C      1  0.5910200000000  0.4269310000000  0.4754480000000 1.0
C      1  0.5088650000000  0.4467260000000  0.4387040000000 1.0
C      1  0.5191560000000  0.4357720000000  0.5519650000000 1.0
C      1  0.5609210000000  0.4929550000000  0.5282960000000 1.0
C      1  0.5494360000000  0.5243770000000  0.6473620000000 1.0
C      1  0.5840750000000  0.4121510000000  0.4999470000000 1.0
C      1  0.5579080000000  0.4140390000000  0.5402130000000 1.0
C      1  0.5648670000000  0.5226090000000  0.5846940000000 1.0
C      1  0.5269400000000  0.4594950000000  0.5929180000000 1.0
C      1  0.4119080000000  0.4839010000000  0.4885290000000 1.0
C      1  0.4637570000000  0.5373750000000  0.4837160000000 1.0
C      1  0.5219820000000  0.3997150000000  0.4608280000000 1.0
C      1  0.4510930000000  0.4906220000000  0.6102930000000 1.0
C      1  0.4638430000000  0.5831730000000  0.5149550000000 1.0
C      1  0.4775820000000  0.4266500000000  0.5880580000000 1.0
C      1  0.4732410000000  0.4362240000000  0.5453100000000 1.0
C      1  0.4053950000000  0.5610830000000  0.4642580000000 1.0
C      1  0.4230340000000  0.5099340000000  0.4974170000000 1.0
C      1  0.5700250000000  0.4225390000000  0.4550390000000 1.0
C      1  0.5431880000000  0.6207150000000  0.5354980000000 1.0
C      1  0.4265930000000  0.3766440000000  0.5590300000000 1.0
C      1  0.5473200000000  0.4043660000000  0.4194490000000 1.0
C      1  0.5675300000000  0.6032860000000  0.5310200000000 1.0
C      1  0.4603950000000  0.4595430000000  0.4110740000000 1.0
C      1  0.5327190000000  0.5471820000000  0.3911830000000 1.0
C      1  0.5405630000000  0.4004980000000  0.5182870000000 1.0
C      1  0.4300700000000  0.3872950000000  0.4604960000000 1.0
C      1  0.4913190000000  0.5783910000000  0.5687130000000 1.0
C      1  0.5241420000000  0.5634160000000  0.5346330000000 1.0
C      1  0.5136490000000  0.5198920000000  0.5883290000000 1.0
C      1  0.4215660000000  0.5627090000000  0.5872120000000 1.0
C      1  0.4904790000000  0.5025870000000  0.4556970000000 1.0
C      1  0.5761870000000  0.4786520000000  0.4075410000000 1.0
C      1  0.5649080000000  0.4271310000000  0.4262520000000 1.0
C      1  0.4916970000000  0.5080340000000  0.4289940000000 1.0
C      1  0.5048170000000  0.5716330000000  0.5936880000000 1.0
C      1  0.5386980000000  0.4845930000000  0.4389110000000 1.0
C      1  0.5050280000000  0.4234440000000  0.4227160000000 1.0
C      1  0.5038570000000  0.5393330000000  0.3940450000000 1.0
END
