TITL C-627107-135-138 -3752.93840181188 125000 -1150.42917270914 0 0 187 (C1) n - 1
REM
REM in /home/nfs/bkarasulu/CARBON/AIRSS/Generating-Clusters/LCBOP/Only-C1/SD-CG/FIRE-CG
REM
REM
REM
REM
REM
REM ./C.cell (11c1c37f851c82e70ff6c80c92926a4b)
REM AIRSS Version 0.9.1 bugfix July 2018 build 013d7b7c2542+ Fri, 06 Jul 2018 19:26:36 +0100
REM compiler GCC version 9.2.1 20190827 (Red Hat 9.2.1-1)
REM options -cpp -mtune=generic -march=x86-64 -g -O0 -fpre-include=/usr/include/finclude/math-vector-fortran.h
REM seed 1692578155 158712843 -688189709 -1326803563 1634324578 -1871807386 -1332998755 -901496990 -936980868 -257348539 -266830831 1222919167 -1275971239 -1002811907 485025385 -1737632687 -252546783 677719444 1928876331 -1889435279 -1497991828 -115175406 710676650 -1654445086 -273470556 -439896332 872997520 1425495291 114250260 -1497620260 623198700 1224438253 -432813580
REM
CELL 1.54180   50.00000   50.00000   50.00000   90.00000   90.00000   90.00000
LATT -1
SFAC C  
C      1  0.5330560000000  0.4650190000000  0.5239570000000 1.0
C      1  0.5373340000000  0.5769110000000  0.4869410000000 1.0
C      1  0.4285120000000  0.4028280000000  0.5264010000000 1.0
C      1  0.4986300000000  0.4755240000000  0.6254060000000 1.0
C      1  0.5027530000000  0.5314830000000  0.3885820000000 1.0
C      1  0.5678340000000  0.5548080000000  0.5362920000000 1.0
C      1  0.5704250000000  0.4620370000000  0.4071120000000 1.0
C      1  0.4997630000000  0.4704140000000  0.3846750000000 1.0
C      1  0.4888630000000  0.4264340000000  0.4068050000000 1.0
C      1  0.5429680000000  0.5177540000000  0.4127650000000 1.0
C      1  0.5885410000000  0.4469090000000  0.4791330000000 1.0
C      1  0.4135510000000  0.4793560000000  0.5817550000000 1.0
C      1  0.5741850000000  0.6122870000000  0.5318640000000 1.0
C      1  0.5242570000000  0.4538100000000  0.3903070000000 1.0
C      1  0.4699560000000  0.5931690000000  0.5108420000000 1.0
C      1  0.5461750000000  0.4038450000000  0.5635240000000 1.0
C      1  0.3895840000000  0.4617440000000  0.4650100000000 1.0
C      1  0.5912430000000  0.5739750000000  0.4990160000000 1.0
C      1  0.5087080000000  0.3823400000000  0.5181840000000 1.0
C      1  0.3947930000000  0.5358240000000  0.5316330000000 1.0
C      1  0.4871140000000  0.6245190000000  0.4579010000000 1.0
C      1  0.5323800000000  0.5754130000000  0.5141040000000 1.0
C      1  0.3908260000000  0.4835840000000  0.5132060000000 1.0
C      1  0.4739570000000  0.5647170000000  0.5614870000000 1.0
C      1  0.4611620000000  0.5456160000000  0.4252230000000 1.0
C      1  0.6427530000000  0.5004740000000  0.4632720000000 1.0
C      1  0.5290790000000  0.4081230000000  0.5857080000000 1.0
C      1  0.4741750000000  0.5281800000000  0.4414660000000 1.0
C      1  0.4030890000000  0.5610430000000  0.4865530000000 1.0
C      1  0.3973970000000  0.4460350000000  0.4415610000000 1.0
C      1  0.5148940000000  0.4098790000000  0.5201790000000 1.0
C      1  0.4249220000000  0.4982080000000  0.4242440000000 1.0
C      1  0.4720370000000  0.5350050000000  0.5535790000000 1.0
C      1  0.5670570000000  0.4158260000000  0.5475890000000 1.0
C      1  0.5782160000000  0.5642780000000  0.5965730000000 1.0
C      1  0.5053440000000  0.6272280000000  0.5272260000000 1.0
C      1  0.4230690000000  0.5260840000000  0.4180850000000 1.0
C      1  0.6770990000000  0.4899110000000  0.4243470000000 1.0
C      1  0.4538570000000  0.5933560000000  0.4401760000000 1.0
C      1  0.4550910000000  0.4674500000000  0.4061730000000 1.0
C      1  0.4616680000000  0.5726830000000  0.4225200000000 1.0
C      1  0.5615290000000  0.4565040000000  0.5256200000000 1.0
C      1  0.5279210000000  0.5993060000000  0.4465350000000 1.0
C      1  0.4472550000000  0.5353810000000  0.4037090000000 1.0
C      1  0.4229290000000  0.5284010000000  0.5756310000000 1.0
C      1  0.4108220000000  0.5419610000000  0.4413450000000 1.0
C      1  0.5337910000000  0.4212650000000  0.4271460000000 1.0
C      1  0.4055800000000  0.3932120000000  0.5150180000000 1.0
C      1  0.4529500000000  0.4063300000000  0.4367720000000 1.0
C      1  0.6230310000000  0.5067100000000  0.4798150000000 1.0
C      1  0.4199010000000  0.4566550000000  0.5658360000000 1.0
C      1  0.4001020000000  0.5823710000000  0.5301650000000 1.0
C      1  0.5634080000000  0.4116180000000  0.5182910000000 1.0
C      1  0.5469440000000  0.4704610000000  0.3946390000000 1.0
C      1  0.4488860000000  0.5405640000000  0.5121810000000 1.0
C      1  0.4441570000000  0.4902450000000  0.4744490000000 1.0
C      1  0.5641590000000  0.5698540000000  0.4235270000000 1.0
C      1  0.5083860000000  0.5000080000000  0.3844170000000 1.0
C      1  0.4428750000000  0.4668620000000  0.4911130000000 1.0
C      1  0.6931060000000  0.4855540000000  0.4042360000000 1.0
C      1  0.5291390000000  0.4292510000000  0.4775510000000 1.0
C      1  0.4025440000000  0.4585450000000  0.5208150000000 1.0
C      1  0.4678670000000  0.4809660000000  0.4312800000000 1.0
C      1  0.4772670000000  0.4526600000000  0.3945360000000 1.0
C      1  0.5288220000000  0.5260060000000  0.6190160000000 1.0
C      1  0.4780340000000  0.5790070000000  0.3991130000000 1.0
C      1  0.5242430000000  0.4133030000000  0.4527420000000 1.0
C      1  0.4830150000000  0.3929790000000  0.5764520000000 1.0
C      1  0.4698790000000  0.4274200000000  0.5081650000000 1.0
C      1  0.5105530000000  0.5156200000000  0.4863690000000 1.0
C      1  0.4045880000000  0.4579490000000  0.4164350000000 1.0
C      1  0.4877600000000  0.5043550000000  0.4340710000000 1.0
C      1  0.4954690000000  0.4308200000000  0.5256390000000 1.0
C      1  0.5361370000000  0.5636690000000  0.4181370000000 1.0
C      1  0.5740180000000  0.4599060000000  0.4990040000000 1.0
C      1  0.4759180000000  0.4991700000000  0.5533240000000 1.0
C      1  0.3959470000000  0.5588090000000  0.5138940000000 1.0
C      1  0.5376270000000  0.4951200000000  0.5697470000000 1.0
C      1  0.6078850000000  0.4533730000000  0.5555640000000 1.0
C      1  0.5737490000000  0.5076780000000  0.4805870000000 1.0
C      1  0.5851510000000  0.4531660000000  0.4275310000000 1.0
C      1  0.5612200000000  0.4844530000000  0.4906840000000 1.0
C      1  0.4778510000000  0.4911130000000  0.6144730000000 1.0
C      1  0.5831100000000  0.3978760000000  0.5046960000000 1.0
C      1  0.4046790000000  0.4184950000000  0.4414220000000 1.0
C      1  0.4569420000000  0.4182380000000  0.4621670000000 1.0
C      1  0.5993580000000  0.5128550000000  0.4932090000000 1.0
C      1  0.5184230000000  0.5743710000000  0.4375170000000 1.0
C      1  0.5181960000000  0.4304200000000  0.4052650000000 1.0
C      1  0.5566590000000  0.4746930000000  0.5699180000000 1.0
C      1  0.5521750000000  0.6168530000000  0.5495960000000 1.0
C      1  0.4656950000000  0.5826630000000  0.5381270000000 1.0
C      1  0.4944980000000  0.4690520000000  0.4912810000000 1.0
C      1  0.5375540000000  0.4973340000000  0.3938060000000 1.0
C      1  0.5073230000000  0.4568270000000  0.5368400000000 1.0
C      1  0.5023320000000  0.4504590000000  0.6156630000000 1.0
C      1  0.5595050000000  0.5354620000000  0.5544440000000 1.0
C      1  0.4309000000000  0.4820590000000  0.6046140000000 1.0
C      1  0.5556710000000  0.5252980000000  0.6130940000000 1.0
C      1  0.4697790000000  0.4529750000000  0.4902590000000 1.0
C      1  0.4955400000000  0.5769980000000  0.5766030000000 1.0
C      1  0.4646670000000  0.5085340000000  0.4822730000000 1.0
C      1  0.4124310000000  0.5501980000000  0.5613050000000 1.0
C      1  0.4609720000000  0.5800510000000  0.4856470000000 1.0
C      1  0.5594970000000  0.4391020000000  0.6069730000000 1.0
C      1  0.4005670000000  0.4487840000000  0.5471450000000 1.0
C      1  0.4587610000000  0.4742140000000  0.6010600000000 1.0
C      1  0.4888970000000  0.3872890000000  0.4749470000000 1.0
C      1  0.4261260000000  0.4741230000000  0.4076140000000 1.0
C      1  0.4360380000000  0.4974790000000  0.5251450000000 1.0
C      1  0.5427430000000  0.4179700000000  0.6085650000000 1.0
C      1  0.4908760000000  0.4383680000000  0.5921880000000 1.0
C      1  0.4430780000000  0.5266920000000  0.5986990000000 1.0
C      1  0.4688740000000  0.4050240000000  0.4849330000000 1.0
C      1  0.4731710000000  0.5391480000000  0.5251120000000 1.0
C      1  0.4186570000000  0.5634380000000  0.4619200000000 1.0
C      1  0.4782000000000  0.5601800000000  0.4738210000000 1.0
C      1  0.4690210000000  0.4435410000000  0.4617920000000 1.0
C      1  0.5008380000000  0.3712650000000  0.4946900000000 1.0
C      1  0.5403680000000  0.5116620000000  0.4412140000000 1.0
C      1  0.5135630000000  0.5343820000000  0.5771260000000 1.0
C      1  0.4678260000000  0.5330650000000  0.4688000000000 1.0
C      1  0.4796130000000  0.5503480000000  0.3864040000000 1.0
C      1  0.3942320000000  0.5075050000000  0.5382740000000 1.0
C      1  0.5323010000000  0.5229170000000  0.5572460000000 1.0
C      1  0.5996800000000  0.5104760000000  0.5472180000000 1.0
C      1  0.5292780000000  0.6306410000000  0.5392610000000 1.0
C      1  0.5222720000000  0.5781900000000  0.5381750000000 1.0
C      1  0.5113650000000  0.4672720000000  0.4497060000000 1.0
C      1  0.4611040000000  0.3847640000000  0.5640020000000 1.0
C      1  0.5378440000000  0.4176820000000  0.5042140000000 1.0
C      1  0.6000000000000  0.5249700000000  0.5195660000000 1.0
C      1  0.4518230000000  0.4856970000000  0.5442350000000 1.0
C      1  0.4078390000000  0.5036250000000  0.5663060000000 1.0
C      1  0.5210550000000  0.5267130000000  0.5299130000000 1.0
C      1  0.5275560000000  0.5119770000000  0.5077490000000 1.0
C      1  0.5276690000000  0.5408930000000  0.4040490000000 1.0
C      1  0.5549020000000  0.5548300000000  0.4743160000000 1.0
C      1  0.5872300000000  0.5994620000000  0.5117940000000 1.0
C      1  0.3884080000000  0.5271040000000  0.4524700000000 1.0
C      1  0.4906650000000  0.6136700000000  0.5070920000000 1.0
C      1  0.6604640000000  0.4947610000000  0.4444070000000 1.0
C      1  0.5167020000000  0.4561100000000  0.4759270000000 1.0
C      1  0.5826110000000  0.5738720000000  0.4436590000000 1.0
C      1  0.4297090000000  0.5079320000000  0.6164680000000 1.0
C      1  0.5019900000000  0.6155640000000  0.4809300000000 1.0
C      1  0.5894970000000  0.5521480000000  0.5184180000000 1.0
C      1  0.5009310000000  0.4128450000000  0.5841520000000 1.0
C      1  0.5821690000000  0.5241480000000  0.5689790000000 1.0
C      1  0.4096870000000  0.5771150000000  0.5553300000000 1.0
C      1  0.4774160000000  0.5188820000000  0.6067970000000 1.0
C      1  0.4718110000000  0.4575580000000  0.5771670000000 1.0
C      1  0.4895030000000  0.4970910000000  0.4884890000000 1.0
C      1  0.5457060000000  0.5983550000000  0.5715060000000 1.0
C      1  0.4854400000000  0.6065800000000  0.4071860000000 1.0
C      1  0.5712340000000  0.4746170000000  0.5452270000000 1.0
C      1  0.5152740000000  0.4950430000000  0.4423880000000 1.0
C      1  0.5991380000000  0.4805930000000  0.5478830000000 1.0
C      1  0.5566110000000  0.5253720000000  0.4640200000000 1.0
C      1  0.4408340000000  0.5835500000000  0.4639660000000 1.0
C      1  0.5044500000000  0.5293590000000  0.6034210000000 1.0
C      1  0.5915450000000  0.4463220000000  0.4525340000000 1.0
C      1  0.4927680000000  0.4740030000000  0.5579690000000 1.0
C      1  0.4255540000000  0.4043760000000  0.4310300000000 1.0
C      1  0.5843760000000  0.4355000000000  0.5632790000000 1.0
C      1  0.5207650000000  0.5845770000000  0.5656720000000 1.0
C      1  0.5033820000000  0.5600480000000  0.4582860000000 1.0
C      1  0.4413140000000  0.3887160000000  0.5468230000000 1.0
C      1  0.4743090000000  0.6141220000000  0.4346720000000 1.0
C      1  0.5377020000000  0.4873320000000  0.5065980000000 1.0
C      1  0.4260610000000  0.4501690000000  0.5073550000000 1.0
C      1  0.4421160000000  0.4899260000000  0.4463610000000 1.0
C      1  0.4474050000000  0.4596720000000  0.5578510000000 1.0
C      1  0.5146690000000  0.5360110000000  0.4681570000000 1.0
C      1  0.4997560000000  0.3975030000000  0.4497340000000 1.0
C      1  0.5768800000000  0.5355260000000  0.5961040000000 1.0
C      1  0.5649340000000  0.5862470000000  0.5882610000000 1.0
C      1  0.5262170000000  0.6010240000000  0.4744470000000 1.0
C      1  0.4320410000000  0.5199700000000  0.5115200000000 1.0
C      1  0.4836680000000  0.4592630000000  0.4440210000000 1.0
C      1  0.3855180000000  0.4843990000000  0.4837880000000 1.0
C      1  0.5812370000000  0.5685190000000  0.4720590000000 1.0
C      1  0.5675440000000  0.4511830000000  0.5830090000000 1.0
C      1  0.4805630000000  0.4058980000000  0.4267090000000 1.0
C      1  0.3807940000000  0.5090230000000  0.4706860000000 1.0
C      1  0.5001230000000  0.5435500000000  0.5213240000000 1.0
C      1  0.4405040000000  0.4267700000000  0.5170020000000 1.0
END
