TITL C-627111-6168-1227 4886.46481413182 125000 -992.431133564851 0 0 163 (C1) n - 1
REM
REM in /home/nfs/bkarasulu/CARBON/AIRSS/Generating-Clusters/LCBOP/Only-C1/SD-CG/FIRE-CG
REM
REM
REM
REM
REM
REM ./C.cell (11c1c37f851c82e70ff6c80c92926a4b)
REM AIRSS Version 0.9.1 bugfix July 2018 build 013d7b7c2542+ Fri, 06 Jul 2018 19:26:36 +0100
REM compiler GCC version 9.2.1 20190827 (Red Hat 9.2.1-1)
REM options -cpp -mtune=generic -march=x86-64 -g -O0 -fpre-include=/usr/include/finclude/math-vector-fortran.h
REM seed 1072658815 -375594883 1397001928 162068887 1878869354 -886577294 -191679182 -1364522918 -45025737 106598966 1375033640 -334649502 1211516237 -532979333 485941558 -1047143469 1929352192 1665462200 -495298239 -1765114438 249500444 466061164 1346155333 -350443310 -561118947 447784409 -511922869 -1551172900 928435230 977548153 -271730207 -398113561 -391575477
REM
CELL 1.54180   50.00000   50.00000   50.00000   90.00000   90.00000   90.00000
LATT -1
SFAC C  
C      1  0.4910750000000  0.4697080000000  0.4360690000000 1.0
C      1  0.5632810000000  0.3951580000000  0.5247710000000 1.0
C      1  0.5443450000000  0.4633100000000  0.4695550000000 1.0
C      1  0.5175020000000  0.6325350000000  0.4360620000000 1.0
C      1  0.4287350000000  0.5601230000000  0.5028340000000 1.0
C      1  0.3945800000000  0.4371250000000  0.4616280000000 1.0
C      1  0.5745520000000  0.5384850000000  0.5222620000000 1.0
C      1  0.5267710000000  0.3914760000000  0.4796730000000 1.0
C      1  0.5734960000000  0.4182650000000  0.5152030000000 1.0
C      1  0.5074750000000  0.4416340000000  0.3957290000000 1.0
C      1  0.5005390000000  0.5530100000000  0.5381720000000 1.0
C      1  0.4664690000000  0.5311980000000  0.4594000000000 1.0
C      1  0.6027910000000  0.5936900000000  0.5072160000000 1.0
C      1  0.5293570000000  0.4865880000000  0.4604150000000 1.0
C      1  0.5979720000000  0.5052650000000  0.5013560000000 1.0
C      1  0.5001470000000  0.6288300000000  0.4562880000000 1.0
C      1  0.4839910000000  0.5111960000000  0.5082110000000 1.0
C      1  0.5830840000000  0.4782730000000  0.5735520000000 1.0
C      1  0.5416040000000  0.4506540000000  0.5956990000000 1.0
C      1  0.4142150000000  0.4861910000000  0.5682820000000 1.0
C      1  0.4242650000000  0.5701580000000  0.5323970000000 1.0
C      1  0.5538660000000  0.5839050000000  0.4736680000000 1.0
C      1  0.3760370000000  0.5170550000000  0.5200460000000 1.0
C      1  0.5330760000000  0.5579420000000  0.4396200000000 1.0
C      1  0.4014330000000  0.4713560000000  0.5477710000000 1.0
C      1  0.5574770000000  0.6075840000000  0.4131080000000 1.0
C      1  0.6005740000000  0.5849450000000  0.4817770000000 1.0
C      1  0.4508190000000  0.4680590000000  0.5182110000000 1.0
C      1  0.4266040000000  0.5084660000000  0.4994640000000 1.0
C      1  0.5959440000000  0.5223780000000  0.4502900000000 1.0
C      1  0.3780010000000  0.4930970000000  0.5077420000000 1.0
C      1  0.4996550000000  0.5285890000000  0.4266860000000 1.0
C      1  0.5298980000000  0.5752140000000  0.5736320000000 1.0
C      1  0.4601480000000  0.5429410000000  0.5663750000000 1.0
C      1  0.5422370000000  0.4266190000000  0.4276330000000 1.0
C      1  0.5481960000000  0.5101700000000  0.3924900000000 1.0
C      1  0.4822700000000  0.4925990000000  0.4877730000000 1.0
C      1  0.5081460000000  0.3708150000000  0.4800860000000 1.0
C      1  0.5866260000000  0.5149850000000  0.4765830000000 1.0
C      1  0.5474510000000  0.5335770000000  0.5165930000000 1.0
C      1  0.4868940000000  0.3551500000000  0.4822310000000 1.0
C      1  0.4043250000000  0.5382580000000  0.5666310000000 1.0
C      1  0.4534310000000  0.5728440000000  0.4922770000000 1.0
C      1  0.4355560000000  0.4839030000000  0.5043800000000 1.0
C      1  0.5663380000000  0.5249470000000  0.4081450000000 1.0
C      1  0.5462670000000  0.4115850000000  0.5650820000000 1.0
C      1  0.5605420000000  0.4758030000000  0.5969320000000 1.0
C      1  0.5565160000000  0.5844180000000  0.5670230000000 1.0
C      1  0.4847800000000  0.4943120000000  0.5946500000000 1.0
C      1  0.5604490000000  0.4125230000000  0.4474080000000 1.0
C      1  0.4652740000000  0.5895210000000  0.5637190000000 1.0
C      1  0.4442670000000  0.5158200000000  0.6040780000000 1.0
C      1  0.5304710000000  0.5120920000000  0.5275450000000 1.0
C      1  0.5175210000000  0.4099210000000  0.5258970000000 1.0
C      1  0.4483760000000  0.5385130000000  0.5900060000000 1.0
C      1  0.4310060000000  0.4626790000000  0.4122600000000 1.0
C      1  0.4959000000000  0.5617770000000  0.4846870000000 1.0
C      1  0.4017480000000  0.5541010000000  0.5435320000000 1.0
C      1  0.4931510000000  0.5204710000000  0.6031790000000 1.0
C      1  0.4834140000000  0.5833280000000  0.5841340000000 1.0
C      1  0.3802890000000  0.5717330000000  0.4874270000000 1.0
C      1  0.4880540000000  0.4428150000000  0.4717680000000 1.0
C      1  0.4034500000000  0.4544740000000  0.5240390000000 1.0
C      1  0.4159880000000  0.4246540000000  0.4476070000000 1.0
C      1  0.5308170000000  0.4419320000000  0.4854790000000 1.0
C      1  0.5465020000000  0.5830540000000  0.5012580000000 1.0
C      1  0.4064710000000  0.5661640000000  0.4844900000000 1.0
C      1  0.5798690000000  0.5773850000000  0.5507480000000 1.0
C      1  0.5868510000000  0.5293470000000  0.5657030000000 1.0
C      1  0.4697870000000  0.5542060000000  0.4769400000000 1.0
C      1  0.5546340000000  0.4538220000000  0.4253020000000 1.0
C      1  0.5181360000000  0.4591330000000  0.5059360000000 1.0
C      1  0.5659320000000  0.4566750000000  0.4520820000000 1.0
C      1  0.4292400000000  0.5115510000000  0.4193830000000 1.0
C      1  0.5134310000000  0.5395860000000  0.6086060000000 1.0
C      1  0.5378070000000  0.6241260000000  0.4207110000000 1.0
C      1  0.6069890000000  0.4494320000000  0.5040420000000 1.0
C      1  0.5486190000000  0.4390060000000  0.5698670000000 1.0
C      1  0.5794800000000  0.4323780000000  0.4600230000000 1.0
C      1  0.5394980000000  0.4580300000000  0.5252650000000 1.0
C      1  0.3946830000000  0.4637350000000  0.4714470000000 1.0
C      1  0.5368160000000  0.4739360000000  0.4168890000000 1.0
C      1  0.4673810000000  0.4810310000000  0.4467080000000 1.0
C      1  0.4690870000000  0.4179440000000  0.5303290000000 1.0
C      1  0.5346880000000  0.6052160000000  0.5149160000000 1.0
C      1  0.5736730000000  0.5864400000000  0.4167180000000 1.0
C      1  0.4644790000000  0.5284650000000  0.5197100000000 1.0
C      1  0.5352100000000  0.5073770000000  0.5552850000000 1.0
C      1  0.4704480000000  0.5026980000000  0.4646060000000 1.0
C      1  0.5637410000000  0.5337980000000  0.5814530000000 1.0
C      1  0.4558490000000  0.4911120000000  0.5952610000000 1.0
C      1  0.4371050000000  0.4741170000000  0.5816990000000 1.0
C      1  0.5109120000000  0.4496440000000  0.5918600000000 1.0
C      1  0.5623520000000  0.4429990000000  0.5166080000000 1.0
C      1  0.5053490000000  0.4694200000000  0.3848930000000 1.0
C      1  0.5824870000000  0.5382090000000  0.4297710000000 1.0
C      1  0.4377980000000  0.4460950000000  0.5783360000000 1.0
C      1  0.4931630000000  0.4653110000000  0.4914090000000 1.0
C      1  0.5131490000000  0.4297730000000  0.4224110000000 1.0
C      1  0.5304350000000  0.4860180000000  0.3915510000000 1.0
C      1  0.4993420000000  0.4305610000000  0.5706810000000 1.0
C      1  0.5092160000000  0.6140000000000  0.5192350000000 1.0
C      1  0.5487290000000  0.3916380000000  0.4621070000000 1.0
C      1  0.5813270000000  0.5671750000000  0.4362000000000 1.0
C      1  0.4408610000000  0.4096050000000  0.4902500000000 1.0
C      1  0.4636490000000  0.3428140000000  0.4853380000000 1.0
C      1  0.4720950000000  0.5332800000000  0.4311990000000 1.0
C      1  0.4393150000000  0.3329250000000  0.4888870000000 1.0
C      1  0.5227790000000  0.5526400000000  0.5571310000000 1.0
C      1  0.5387810000000  0.5312870000000  0.5682080000000 1.0
C      1  0.4634160000000  0.5932120000000  0.5115460000000 1.0
C      1  0.5233350000000  0.5318650000000  0.4419300000000 1.0
C      1  0.3911120000000  0.4683050000000  0.5002720000000 1.0
C      1  0.4151090000000  0.3239550000000  0.4925260000000 1.0
C      1  0.4385620000000  0.5319030000000  0.5080310000000 1.0
C      1  0.5859270000000  0.5494390000000  0.5455370000000 1.0
C      1  0.4592490000000  0.5282170000000  0.3844240000000 1.0
C      1  0.5401460000000  0.3988170000000  0.5406490000000 1.0
C      1  0.5384530000000  0.4601910000000  0.5526240000000 1.0
C      1  0.5369810000000  0.5234120000000  0.6166090000000 1.0
C      1  0.5508970000000  0.4996910000000  0.6120000000000 1.0
C      1  0.4481730000000  0.4632600000000  0.4547980000000 1.0
C      1  0.4237890000000  0.4369340000000  0.4229600000000 1.0
C      1  0.5990350000000  0.4369200000000  0.4807380000000 1.0
C      1  0.3796840000000  0.5446720000000  0.5265840000000 1.0
C      1  0.5801100000000  0.5778200000000  0.4636420000000 1.0
C      1  0.6032660000000  0.4640260000000  0.5288220000000 1.0
C      1  0.5269430000000  0.4831180000000  0.5657450000000 1.0
C      1  0.4776700000000  0.4790920000000  0.3833690000000 1.0
C      1  0.4940780000000  0.6086920000000  0.4749170000000 1.0
C      1  0.4267410000000  0.4301720000000  0.5594430000000 1.0
C      1  0.4542910000000  0.4660920000000  0.3951150000000 1.0
C      1  0.4728660000000  0.5055390000000  0.3747550000000 1.0
C      1  0.5090510000000  0.5719440000000  0.5940120000000 1.0
C      1  0.5932330000000  0.5944860000000  0.5324510000000 1.0
C      1  0.5076730000000  0.5574740000000  0.5103680000000 1.0
C      1  0.5061330000000  0.5834490000000  0.4691040000000 1.0
C      1  0.5053340000000  0.4775200000000  0.5850400000000 1.0
C      1  0.4859820000000  0.6097430000000  0.5030300000000 1.0
C      1  0.4029400000000  0.4822250000000  0.4504680000000 1.0
C      1  0.5585820000000  0.5193120000000  0.4761580000000 1.0
C      1  0.5353870000000  0.5140870000000  0.4617060000000 1.0
C      1  0.4950020000000  0.4196230000000  0.5426900000000 1.0
C      1  0.5954020000000  0.4566650000000  0.5566660000000 1.0
C      1  0.5169550000000  0.4806410000000  0.4360250000000 1.0
C      1  0.4950910000000  0.4413240000000  0.4433590000000 1.0
C      1  0.5035050000000  0.5024110000000  0.5255770000000 1.0
C      1  0.4744370000000  0.5423490000000  0.5424890000000 1.0
C      1  0.4534320000000  0.5497560000000  0.3687700000000 1.0
C      1  0.5988630000000  0.4935250000000  0.5280360000000 1.0
C      1  0.4498640000000  0.5874520000000  0.5383910000000 1.0
C      1  0.4057080000000  0.5123940000000  0.5732570000000 1.0
C      1  0.4437950000000  0.4193670000000  0.5164330000000 1.0
C      1  0.4519510000000  0.5269680000000  0.4120290000000 1.0
C      1  0.5236490000000  0.4145330000000  0.4963980000000 1.0
C      1  0.5355540000000  0.5576560000000  0.5083970000000 1.0
C      1  0.4187340000000  0.4859880000000  0.4261780000000 1.0
C      1  0.5313170000000  0.5793930000000  0.4570690000000 1.0
C      1  0.4917560000000  0.4829730000000  0.5414410000000 1.0
C      1  0.3670430000000  0.5632230000000  0.5093780000000 1.0
C      1  0.5910500000000  0.5023850000000  0.5566000000000 1.0
C      1  0.4330070000000  0.4098840000000  0.4645920000000 1.0
C      1  0.4220600000000  0.4320110000000  0.5309600000000 1.0
END
