TITL C-627106-156-199 0.0027682289329876 125000 -147.86014116277 0 0 25 (C1) n - 1
REM
REM in /home/nfs/bkarasulu/CARBON/AIRSS/Generating-Clusters/LCBOP/Only-C1/SD-CG/FIRE-CG
REM
REM
REM
REM
REM
REM ./C.cell (11c1c37f851c82e70ff6c80c92926a4b)
REM AIRSS Version 0.9.1 bugfix July 2018 build 013d7b7c2542+ Fri, 06 Jul 2018 19:26:36 +0100
REM compiler GCC version 9.2.1 20190827 (Red Hat 9.2.1-1)
REM options -cpp -mtune=generic -march=x86-64 -g -O0 -fpre-include=/usr/include/finclude/math-vector-fortran.h
REM seed -1423633667 1239733495 629968161 878966952 -1711483715 -1269792247 649725220 -737092428 24122486 -908479211 -1700963279 262387575 196437811 2136595883 168643368 -1829056852 1700992334 -562197911 338136373 727771804 1886178267 -1908513316 88977582 -137807937 85019549 843561827 2047104914 -812083495 -1352353277 2082517237 -721446584 -1645476411 1432797694
REM
CELL 1.54180   50.00000   50.00000   50.00000   90.00000   90.00000   90.00000
LATT -1
SFAC C  
C      1  0.4757220000000  0.4794520000000  0.5030030000000 1.0
C      1  0.5749520000000  0.5360900000000  0.4733870000000 1.0
C      1  0.4848460000000  0.5314680000000  0.4929990000000 1.0
C      1  0.5055950000000  0.5508850000000  0.4970220000000 1.0
C      1  0.3452350000000  0.4571240000000  0.5180050000000 1.0
C      1  0.3967330000000  0.4658230000000  0.5119600000000 1.0
C      1  0.3707700000000  0.4614370000000  0.5150080000000 1.0
C      1  0.5165390000000  0.4960480000000  0.4907070000000 1.0
C      1  0.4486310000000  0.4746160000000  0.5058970000000 1.0
C      1  0.5320730000000  0.5398950000000  0.5000830000000 1.0
C      1  0.5800340000000  0.4857640000000  0.4640290000000 1.0
C      1  0.5359830000000  0.5017430000000  0.5341190000000 1.0
C      1  0.5552990000000  0.5484420000000  0.4868470000000 1.0
C      1  0.5322090000000  0.5125110000000  0.5081980000000 1.0
C      1  0.5416630000000  0.4559350000000  0.4798410000000 1.0
C      1  0.5648230000000  0.4644570000000  0.4694050000000 1.0
C      1  0.4960990000000  0.6038450000000  0.4990710000000 1.0
C      1  0.4975470000000  0.4607920000000  0.5105720000000 1.0
C      1  0.5191790000000  0.4672530000000  0.4915450000000 1.0
C      1  0.5243330000000  0.4805850000000  0.5465450000000 1.0
C      1  0.5004650000000  0.5781700000000  0.4981080000000 1.0
C      1  0.4880330000000  0.5034800000000  0.4919850000000 1.0
C      1  0.5067920000000  0.4617900000000  0.5375010000000 1.0
C      1  0.5837540000000  0.5121870000000  0.4652490000000 1.0
C      1  0.4226890000000  0.4702080000000  0.5089130000000 1.0
END
