TITL C-627113-6568-391 3740.42578138471 125000 -358.301578102165 0 0 60 (C1) n - 1
REM
REM in /home/nfs/bkarasulu/CARBON/AIRSS/Generating-Clusters/LCBOP/Only-C1/SD-CG/FIRE-CG
REM
REM
REM
REM
REM
REM ./C.cell (11c1c37f851c82e70ff6c80c92926a4b)
REM AIRSS Version 0.9.1 bugfix July 2018 build 013d7b7c2542+ Fri, 06 Jul 2018 19:26:36 +0100
REM compiler GCC version 9.2.1 20190827 (Red Hat 9.2.1-1)
REM options -cpp -mtune=generic -march=x86-64 -g -O0 -fpre-include=/usr/include/finclude/math-vector-fortran.h
REM seed 1657103616 -1104002483 -913083267 -879864126 -1872150711 -1982653054 -1347764039 1432670187 67525503 1783261620 -1386940527 1949602027 -679707543 165032175 -539376301 -1071483666 1701218297 -10303529 180883635 -1085220409 -278737904 -178920715 -1428137884 2094587977 -1360044641 168263165 -1975980381 -785648202 -1033146977 -123802370 1212241627 295261006 -477141452
REM
CELL 1.54180   50.00000   50.00000   50.00000   90.00000   90.00000   90.00000
LATT -1
SFAC C  
C      1  0.4860560000000  0.4922770000000  0.5657830000000 1.0
C      1  0.5219960000000  0.5195950000000  0.3995450000000 1.0
C      1  0.4447550000000  0.5045290000000  0.5796810000000 1.0
C      1  0.4234660000000  0.4434800000000  0.5194340000000 1.0
C      1  0.4709980000000  0.4724900000000  0.6073110000000 1.0
C      1  0.4343110000000  0.4831160000000  0.4912330000000 1.0
C      1  0.4836680000000  0.4689440000000  0.4361440000000 1.0
C      1  0.4719500000000  0.4463490000000  0.6007090000000 1.0
C      1  0.4984540000000  0.5453240000000  0.4619940000000 1.0
C      1  0.5184290000000  0.3878200000000  0.5393000000000 1.0
C      1  0.5358120000000  0.5224260000000  0.5164530000000 1.0
C      1  0.4744770000000  0.4726350000000  0.5475650000000 1.0
C      1  0.6121290000000  0.5419800000000  0.4870020000000 1.0
C      1  0.4851200000000  0.4080840000000  0.5726510000000 1.0
C      1  0.4803030000000  0.4868800000000  0.4993210000000 1.0
C      1  0.4998830000000  0.5572290000000  0.5660550000000 1.0
C      1  0.4695000000000  0.4940750000000  0.5894630000000 1.0
C      1  0.5308860000000  0.3971930000000  0.5177590000000 1.0
C      1  0.5768470000000  0.5308510000000  0.5506490000000 1.0
C      1  0.4625070000000  0.4794190000000  0.4510020000000 1.0
C      1  0.5783740000000  0.5417180000000  0.3467310000000 1.0
C      1  0.4422410000000  0.5261240000000  0.4430660000000 1.0
C      1  0.5766580000000  0.5300920000000  0.5779470000000 1.0
C      1  0.4408450000000  0.5327420000000  0.4942890000000 1.0
C      1  0.5216280000000  0.5312740000000  0.4706450000000 1.0
C      1  0.4852620000000  0.5422400000000  0.5476740000000 1.0
C      1  0.5326250000000  0.4415600000000  0.4912330000000 1.0
C      1  0.4417680000000  0.4382280000000  0.5381570000000 1.0
C      1  0.4812050000000  0.5563130000000  0.4812400000000 1.0
C      1  0.5173800000000  0.4926050000000  0.4056520000000 1.0
C      1  0.4728100000000  0.4328910000000  0.5759110000000 1.0
C      1  0.5210550000000  0.5146520000000  0.4939070000000 1.0
C      1  0.5357550000000  0.4169250000000  0.5006360000000 1.0
C      1  0.5015780000000  0.3919090000000  0.5594620000000 1.0
C      1  0.5072300000000  0.5386400000000  0.4139300000000 1.0
C      1  0.4637850000000  0.4474860000000  0.5528710000000 1.0
C      1  0.4896010000000  0.5443500000000  0.4348420000000 1.0
C      1  0.5036010000000  0.4744050000000  0.4193470000000 1.0
C      1  0.4606490000000  0.4781420000000  0.4791120000000 1.0
C      1  0.4622350000000  0.5506000000000  0.5012130000000 1.0
C      1  0.4187980000000  0.4618200000000  0.5004330000000 1.0
C      1  0.5406690000000  0.5271810000000  0.3803440000000 1.0
C      1  0.4388480000000  0.5054180000000  0.5541550000000 1.0
C      1  0.5534330000000  0.5264250000000  0.5358680000000 1.0
C      1  0.4698830000000  0.5547860000000  0.5277920000000 1.0
C      1  0.5230500000000  0.4662440000000  0.4897070000000 1.0
C      1  0.4638600000000  0.4979770000000  0.5234470000000 1.0
C      1  0.4617030000000  0.5425000000000  0.4309120000000 1.0
C      1  0.4851040000000  0.5147570000000  0.5480040000000 1.0
C      1  0.6133170000000  0.5400510000000  0.5135150000000 1.0
C      1  0.5079300000000  0.4893650000000  0.4942880000000 1.0
C      1  0.5460940000000  0.5350110000000  0.4575530000000 1.0
C      1  0.5595430000000  0.5345150000000  0.3632580000000 1.0
C      1  0.5722710000000  0.5386800000000  0.4551190000000 1.0
C      1  0.4397030000000  0.5072150000000  0.5072090000000 1.0
C      1  0.4452780000000  0.4983560000000  0.4388030000000 1.0
C      1  0.6004210000000  0.5360990000000  0.5364280000000 1.0
C      1  0.4310020000000  0.5343950000000  0.4677080000000 1.0
C      1  0.5146010000000  0.5702440000000  0.5831750000000 1.0
C      1  0.5966590000000  0.5413680000000  0.4653600000000 1.0
END
