TITL C-627112-676-298 -9.48989900727798e-07 125000 -268.837451862803 0 0 44 (C1) n - 1
REM
REM in /home/nfs/bkarasulu/CARBON/AIRSS/Generating-Clusters/LCBOP/Only-C1/SD-CG/FIRE-CG
REM
REM
REM
REM
REM
REM ./C.cell (11c1c37f851c82e70ff6c80c92926a4b)
REM AIRSS Version 0.9.1 bugfix July 2018 build 013d7b7c2542+ Fri, 06 Jul 2018 19:26:36 +0100
REM compiler GCC version 9.2.1 20190827 (Red Hat 9.2.1-1)
REM options -cpp -mtune=generic -march=x86-64 -g -O0 -fpre-include=/usr/include/finclude/math-vector-fortran.h
REM seed 1699701479 1288077802 2121822948 -1280099673 -1254205118 -1403397491 -357952051 -782590900 1570694837 -372933663 -1524441395 -703899559 1588793728 -635081680 987249168 -854107588 502591352 -1118976101 1116971605 1401920080 -896535322 1275311791 -52940463 968246046 -278256644 340766191 -120467425 -738748891 796202299 15734083 -923437527 -1588389944 369850086
REM
CELL 1.54180   50.00000   50.00000   50.00000   90.00000   90.00000   90.00000
LATT -1
SFAC C  
C      1  0.4706540000000  0.5345140000000  0.4726380000000 1.0
C      1  0.5399110000000  0.4909110000000  0.5520670000000 1.0
C      1  0.4104030000000  0.5550320000000  0.5411170000000 1.0
C      1  0.4353630000000  0.4827620000000  0.4966530000000 1.0
C      1  0.4939780000000  0.4576420000000  0.4301070000000 1.0
C      1  0.4742030000000  0.4444130000000  0.4993010000000 1.0
C      1  0.5224890000000  0.4995090000000  0.4320120000000 1.0
C      1  0.4532650000000  0.4836880000000  0.5186080000000 1.0
C      1  0.4191550000000  0.5653630000000  0.5179070000000 1.0
C      1  0.5756650000000  0.4522100000000  0.5097400000000 1.0
C      1  0.4711580000000  0.5300980000000  0.5213060000000 1.0
C      1  0.4966740000000  0.4407870000000  0.4537050000000 1.0
C      1  0.4350890000000  0.4733150000000  0.4715200000000 1.0
C      1  0.5830320000000  0.4509220000000  0.4630670000000 1.0
C      1  0.5035650000000  0.5273980000000  0.5577830000000 1.0
C      1  0.4698300000000  0.4605660000000  0.5220620000000 1.0
C      1  0.4183020000000  0.5339700000000  0.5558460000000 1.0
C      1  0.4742300000000  0.4437300000000  0.4715040000000 1.0
C      1  0.5282000000000  0.5590640000000  0.4745360000000 1.0
C      1  0.4655990000000  0.4645050000000  0.4308200000000 1.0
C      1  0.4840910000000  0.4542610000000  0.5452040000000 1.0
C      1  0.5080750000000  0.4522840000000  0.5566680000000 1.0
C      1  0.5649820000000  0.4783160000000  0.5091090000000 1.0
C      1  0.5150950000000  0.5551440000000  0.5209040000000 1.0
C      1  0.4371890000000  0.5151400000000  0.5526220000000 1.0
C      1  0.4538500000000  0.4590390000000  0.4565660000000 1.0
C      1  0.5141490000000  0.5681730000000  0.4959110000000 1.0
C      1  0.4389430000000  0.5598760000000  0.5006680000000 1.0
C      1  0.5135710000000  0.4760250000000  0.4228100000000 1.0
C      1  0.5317410000000  0.4646900000000  0.5580450000000 1.0
C      1  0.5522200000000  0.5176230000000  0.4856250000000 1.0
C      1  0.5240330000000  0.5111320000000  0.5638630000000 1.0
C      1  0.5633700000000  0.4912730000000  0.4823790000000 1.0
C      1  0.5843470000000  0.4389940000000  0.4875510000000 1.0
C      1  0.5165330000000  0.5191320000000  0.4509860000000 1.0
C      1  0.4945940000000  0.5400560000000  0.5340630000000 1.0
C      1  0.4606340000000  0.5422750000000  0.4975510000000 1.0
C      1  0.5353820000000  0.5322780000000  0.4679230000000 1.0
C      1  0.4894800000000  0.5251580000000  0.4563270000000 1.0
C      1  0.5549510000000  0.4967700000000  0.5287750000000 1.0
C      1  0.5413170000000  0.5453140000000  0.5262430000000 1.0
C      1  0.4558210000000  0.5083560000000  0.5325470000000 1.0
C      1  0.5518590000000  0.5221590000000  0.5147590000000 1.0
C      1  0.5730090000000  0.4761350000000  0.4606040000000 1.0
END
