TITL C-627106-156-25 5.47021788221193e-09 125000 -235.852717788153 0 0 41 (C1) n - 1
REM
REM in /home/nfs/bkarasulu/CARBON/AIRSS/Generating-Clusters/LCBOP/Only-C1/SD-CG/FIRE-CG
REM
REM
REM
REM
REM
REM ./C.cell (11c1c37f851c82e70ff6c80c92926a4b)
REM AIRSS Version 0.9.1 bugfix July 2018 build 013d7b7c2542+ Fri, 06 Jul 2018 19:26:36 +0100
REM compiler GCC version 9.2.1 20190827 (Red Hat 9.2.1-1)
REM options -cpp -mtune=generic -march=x86-64 -g -O0 -fpre-include=/usr/include/finclude/math-vector-fortran.h
REM seed -979235647 1374374274 -1699717424 -1964344645 -1943618367 -804398598 -1960548733 911375658 -1124749233 769639699 1561694678 -2010160847 -498466510 104769926 -294679822 851633712 1511356566 -1940099620 632976531 1070319099 280631612 1361000046 927923755 1371483065 1805366898 -1945273185 1217110830 -606918318 -1190078609 2102961308 1839957634 -1353977379 330324092
REM
CELL 1.54180   50.00000   50.00000   50.00000   90.00000   90.00000   90.00000
LATT -1
SFAC C  
C      1  0.4701970000000  0.5381770000000  0.5523030000000 1.0
C      1  0.5777140000000  0.5334290000000  0.4791390000000 1.0
C      1  0.4444090000000  0.4737500000000  0.5593970000000 1.0
C      1  0.4534700000000  0.5787880000000  0.4618450000000 1.0
C      1  0.4609460000000  0.4930130000000  0.4545530000000 1.0
C      1  0.5396420000000  0.5267920000000  0.5785490000000 1.0
C      1  0.5120150000000  0.4722950000000  0.5265450000000 1.0
C      1  0.5790910000000  0.5139730000000  0.4972240000000 1.0
C      1  0.4884730000000  0.4918120000000  0.4448430000000 1.0
C      1  0.4544310000000  0.4656630000000  0.4622080000000 1.0
C      1  0.4448300000000  0.4656740000000  0.5118210000000 1.0
C      1  0.4864330000000  0.4666230000000  0.5367700000000 1.0
C      1  0.4726940000000  0.5631660000000  0.4733160000000 1.0
C      1  0.4367380000000  0.3834260000000  0.5136210000000 1.0
C      1  0.4463890000000  0.4525650000000  0.4870960000000 1.0
C      1  0.4983560000000  0.5732010000000  0.4789490000000 1.0
C      1  0.5299110000000  0.5634090000000  0.5146940000000 1.0
C      1  0.5693220000000  0.5021600000000  0.5189640000000 1.0
C      1  0.5247130000000  0.5717300000000  0.4883730000000 1.0
C      1  0.5348490000000  0.4767410000000  0.5428270000000 1.0
C      1  0.5035510000000  0.5067370000000  0.4952320000000 1.0
C      1  0.4822840000000  0.4264070000000  0.4728620000000 1.0
C      1  0.5357580000000  0.5475600000000  0.5352320000000 1.0
C      1  0.5487350000000  0.5980630000000  0.4552650000000 1.0
C      1  0.5661220000000  0.5553600000000  0.4695700000000 1.0
C      1  0.4676940000000  0.5361260000000  0.4804160000000 1.0
C      1  0.5493950000000  0.5009070000000  0.5386430000000 1.0
C      1  0.5466370000000  0.5755070000000  0.4705390000000 1.0
C      1  0.4831720000000  0.5250130000000  0.5016320000000 1.0
C      1  0.4529710000000  0.5176830000000  0.4649800000000 1.0
C      1  0.5146930000000  0.4615040000000  0.4779980000000 1.0
C      1  0.4777620000000  0.4481470000000  0.4530880000000 1.0
C      1  0.5428460000000  0.4584790000000  0.5615150000000 1.0
C      1  0.5011480000000  0.4673130000000  0.4524650000000 1.0
C      1  0.5130450000000  0.4805440000000  0.4991340000000 1.0
C      1  0.5080150000000  0.4336220000000  0.4837940000000 1.0
C      1  0.4583210000000  0.4688240000000  0.5363980000000 1.0
C      1  0.4578440000000  0.4256190000000  0.4879850000000 1.0
C      1  0.4469770000000  0.4036810000000  0.5008150000000 1.0
C      1  0.5414530000000  0.5252180000000  0.5513070000000 1.0
C      1  0.4769560000000  0.5312980000000  0.5280920000000 1.0
END
