TITL C-627108-131-844 0.0129331699539431 125000 -328.469848277766 0 0 56 (C1) n - 1
REM
REM in /home/nfs/bkarasulu/CARBON/AIRSS/Generating-Clusters/LCBOP/Only-C1/SD-CG/FIRE-CG
REM
REM
REM
REM
REM
REM ./C.cell (11c1c37f851c82e70ff6c80c92926a4b)
REM AIRSS Version 0.9.1 bugfix July 2018 build 013d7b7c2542+ Fri, 06 Jul 2018 19:26:36 +0100
REM compiler GCC version 9.2.1 20190827 (Red Hat 9.2.1-1)
REM options -cpp -mtune=generic -march=x86-64 -g -O0 -fpre-include=/usr/include/finclude/math-vector-fortran.h
REM seed 1448451964 504497472 -1194354380 -1435163293 1814561511 454129165 623321592 -2144876743 891330370 466652165 1719195971 969985235 1406103087 764691536 1669842677 364615394 -531637088 542210549 358333179 1726160432 793950675 -1042790990 -1374808081 -1522428282 -1868044571 1791240423 1340823244 -33069364 -1319849421 1776114963 1234540625 -1623735567 -2104937536
REM
CELL 1.54180   50.00000   50.00000   50.00000   90.00000   90.00000   90.00000
LATT -1
SFAC C  
C      1  0.4683530000000  0.4956140000000  0.4093970000000 1.0
C      1  0.4640760000000  0.5245960000000  0.5696510000000 1.0
C      1  0.4618500000000  0.5328090000000  0.4682200000000 1.0
C      1  0.5260640000000  0.5741000000000  0.5078610000000 1.0
C      1  0.5212410000000  0.4734240000000  0.5334370000000 1.0
C      1  0.5025020000000  0.4434640000000  0.4730740000000 1.0
C      1  0.5212720000000  0.4474810000000  0.4933040000000 1.0
C      1  0.4534540000000  0.4763570000000  0.5320970000000 1.0
C      1  0.4401090000000  0.4737480000000  0.4678950000000 1.0
C      1  0.5473830000000  0.4586150000000  0.4884070000000 1.0
C      1  0.5158410000000  0.4750650000000  0.5923750000000 1.0
C      1  0.4947630000000  0.5447020000000  0.4945720000000 1.0
C      1  0.4812460000000  0.5182940000000  0.4511320000000 1.0
C      1  0.4597820000000  0.4956090000000  0.3041840000000 1.0
C      1  0.5528790000000  0.5079500000000  0.5129910000000 1.0
C      1  0.5211450000000  0.5486340000000  0.4589250000000 1.0
C      1  0.5488180000000  0.4782180000000  0.4662010000000 1.0
C      1  0.4777680000000  0.4899700000000  0.5274750000000 1.0
C      1  0.5576080000000  0.4628330000000  0.5631870000000 1.0
C      1  0.4636560000000  0.4728180000000  0.4526990000000 1.0
C      1  0.5140210000000  0.5158070000000  0.5543360000000 1.0
C      1  0.4729980000000  0.4315610000000  0.5446460000000 1.0
C      1  0.4661870000000  0.4956300000000  0.3830000000000 1.0
C      1  0.4729450000000  0.5399000000000  0.5469690000000 1.0
C      1  0.5674110000000  0.4519260000000  0.5393030000000 1.0
C      1  0.5111190000000  0.5214000000000  0.4523650000000 1.0
C      1  0.5024040000000  0.5411340000000  0.5461470000000 1.0
C      1  0.4825440000000  0.4528120000000  0.4581290000000 1.0
C      1  0.4640400000000  0.4956230000000  0.3565880000000 1.0
C      1  0.4975410000000  0.4304110000000  0.5338860000000 1.0
C      1  0.5014650000000  0.4913850000000  0.5434260000000 1.0
C      1  0.5146040000000  0.5623060000000  0.4840110000000 1.0
C      1  0.5170410000000  0.5618590000000  0.5326760000000 1.0
C      1  0.4295940000000  0.4840990000000  0.5186880000000 1.0
C      1  0.5453160000000  0.4872180000000  0.5278160000000 1.0
C      1  0.5338210000000  0.5194620000000  0.4986080000000 1.0
C      1  0.4710290000000  0.4955010000000  0.4371060000000 1.0
C      1  0.4665310000000  0.5443370000000  0.4945630000000 1.0
C      1  0.5058130000000  0.5190150000000  0.4982870000000 1.0
C      1  0.5657420000000  0.4525820000000  0.5112330000000 1.0
C      1  0.4913450000000  0.4869430000000  0.5947670000000 1.0
C      1  0.5139690000000  0.4488690000000  0.5208110000000 1.0
C      1  0.5565740000000  0.5284580000000  0.5767560000000 1.0
C      1  0.5725860000000  0.4783230000000  0.4519310000000 1.0
C      1  0.4547640000000  0.4512550000000  0.5448040000000 1.0
C      1  0.4282230000000  0.4786730000000  0.4911850000000 1.0
C      1  0.5284510000000  0.4975570000000  0.4569580000000 1.0
C      1  0.4867660000000  0.4986470000000  0.5020490000000 1.0
C      1  0.4581530000000  0.5445450000000  0.5222260000000 1.0
C      1  0.5441690000000  0.5951430000000  0.5071880000000 1.0
C      1  0.5397540000000  0.4815350000000  0.5776010000000 1.0
C      1  0.4618940000000  0.4956160000000  0.3301680000000 1.0
C      1  0.4091200000000  0.4963080000000  0.5319870000000 1.0
C      1  0.4729930000000  0.5052790000000  0.5866810000000 1.0
C      1  0.5379250000000  0.5098470000000  0.5696340000000 1.0
C      1  0.5613420000000  0.6147290000000  0.5063880000000 1.0
END
