TITL C-627109-622-1578 -1.57863890761821e-07 125000 -197.049548365305 0 0 33 (C1) n - 1
REM
REM in /home/nfs/bkarasulu/CARBON/AIRSS/Generating-Clusters/LCBOP/Only-C1/SD-CG/FIRE-CG
REM
REM
REM
REM
REM
REM ./C.cell (11c1c37f851c82e70ff6c80c92926a4b)
REM AIRSS Version 0.9.1 bugfix July 2018 build 013d7b7c2542+ Fri, 06 Jul 2018 19:26:36 +0100
REM compiler GCC version 9.2.1 20190827 (Red Hat 9.2.1-1)
REM options -cpp -mtune=generic -march=x86-64 -g -O0 -fpre-include=/usr/include/finclude/math-vector-fortran.h
REM seed 1358716906 2055063987 -450972334 -448437098 1804093961 903003890 -1645589154 107731822 1108599723 -1650386494 869216506 -1612893261 -651465246 317197465 -1170989313 343043973 703289720 577334772 -116766350 329631999 1362655737 1512180090 1244801826 -207183977 -671915483 1048027531 -1194192196 -1353212694 171597127 1259823866 919039520 -812002655 138375112
REM
CELL 1.54180   50.00000   50.00000   50.00000   90.00000   90.00000   90.00000
LATT -1
SFAC C  
C      1  0.5633430000000  0.5158340000000  0.5416630000000 1.0
C      1  0.4817880000000  0.5229200000000  0.4615840000000 1.0
C      1  0.5613590000000  0.5300140000000  0.5174340000000 1.0
C      1  0.4967440000000  0.4584550000000  0.4530490000000 1.0
C      1  0.4566120000000  0.4882860000000  0.5334780000000 1.0
C      1  0.5761570000000  0.5243710000000  0.4944140000000 1.0
C      1  0.4796360000000  0.4991230000000  0.5202020000000 1.0
C      1  0.4808880000000  0.4373370000000  0.4954890000000 1.0
C      1  0.4915890000000  0.5536360000000  0.4998790000000 1.0
C      1  0.5428690000000  0.5059230000000  0.5560170000000 1.0
C      1  0.5197550000000  0.4738990000000  0.4464490000000 1.0
C      1  0.5153020000000  0.5014270000000  0.5528280000000 1.0
C      1  0.5538200000000  0.5086350000000  0.4514950000000 1.0
C      1  0.5007890000000  0.5142970000000  0.5311930000000 1.0
C      1  0.4801640000000  0.4907550000000  0.4939280000000 1.0
C      1  0.5271740000000  0.5015430000000  0.4465490000000 1.0
C      1  0.4730950000000  0.4741780000000  0.4508380000000 1.0
C      1  0.4726460000000  0.4965510000000  0.4677210000000 1.0
C      1  0.4728000000000  0.5415050000000  0.4819520000000 1.0
C      1  0.5067900000000  0.5217530000000  0.4480810000000 1.0
C      1  0.5094230000000  0.4131980000000  0.4648770000000 1.0
C      1  0.5027230000000  0.4798910000000  0.5663060000000 1.0
C      1  0.4463230000000  0.5381360000000  0.4922980000000 1.0
C      1  0.4958210000000  0.4361620000000  0.4711530000000 1.0
C      1  0.5090550000000  0.5376340000000  0.5161870000000 1.0
C      1  0.4645350000000  0.4614290000000  0.5407770000000 1.0
C      1  0.5365990000000  0.5430770000000  0.5142660000000 1.0
C      1  0.4335990000000  0.5034390000000  0.5276970000000 1.0
C      1  0.5721320000000  0.5164440000000  0.4692250000000 1.0
C      1  0.4926740000000  0.5809890000000  0.5016540000000 1.0
C      1  0.4316170000000  0.5239330000000  0.5099690000000 1.0
C      1  0.4691310000000  0.4434660000000  0.5190020000000 1.0
C      1  0.4830480000000  0.4617600000000  0.5623450000000 1.0
END
