TITL C-627107-135-307 0.00117416077723294 125000 -398.636101195655 0 0 66 (C1) n - 1
REM
REM in /home/nfs/bkarasulu/CARBON/AIRSS/Generating-Clusters/LCBOP/Only-C1/SD-CG/FIRE-CG
REM
REM
REM
REM
REM
REM ./C.cell (11c1c37f851c82e70ff6c80c92926a4b)
REM AIRSS Version 0.9.1 bugfix July 2018 build 013d7b7c2542+ Fri, 06 Jul 2018 19:26:36 +0100
REM compiler GCC version 9.2.1 20190827 (Red Hat 9.2.1-1)
REM options -cpp -mtune=generic -march=x86-64 -g -O0 -fpre-include=/usr/include/finclude/math-vector-fortran.h
REM seed -380347644 4265227 -1858899574 224704385 -1053152291 -1527331977 1789225004 1505693752 303816423 768471630 -247354498 -64766795 272956685 1816482385 -752228305 1114361253 -1967981487 -915888006 -843312048 -199423912 -69168284 1635510090 -2025895200 -1589883986 -1919768338 -174281486 1043342741 -2143650910 1939455793 -1719027792 -2063819511 -420017149 -2113462881
REM
CELL 1.54180   50.00000   50.00000   50.00000   90.00000   90.00000   90.00000
LATT -1
SFAC C  
C      1  0.5418620000000  0.5269670000000  0.5815200000000 1.0
C      1  0.5802660000000  0.4951190000000  0.4670890000000 1.0
C      1  0.5069960000000  0.4100100000000  0.4987880000000 1.0
C      1  0.5261700000000  0.3981900000000  0.4566070000000 1.0
C      1  0.5100540000000  0.5180210000000  0.5481720000000 1.0
C      1  0.5381600000000  0.5220430000000  0.5534160000000 1.0
C      1  0.5164470000000  0.5376410000000  0.4526510000000 1.0
C      1  0.5454970000000  0.5679730000000  0.6084590000000 1.0
C      1  0.4554250000000  0.4678860000000  0.4401270000000 1.0
C      1  0.4797790000000  0.4370730000000  0.4115140000000 1.0
C      1  0.4776350000000  0.4981400000000  0.5006870000000 1.0
C      1  0.4849840000000  0.4269370000000  0.4973780000000 1.0
C      1  0.4998980000000  0.4209190000000  0.4178700000000 1.0
C      1  0.4173190000000  0.4743420000000  0.4866700000000 1.0
C      1  0.5362410000000  0.5010500000000  0.5929310000000 1.0
C      1  0.5160130000000  0.4881140000000  0.4499010000000 1.0
C      1  0.4547460000000  0.4522310000000  0.4638900000000 1.0
C      1  0.4464740000000  0.5582640000000  0.4715950000000 1.0
C      1  0.5232990000000  0.5121630000000  0.4922060000000 1.0
C      1  0.5163710000000  0.4071910000000  0.4335860000000 1.0
C      1  0.5724680000000  0.5055560000000  0.4436440000000 1.0
C      1  0.4395070000000  0.4362220000000  0.5068180000000 1.0
C      1  0.4727480000000  0.4437880000000  0.5428060000000 1.0
C      1  0.4570030000000  0.4960140000000  0.4407410000000 1.0
C      1  0.4724260000000  0.5530170000000  0.5482430000000 1.0
C      1  0.4782020000000  0.4388470000000  0.4725210000000 1.0
C      1  0.4579170000000  0.4542710000000  0.4151540000000 1.0
C      1  0.4682110000000  0.5457740000000  0.4587500000000 1.0
C      1  0.4449220000000  0.5545160000000  0.5419950000000 1.0
C      1  0.5803780000000  0.4929520000000  0.4937970000000 1.0
C      1  0.4549460000000  0.4606580000000  0.5569020000000 1.0
C      1  0.5692270000000  0.5634840000000  0.4733100000000 1.0
C      1  0.4300140000000  0.5588100000000  0.5201170000000 1.0
C      1  0.5378280000000  0.5361840000000  0.5008570000000 1.0
C      1  0.4628870000000  0.5217500000000  0.4448050000000 1.0
C      1  0.5595200000000  0.5116350000000  0.5381760000000 1.0
C      1  0.4265980000000  0.4977950000000  0.4961130000000 1.0
C      1  0.4314930000000  0.5612930000000  0.4935160000000 1.0
C      1  0.4518790000000  0.5047020000000  0.5016110000000 1.0
C      1  0.5265770000000  0.4791430000000  0.5792200000000 1.0
C      1  0.5406660000000  0.5452710000000  0.4390410000000 1.0
C      1  0.5174750000000  0.5683390000000  0.5366670000000 1.0
C      1  0.5571160000000  0.5234670000000  0.4305410000000 1.0
C      1  0.5093890000000  0.4923510000000  0.5353530000000 1.0
C      1  0.5143630000000  0.4711420000000  0.5542350000000 1.0
C      1  0.4954130000000  0.5533180000000  0.4652050000000 1.0
C      1  0.4546830000000  0.4854910000000  0.5669940000000 1.0
C      1  0.5455310000000  0.3808670000000  0.4973760000000 1.0
C      1  0.5557410000000  0.5666920000000  0.4499840000000 1.0
C      1  0.4884980000000  0.5730490000000  0.5361350000000 1.0
C      1  0.5218850000000  0.5578860000000  0.5093750000000 1.0
C      1  0.5633540000000  0.5450900000000  0.4922930000000 1.0
C      1  0.5316420000000  0.5690640000000  0.5611520000000 1.0
C      1  0.5184840000000  0.5112600000000  0.4640800000000 1.0
C      1  0.4392460000000  0.4576980000000  0.3954780000000 1.0
C      1  0.4334830000000  0.4515550000000  0.4834300000000 1.0
C      1  0.5005740000000  0.5664680000000  0.4903760000000 1.0
C      1  0.4843620000000  0.5282630000000  0.5567870000000 1.0
C      1  0.4825580000000  0.5800470000000  0.5084570000000 1.0
C      1  0.5267290000000  0.3959510000000  0.4845920000000 1.0
C      1  0.4998860000000  0.4473650000000  0.5501790000000 1.0
C      1  0.5733630000000  0.4991660000000  0.5189100000000 1.0
C      1  0.5047430000000  0.4966310000000  0.5079090000000 1.0
C      1  0.4668160000000  0.5092720000000  0.5684480000000 1.0
C      1  0.5400080000000  0.5552250000000  0.5850360000000 1.0
C      1  0.4656010000000  0.4323870000000  0.5178150000000 1.0
END
