TITL C-627108-131-1226 -18596.9994438831 125000 -965.833303345932 0 0 160 (C1) n - 1
REM
REM in /home/nfs/bkarasulu/CARBON/AIRSS/Generating-Clusters/LCBOP/Only-C1/SD-CG/FIRE-CG
REM
REM
REM
REM
REM
REM ./C.cell (11c1c37f851c82e70ff6c80c92926a4b)
REM AIRSS Version 0.9.1 bugfix July 2018 build 013d7b7c2542+ Fri, 06 Jul 2018 19:26:36 +0100
REM compiler GCC version 9.2.1 20190827 (Red Hat 9.2.1-1)
REM options -cpp -mtune=generic -march=x86-64 -g -O0 -fpre-include=/usr/include/finclude/math-vector-fortran.h
REM seed -1299150584 900473121 -869611293 -999181257 832260862 -693295472 755596777 1593019292 2012906629 -1592881641 -1812831469 -2083471955 -2002984960 1153611185 -1147209053 425478742 583950921 988197858 1047385552 1573405766 -1066987807 -807776543 -2035078056 -1459909869 207594104 905722326 1768814976 904502604 1999906787 -1685913779 -1431364884 -1517998295 -123959931
REM
CELL 1.54180   50.00000   50.00000   50.00000   90.00000   90.00000   90.00000
LATT -1
SFAC C  
C      1  0.4813780000000  0.3904930000000  0.4841920000000 1.0
C      1  0.5151870000000  0.4258320000000  0.5621590000000 1.0
C      1  0.4329660000000  0.5217860000000  0.4805210000000 1.0
C      1  0.4935330000000  0.4731280000000  0.5109750000000 1.0
C      1  0.4394630000000  0.4961790000000  0.5180510000000 1.0
C      1  0.4824090000000  0.6000020000000  0.4809470000000 1.0
C      1  0.4402300000000  0.5644180000000  0.5684030000000 1.0
C      1  0.5538830000000  0.5334290000000  0.4651440000000 1.0
C      1  0.6385600000000  0.4597640000000  0.5332330000000 1.0
C      1  0.5388110000000  0.5296080000000  0.5956950000000 1.0
C      1  0.5046450000000  0.4731330000000  0.5576090000000 1.0
C      1  0.4202080000000  0.5196140000000  0.5693980000000 1.0
C      1  0.4081100000000  0.4358850000000  0.4906640000000 1.0
C      1  0.4602790000000  0.3925310000000  0.5304910000000 1.0
C      1  0.5083900000000  0.3994300000000  0.4954240000000 1.0
C      1  0.4474860000000  0.5228020000000  0.4183400000000 1.0
C      1  0.4957850000000  0.4058930000000  0.5649770000000 1.0
C      1  0.4932370000000  0.5400370000000  0.4903300000000 1.0
C      1  0.4919480000000  0.4901060000000  0.4883720000000 1.0
C      1  0.5042280000000  0.5146080000000  0.4937280000000 1.0
C      1  0.4672390000000  0.6070470000000  0.5578800000000 1.0
C      1  0.4163730000000  0.5419310000000  0.5235010000000 1.0
C      1  0.5825880000000  0.4005290000000  0.4779740000000 1.0
C      1  0.5168350000000  0.5462570000000  0.4403680000000 1.0
C      1  0.5080790000000  0.4774080000000  0.6107850000000 1.0
C      1  0.5660340000000  0.5698420000000  0.5723350000000 1.0
C      1  0.5542740000000  0.4870710000000  0.4241240000000 1.0
C      1  0.5142410000000  0.5182160000000  0.4411750000000 1.0
C      1  0.5399410000000  0.4579380000000  0.4734150000000 1.0
C      1  0.4752840000000  0.4552660000000  0.5234970000000 1.0
C      1  0.5857410000000  0.4519770000000  0.4201580000000 1.0
C      1  0.5273840000000  0.4442250000000  0.4946920000000 1.0
C      1  0.4778970000000  0.4835280000000  0.3989120000000 1.0
C      1  0.6036950000000  0.5564020000000  0.4796610000000 1.0
C      1  0.5345060000000  0.5897050000000  0.5346180000000 1.0
C      1  0.4654850000000  0.5793990000000  0.4861390000000 1.0
C      1  0.5653540000000  0.5279830000000  0.6053580000000 1.0
C      1  0.4931680000000  0.5743400000000  0.5216070000000 1.0
C      1  0.4510840000000  0.5371990000000  0.4663040000000 1.0
C      1  0.5726850000000  0.5972630000000  0.4824410000000 1.0
C      1  0.5507910000000  0.4791340000000  0.5789220000000 1.0
C      1  0.4753450000000  0.5109320000000  0.4128420000000 1.0
C      1  0.5086580000000  0.5574010000000  0.5063830000000 1.0
C      1  0.4601520000000  0.4646090000000  0.5449860000000 1.0
C      1  0.5057460000000  0.4276840000000  0.4894260000000 1.0
C      1  0.3808130000000  0.5104920000000  0.4429610000000 1.0
C      1  0.5153290000000  0.3821570000000  0.4473200000000 1.0
C      1  0.5295970000000  0.4650950000000  0.5940380000000 1.0
C      1  0.4622490000000  0.5146850000000  0.5542380000000 1.0
C      1  0.4936860000000  0.5535230000000  0.5917820000000 1.0
C      1  0.3756040000000  0.5386660000000  0.4373110000000 1.0
C      1  0.4584830000000  0.5884010000000  0.4343730000000 1.0
C      1  0.5332150000000  0.5163140000000  0.5078300000000 1.0
C      1  0.5107250000000  0.4456610000000  0.4068000000000 1.0
C      1  0.3838160000000  0.4831000000000  0.4903850000000 1.0
C      1  0.4131590000000  0.5772140000000  0.4870240000000 1.0
C      1  0.5271920000000  0.5175790000000  0.3946740000000 1.0
C      1  0.5484420000000  0.5644910000000  0.5297700000000 1.0
C      1  0.4540580000000  0.4918160000000  0.5413710000000 1.0
C      1  0.5391990000000  0.4426110000000  0.4486040000000 1.0
C      1  0.4118240000000  0.5732720000000  0.4577380000000 1.0
C      1  0.5720260000000  0.5253630000000  0.4421230000000 1.0
C      1  0.5428710000000  0.5740290000000  0.5865850000000 1.0
C      1  0.5016110000000  0.5956720000000  0.4604950000000 1.0
C      1  0.5375530000000  0.4960670000000  0.5303660000000 1.0
C      1  0.4488210000000  0.5209270000000  0.5790650000000 1.0
C      1  0.4231680000000  0.5084570000000  0.4129010000000 1.0
C      1  0.5392000000000  0.3943240000000  0.4440980000000 1.0
C      1  0.3860290000000  0.5385620000000  0.4825430000000 1.0
C      1  0.5032250000000  0.4706300000000  0.3937060000000 1.0
C      1  0.5746300000000  0.4124270000000  0.5289390000000 1.0
C      1  0.5810910000000  0.4220230000000  0.4587430000000 1.0
C      1  0.6009220000000  0.5241890000000  0.5158760000000 1.0
C      1  0.4859570000000  0.4603710000000  0.6173290000000 1.0
C      1  0.5986100000000  0.5271510000000  0.5661500000000 1.0
C      1  0.4704550000000  0.5371260000000  0.5394330000000 1.0
C      1  0.5375240000000  0.5238130000000  0.5671710000000 1.0
C      1  0.4639880000000  0.4491510000000  0.6061850000000 1.0
C      1  0.4358390000000  0.5709080000000  0.4398830000000 1.0
C      1  0.4886220000000  0.5068910000000  0.4403830000000 1.0
C      1  0.5174210000000  0.4740220000000  0.5301160000000 1.0
C      1  0.5708730000000  0.5591680000000  0.5457620000000 1.0
C      1  0.4532790000000  0.4027780000000  0.5058880000000 1.0
C      1  0.4590520000000  0.5480190000000  0.5861910000000 1.0
C      1  0.5952260000000  0.4593020000000  0.5106450000000 1.0
C      1  0.5555480000000  0.5285900000000  0.4117390000000 1.0
C      1  0.4019630000000  0.4729140000000  0.5414450000000 1.0
C      1  0.5365700000000  0.3923160000000  0.5042280000000 1.0
C      1  0.4943300000000  0.6141440000000  0.5536710000000 1.0
C      1  0.3884490000000  0.5552350000000  0.4564380000000 1.0
C      1  0.4077880000000  0.4945260000000  0.5611620000000 1.0
C      1  0.4295130000000  0.4190170000000  0.4288750000000 1.0
C      1  0.5470420000000  0.4054360000000  0.5284200000000 1.0
C      1  0.4556390000000  0.5821010000000  0.5522740000000 1.0
C      1  0.5015560000000  0.4619920000000  0.4493230000000 1.0
C      1  0.4451970000000  0.5431820000000  0.4388710000000 1.0
C      1  0.5000720000000  0.5024920000000  0.5990890000000 1.0
C      1  0.5141180000000  0.5747930000000  0.5798550000000 1.0
C      1  0.5312080000000  0.4258840000000  0.5390660000000 1.0
C      1  0.4258090000000  0.4270540000000  0.5112150000000 1.0
C      1  0.5605120000000  0.3871090000000  0.4882010000000 1.0
C      1  0.5502120000000  0.5099070000000  0.4839150000000 1.0
C      1  0.4308840000000  0.5210310000000  0.5089300000000 1.0
C      1  0.5560350000000  0.4807070000000  0.4820340000000 1.0
C      1  0.6171220000000  0.4729910000000  0.5227400000000 1.0
C      1  0.5449410000000  0.5987880000000  0.4867850000000 1.0
C      1  0.4876350000000  0.5865580000000  0.4364930000000 1.0
C      1  0.5885770000000  0.4339280000000  0.5208320000000 1.0
C      1  0.5936350000000  0.5810700000000  0.4793570000000 1.0
C      1  0.4932110000000  0.4238250000000  0.4145950000000 1.0
C      1  0.5350860000000  0.6082260000000  0.5120960000000 1.0
C      1  0.4530520000000  0.4201140000000  0.4423240000000 1.0
C      1  0.4757110000000  0.3937770000000  0.5522040000000 1.0
C      1  0.4575120000000  0.4737500000000  0.4531470000000 1.0
C      1  0.3925920000000  0.4566020000000  0.4813650000000 1.0
C      1  0.5011690000000  0.5644250000000  0.4255660000000 1.0
C      1  0.5906480000000  0.5383840000000  0.5404950000000 1.0
C      1  0.4716140000000  0.5650050000000  0.5360030000000 1.0
C      1  0.5306400000000  0.4488100000000  0.5223180000000 1.0
C      1  0.5240070000000  0.4897030000000  0.3857860000000 1.0
C      1  0.6155510000000  0.5007920000000  0.5225660000000 1.0
C      1  0.5885930000000  0.5253610000000  0.5913550000000 1.0
C      1  0.4317290000000  0.4790690000000  0.4537160000000 1.0
C      1  0.5209520000000  0.6322590000000  0.5168340000000 1.0
C      1  0.5140080000000  0.5930220000000  0.5566750000000 1.0
C      1  0.4374860000000  0.4748480000000  0.5012490000000 1.0
C      1  0.5106120000000  0.5212630000000  0.5578860000000 1.0
C      1  0.5947690000000  0.5091260000000  0.4588690000000 1.0
C      1  0.4195850000000  0.5454950000000  0.5530590000000 1.0
C      1  0.5931990000000  0.4482270000000  0.4479500000000 1.0
C      1  0.5535780000000  0.4180710000000  0.4492600000000 1.0
C      1  0.5360410000000  0.4471560000000  0.4200310000000 1.0
C      1  0.3994110000000  0.5003610000000  0.4236730000000 1.0
C      1  0.4991280000000  0.5267490000000  0.3975900000000 1.0
C      1  0.5137740000000  0.4510710000000  0.5739320000000 1.0
C      1  0.4188180000000  0.4469000000000  0.5402070000000 1.0
C      1  0.3805960000000  0.5083310000000  0.4740850000000 1.0
C      1  0.5097660000000  0.5298780000000  0.6036970000000 1.0
C      1  0.5282750000000  0.5844520000000  0.4680580000000 1.0
C      1  0.5963560000000  0.4745880000000  0.4629250000000 1.0
C      1  0.5350470000000  0.4998880000000  0.4375070000000 1.0
C      1  0.6008370000000  0.5291750000000  0.4864810000000 1.0
C      1  0.4414140000000  0.4482110000000  0.5585520000000 1.0
C      1  0.4774060000000  0.4083870000000  0.4335130000000 1.0
C      1  0.4697580000000  0.5517380000000  0.4806430000000 1.0
C      1  0.5333440000000  0.5459740000000  0.5151310000000 1.0
C      1  0.5828860000000  0.4720470000000  0.4884590000000 1.0
C      1  0.3857850000000  0.4820790000000  0.5192500000000 1.0
C      1  0.4573320000000  0.4322490000000  0.4672830000000 1.0
C      1  0.5600890000000  0.4618720000000  0.4133870000000 1.0
C      1  0.4883160000000  0.3897500000000  0.4535980000000 1.0
C      1  0.4223410000000  0.5006040000000  0.4660550000000 1.0
C      1  0.4800580000000  0.4358640000000  0.4812020000000 1.0
C      1  0.4011450000000  0.5552190000000  0.5027570000000 1.0
C      1  0.5024760000000  0.6351660000000  0.5365210000000 1.0
C      1  0.4985380000000  0.4982450000000  0.5699720000000 1.0
C      1  0.4841700000000  0.4841130000000  0.4594630000000 1.0
C      1  0.5355620000000  0.5567170000000  0.4596870000000 1.0
C      1  0.4472580000000  0.4436240000000  0.5857110000000 1.0
C      1  0.5497200000000  0.4992560000000  0.5574030000000 1.0
END
