TITL C-627110-360-1751 0.0155632458125034 125000 -1196.64662356854 0 0 193 (C1) n - 1
REM
REM in /home/nfs/bkarasulu/CARBON/AIRSS/Generating-Clusters/LCBOP/Only-C1/SD-CG/FIRE-CG
REM
REM
REM
REM
REM
REM ./C.cell (11c1c37f851c82e70ff6c80c92926a4b)
REM AIRSS Version 0.9.1 bugfix July 2018 build 013d7b7c2542+ Fri, 06 Jul 2018 19:26:36 +0100
REM compiler GCC version 9.2.1 20190827 (Red Hat 9.2.1-1)
REM options -cpp -mtune=generic -march=x86-64 -g -O0 -fpre-include=/usr/include/finclude/math-vector-fortran.h
REM seed -951713750 783764370 -2044411209 1470005373 -71243947 933536448 2033645096 -35971390 -609331549 2119206211 -1867526434 -1081466291 -396130487 1732055917 1008616514 -319761819 144812553 1290548223 991407128 1091380532 -132998942 176986693 -1582598710 1518652352 -1304147846 1618951102 1975300791 -1154435235 -1776302578 2073844873 -1910366649 -667738410 270126174
REM
CELL 1.54180   50.00000   50.00000   50.00000   90.00000   90.00000   90.00000
LATT -1
SFAC C  
C      1  0.4676810000000  0.5425040000000  0.4285130000000 1.0
C      1  0.3366870000000  0.4520640000000  0.6548020000000 1.0
C      1  0.4797160000000  0.4596360000000  0.3823120000000 1.0
C      1  0.4497170000000  0.5100310000000  0.4546830000000 1.0
C      1  0.5794980000000  0.5703460000000  0.4558670000000 1.0
C      1  0.6090050000000  0.5091120000000  0.4892640000000 1.0
C      1  0.5434850000000  0.5586180000000  0.4082820000000 1.0
C      1  0.5047900000000  0.4672890000000  0.3711630000000 1.0
C      1  0.4522910000000  0.5891580000000  0.6208550000000 1.0
C      1  0.5072230000000  0.4041710000000  0.5391060000000 1.0
C      1  0.6393560000000  0.4800270000000  0.5183330000000 1.0
C      1  0.5833430000000  0.4837310000000  0.5728190000000 1.0
C      1  0.5181570000000  0.4287780000000  0.4085310000000 1.0
C      1  0.5200260000000  0.4999700000000  0.5193750000000 1.0
C      1  0.5959730000000  0.4733290000000  0.4160350000000 1.0
C      1  0.3870280000000  0.4494540000000  0.5338750000000 1.0
C      1  0.3771050000000  0.5740490000000  0.4732820000000 1.0
C      1  0.4634900000000  0.6057170000000  0.5552930000000 1.0
C      1  0.3834030000000  0.5509700000000  0.4301990000000 1.0
C      1  0.4844540000000  0.6060260000000  0.4813140000000 1.0
C      1  0.5526180000000  0.4824550000000  0.4897350000000 1.0
C      1  0.5485150000000  0.4595880000000  0.4201280000000 1.0
C      1  0.5265940000000  0.4495290000000  0.3797540000000 1.0
C      1  0.4264860000000  0.4726320000000  0.4677840000000 1.0
C      1  0.6428210000000  0.4872560000000  0.5664620000000 1.0
C      1  0.6037640000000  0.5513540000000  0.5266460000000 1.0
C      1  0.4760800000000  0.6051440000000  0.4528410000000 1.0
C      1  0.4445580000000  0.5254620000000  0.4318860000000 1.0
C      1  0.4868370000000  0.5448650000000  0.4517870000000 1.0
C      1  0.5939530000000  0.5197750000000  0.4119700000000 1.0
C      1  0.4193020000000  0.5101860000000  0.4965050000000 1.0
C      1  0.5533690000000  0.4426200000000  0.5166120000000 1.0
C      1  0.4984710000000  0.4671210000000  0.4270020000000 1.0
C      1  0.4700110000000  0.5486450000000  0.6013910000000 1.0
C      1  0.5328400000000  0.5043580000000  0.6049050000000 1.0
C      1  0.6389600000000  0.4707930000000  0.4441270000000 1.0
C      1  0.5978470000000  0.5624300000000  0.4995360000000 1.0
C      1  0.5730720000000  0.4688310000000  0.4358430000000 1.0
C      1  0.5550720000000  0.5040680000000  0.4724970000000 1.0
C      1  0.4534910000000  0.4734870000000  0.5428860000000 1.0
C      1  0.5648440000000  0.4976770000000  0.4442960000000 1.0
C      1  0.5423780000000  0.5095290000000  0.3966570000000 1.0
C      1  0.4967260000000  0.4957660000000  0.5050360000000 1.0
C      1  0.5194230000000  0.5500960000000  0.6124710000000 1.0
C      1  0.4100250000000  0.4516490000000  0.5508240000000 1.0
C      1  0.5166530000000  0.5930470000000  0.4182350000000 1.0
C      1  0.5646960000000  0.5451050000000  0.4484610000000 1.0
C      1  0.4915490000000  0.6073650000000  0.5631600000000 1.0
C      1  0.4277240000000  0.5760160000000  0.5297390000000 1.0
C      1  0.4710260000000  0.4530660000000  0.5348740000000 1.0
C      1  0.5158840000000  0.5748190000000  0.5977160000000 1.0
C      1  0.5233060000000  0.4363740000000  0.4807140000000 1.0
C      1  0.5883500000000  0.4947890000000  0.3981790000000 1.0
C      1  0.5011270000000  0.4400180000000  0.6023780000000 1.0
C      1  0.5211950000000  0.3825600000000  0.4939110000000 1.0
C      1  0.5967230000000  0.5737160000000  0.5437730000000 1.0
C      1  0.4865790000000  0.4412820000000  0.5542250000000 1.0
C      1  0.4769760000000  0.5108240000000  0.5696300000000 1.0
C      1  0.4082380000000  0.4599410000000  0.4138750000000 1.0
C      1  0.3797240000000  0.4426200000000  0.6261170000000 1.0
C      1  0.4007480000000  0.5947670000000  0.4367520000000 1.0
C      1  0.5134160000000  0.4299790000000  0.5548460000000 1.0
C      1  0.5420570000000  0.6118600000000  0.5060380000000 1.0
C      1  0.5656320000000  0.4628540000000  0.5806720000000 1.0
C      1  0.4856970000000  0.3934950000000  0.4330630000000 1.0
C      1  0.5851640000000  0.5225610000000  0.4408890000000 1.0
C      1  0.5167700000000  0.3809090000000  0.4659650000000 1.0
C      1  0.4254830000000  0.4029580000000  0.4945040000000 1.0
C      1  0.4927520000000  0.6025040000000  0.4303390000000 1.0
C      1  0.4988570000000  0.5606200000000  0.5023730000000 1.0
C      1  0.4487500000000  0.5952550000000  0.4543820000000 1.0
C      1  0.5602900000000  0.5941100000000  0.4565020000000 1.0
C      1  0.4112590000000  0.4858160000000  0.5146060000000 1.0
C      1  0.4932030000000  0.5387000000000  0.6197990000000 1.0
C      1  0.4779410000000  0.5429410000000  0.4848400000000 1.0
C      1  0.4751560000000  0.4272870000000  0.5961300000000 1.0
C      1  0.5554170000000  0.5331760000000  0.4749040000000 1.0
C      1  0.5116780000000  0.6179140000000  0.5461490000000 1.0
C      1  0.5576640000000  0.4024030000000  0.4477340000000 1.0
C      1  0.3868110000000  0.5715910000000  0.4981710000000 1.0
C      1  0.4495400000000  0.4316590000000  0.6069670000000 1.0
C      1  0.4712000000000  0.3648150000000  0.4744940000000 1.0
C      1  0.4399210000000  0.4108670000000  0.4495300000000 1.0
C      1  0.4548920000000  0.5627600000000  0.5281740000000 1.0
C      1  0.6016700000000  0.5574050000000  0.4719990000000 1.0
C      1  0.4786030000000  0.5446590000000  0.4023520000000 1.0
C      1  0.4771210000000  0.5167830000000  0.5040940000000 1.0
C      1  0.4740940000000  0.4956540000000  0.4544200000000 1.0
C      1  0.5638370000000  0.4197630000000  0.6014530000000 1.0
C      1  0.5466730000000  0.5809940000000  0.5450020000000 1.0
C      1  0.5844190000000  0.4823490000000  0.5239210000000 1.0
C      1  0.5618000000000  0.4904480000000  0.3863680000000 1.0
C      1  0.3915790000000  0.4624130000000  0.5082720000000 1.0
C      1  0.6221680000000  0.4672870000000  0.4236790000000 1.0
C      1  0.5502400000000  0.4636500000000  0.3904870000000 1.0
C      1  0.5699320000000  0.5710550000000  0.5045540000000 1.0
C      1  0.5347140000000  0.5231710000000  0.5216370000000 1.0
C      1  0.5532150000000  0.6078240000000  0.4813060000000 1.0
C      1  0.5397730000000  0.5497970000000  0.4346720000000 1.0
C      1  0.3984500000000  0.5326350000000  0.4179900000000 1.0
C      1  0.4759350000000  0.4485720000000  0.5076810000000 1.0
C      1  0.5719030000000  0.5821280000000  0.5319070000000 1.0
C      1  0.4968130000000  0.5624840000000  0.5547000000000 1.0
C      1  0.5193590000000  0.5703070000000  0.3984370000000 1.0
C      1  0.5821180000000  0.5091720000000  0.5865240000000 1.0
C      1  0.4835700000000  0.5649370000000  0.5290630000000 1.0
C      1  0.5119420000000  0.4042500000000  0.4232020000000 1.0
C      1  0.5411430000000  0.5055920000000  0.4252130000000 1.0
C      1  0.6632140000000  0.4649030000000  0.5178090000000 1.0
C      1  0.5412570000000  0.5984350000000  0.4343260000000 1.0
C      1  0.5798710000000  0.4476140000000  0.4550580000000 1.0
C      1  0.4493980000000  0.3934900000000  0.5377940000000 1.0
C      1  0.5748270000000  0.4212700000000  0.4555430000000 1.0
C      1  0.5693090000000  0.5295620000000  0.5999050000000 1.0
C      1  0.4604770000000  0.5164160000000  0.5273330000000 1.0
C      1  0.4466570000000  0.5371980000000  0.5389100000000 1.0
C      1  0.4476840000000  0.5542710000000  0.4848870000000 1.0
C      1  0.4886160000000  0.4713380000000  0.4947250000000 1.0
C      1  0.5076770000000  0.4961750000000  0.3680990000000 1.0
C      1  0.4987750000000  0.4853030000000  0.6328840000000 1.0
C      1  0.4605390000000  0.6030950000000  0.4986580000000 1.0
C      1  0.5166410000000  0.5111090000000  0.4373270000000 1.0
C      1  0.3580270000000  0.4473810000000  0.6405790000000 1.0
C      1  0.3839460000000  0.5741640000000  0.4459770000000 1.0
C      1  0.5508030000000  0.4398250000000  0.5879430000000 1.0
C      1  0.5251690000000  0.5462950000000  0.5066090000000 1.0
C      1  0.6049260000000  0.5274650000000  0.4658440000000 1.0
C      1  0.6420160000000  0.4799490000000  0.4689510000000 1.0
C      1  0.4044240000000  0.4444340000000  0.4378090000000 1.0
C      1  0.5984640000000  0.4795730000000  0.5483730000000 1.0
C      1  0.6268900000000  0.4820820000000  0.5446620000000 1.0
C      1  0.4897610000000  0.3766120000000  0.4569040000000 1.0
C      1  0.4166340000000  0.4875340000000  0.4141280000000 1.0
C      1  0.4452710000000  0.5834970000000  0.4811780000000 1.0
C      1  0.4294390000000  0.4070200000000  0.5536010000000 1.0
C      1  0.4960440000000  0.4930020000000  0.4376340000000 1.0
C      1  0.5909200000000  0.5076100000000  0.5118750000000 1.0
C      1  0.4559660000000  0.3660260000000  0.4967340000000 1.0
C      1  0.4037570000000  0.4479500000000  0.3895750000000 1.0
C      1  0.4128190000000  0.4184110000000  0.4468510000000 1.0
C      1  0.5042780000000  0.5458060000000  0.3898970000000 1.0
C      1  0.4247620000000  0.5732910000000  0.5590430000000 1.0
C      1  0.5182750000000  0.5191920000000  0.3826490000000 1.0
C      1  0.4602710000000  0.5063460000000  0.6144820000000 1.0
C      1  0.5639960000000  0.4680060000000  0.5111670000000 1.0
C      1  0.5154950000000  0.5420500000000  0.5593430000000 1.0
C      1  0.5230620000000  0.4360970000000  0.5819640000000 1.0
C      1  0.4769720000000  0.3978830000000  0.5480250000000 1.0
C      1  0.4237680000000  0.5399060000000  0.4974870000000 1.0
C      1  0.5491890000000  0.5540300000000  0.4934550000000 1.0
C      1  0.5419860000000  0.5311780000000  0.6096190000000 1.0
C      1  0.4567160000000  0.5745070000000  0.5977570000000 1.0
C      1  0.5424640000000  0.5525470000000  0.5539890000000 1.0
C      1  0.5037340000000  0.5868560000000  0.4887590000000 1.0
C      1  0.4267560000000  0.6005630000000  0.4383370000000 1.0
C      1  0.5331850000000  0.4270510000000  0.5046700000000 1.0
C      1  0.5004090000000  0.5830070000000  0.5748760000000 1.0
C      1  0.4404380000000  0.3846060000000  0.5118540000000 1.0
C      1  0.4097760000000  0.5621440000000  0.5112410000000 1.0
C      1  0.3938050000000  0.4450080000000  0.4854740000000 1.0
C      1  0.5569390000000  0.5320800000000  0.5383650000000 1.0
C      1  0.5049890000000  0.5165300000000  0.5677940000000 1.0
C      1  0.4597610000000  0.4042210000000  0.4308740000000 1.0
C      1  0.4026570000000  0.4173790000000  0.4828200000000 1.0
C      1  0.4013420000000  0.4379040000000  0.6115580000000 1.0
C      1  0.5024720000000  0.4606810000000  0.6220850000000 1.0
C      1  0.6851510000000  0.4508320000000  0.5176220000000 1.0
C      1  0.6310370000000  0.4907980000000  0.4924720000000 1.0
C      1  0.4236090000000  0.4334220000000  0.5953450000000 1.0
C      1  0.5846660000000  0.5293700000000  0.5289850000000 1.0
C      1  0.4256890000000  0.4733760000000  0.5384580000000 1.0
C      1  0.4291220000000  0.5001190000000  0.4712130000000 1.0
C      1  0.4585840000000  0.6106930000000  0.5265180000000 1.0
C      1  0.4467880000000  0.5870010000000  0.5726810000000 1.0
C      1  0.5212000000000  0.4982240000000  0.5814390000000 1.0
C      1  0.4856760000000  0.5101730000000  0.6287060000000 1.0
C      1  0.4503270000000  0.4586610000000  0.4716770000000 1.0
C      1  0.5311550000000  0.3943450000000  0.4443480000000 1.0
C      1  0.5140110000000  0.5386570000000  0.4443810000000 1.0
C      1  0.5326280000000  0.6042670000000  0.5326950000000 1.0
C      1  0.4773440000000  0.4593640000000  0.4093300000000 1.0
C      1  0.5215600000000  0.4024320000000  0.5141380000000 1.0
C      1  0.4734800000000  0.4197020000000  0.5687830000000 1.0
C      1  0.4734800000000  0.4742260000000  0.4713180000000 1.0
C      1  0.4274920000000  0.5435280000000  0.5603970000000 1.0
C      1  0.4471390000000  0.4130650000000  0.4775350000000 1.0
C      1  0.4028420000000  0.4592680000000  0.4622810000000 1.0
C      1  0.4202000000000  0.4304950000000  0.5668690000000 1.0
C      1  0.4209810000000  0.5158130000000  0.4180840000000 1.0
C      1  0.5217660000000  0.4507310000000  0.4271680000000 1.0
C      1  0.4612970000000  0.5223150000000  0.5905700000000 1.0
C      1  0.4653160000000  0.4979500000000  0.5477950000000 1.0
C      1  0.4581410000000  0.4363320000000  0.4878990000000 1.0
END
