TITL C-627110-360-1459 8.67482504429534 125000 -147.028686718019 0 0 27 (C1) n - 1
REM
REM in /home/nfs/bkarasulu/CARBON/AIRSS/Generating-Clusters/LCBOP/Only-C1/SD-CG/FIRE-CG
REM
REM
REM
REM
REM
REM ./C.cell (11c1c37f851c82e70ff6c80c92926a4b)
REM AIRSS Version 0.9.1 bugfix July 2018 build 013d7b7c2542+ Fri, 06 Jul 2018 19:26:36 +0100
REM compiler GCC version 9.2.1 20190827 (Red Hat 9.2.1-1)
REM options -cpp -mtune=generic -march=x86-64 -g -O0 -fpre-include=/usr/include/finclude/math-vector-fortran.h
REM seed 1622162806 1939073218 -1377773681 1362852446 -667565798 1825015951 -1621744957 -1993515549 -437343932 -1913264967 -241228944 745334908 2080025051 1965892499 -271250016 -1641780867 -2052165663 -311717491 -1145818116 108609033 -2030433852 -92817730 -700362904 -1635874348 740950832 1385808235 -1707541427 -1242903985 755319439 -1064036342 468877009 -1529009454 1275957233
REM
CELL 1.54180   50.00000   50.00000   50.00000   90.00000   90.00000   90.00000
LATT -1
SFAC C  
C      1  0.4566130000000  0.5048930000000  0.4660100000000 1.0
C      1  0.4307500000000  0.4474930000000  0.5032660000000 1.0
C      1  0.5523870000000  0.4979420000000  0.5099280000000 1.0
C      1  0.5092910000000  0.5542730000000  0.4692710000000 1.0
C      1  0.4620020000000  0.5305700000000  0.4563490000000 1.0
C      1  0.4646740000000  0.5264450000000  0.5324110000000 1.0
C      1  0.5315160000000  0.4469930000000  0.5162800000000 1.0
C      1  0.5175010000000  0.5233810000000  0.5321330000000 1.0
C      1  0.4786650000000  0.4503380000000  0.5052160000000 1.0
C      1  0.4435480000000  0.5437640000000  0.4410730000000 1.0
C      1  0.5583170000000  0.4024820000000  0.5309190000000 1.0
C      1  0.5667670000000  0.5060130000000  0.4874050000000 1.0
C      1  0.5451010000000  0.4711950000000  0.5132070000000 1.0
C      1  0.4384100000000  0.5247930000000  0.5293030000000 1.0
C      1  0.5446090000000  0.5170920000000  0.5294480000000 1.0
C      1  0.5453500000000  0.4239560000000  0.5238510000000 1.0
C      1  0.5039690000000  0.4460240000000  0.5117220000000 1.0
C      1  0.5633680000000  0.5289790000000  0.5454190000000 1.0
C      1  0.5905820000000  0.5245110000000  0.4443630000000 1.0
C      1  0.4540480000000  0.4597180000000  0.4958330000000 1.0
C      1  0.4536440000000  0.4819210000000  0.4788370000000 1.0
C      1  0.4128290000000  0.5209820000000  0.5235050000000 1.0
C      1  0.4864570000000  0.5426220000000  0.4625700000000 1.0
C      1  0.3881770000000  0.5161400000000  0.5165470000000 1.0
C      1  0.4911570000000  0.5259450000000  0.5330920000000 1.0
C      1  0.5311900000000  0.5665410000000  0.4763090000000 1.0
C      1  0.5790770000000  0.5149950000000  0.4657330000000 1.0
END
