TITL C-627110-360-38 -1180.21586608603 125000 -390.672923838018 0 0 66 (C1) n - 1
REM
REM in /home/nfs/bkarasulu/CARBON/AIRSS/Generating-Clusters/LCBOP/Only-C1/SD-CG/FIRE-CG
REM
REM
REM
REM
REM
REM ./C.cell (11c1c37f851c82e70ff6c80c92926a4b)
REM AIRSS Version 0.9.1 bugfix July 2018 build 013d7b7c2542+ Fri, 06 Jul 2018 19:26:36 +0100
REM compiler GCC version 9.2.1 20190827 (Red Hat 9.2.1-1)
REM options -cpp -mtune=generic -march=x86-64 -g -O0 -fpre-include=/usr/include/finclude/math-vector-fortran.h
REM seed 984390380 -665620220 476054814 1710600763 1620179007 1018172841 525039319 -521659490 -805286861 -91110619 1683398991 -123350774 -2085036000 222412246 565948658 1089663471 124019534 -1922729866 1483126238 282317430 743585838 1861879826 -1318652001 599615808 -1069114108 1441568579 -1672843514 1737703733 -335623963 912795412 -619046205 -2114753196 1476467059
REM
CELL 1.54180   50.00000   50.00000   50.00000   90.00000   90.00000   90.00000
LATT -1
SFAC C  
C      1  0.4698470000000  0.5455550000000  0.5532790000000 1.0
C      1  0.5343070000000  0.5131180000000  0.4304940000000 1.0
C      1  0.5419860000000  0.5263110000000  0.5261420000000 1.0
C      1  0.5702390000000  0.5322940000000  0.4703350000000 1.0
C      1  0.5744670000000  0.4687180000000  0.5557680000000 1.0
C      1  0.4862350000000  0.5641690000000  0.4548980000000 1.0
C      1  0.5091240000000  0.5269310000000  0.4838520000000 1.0
C      1  0.5641010000000  0.4433540000000  0.5024950000000 1.0
C      1  0.5190270000000  0.5199820000000  0.5102720000000 1.0
C      1  0.4624570000000  0.5758100000000  0.4576450000000 1.0
C      1  0.4819120000000  0.4585780000000  0.4487130000000 1.0
C      1  0.5536270000000  0.4886820000000  0.4874710000000 1.0
C      1  0.4616890000000  0.4075400000000  0.5118020000000 1.0
C      1  0.5122080000000  0.5225900000000  0.5635540000000 1.0
C      1  0.5349730000000  0.5639490000000  0.5540150000000 1.0
C      1  0.5806370000000  0.4293640000000  0.4858590000000 1.0
C      1  0.4927620000000  0.4816460000000  0.4322730000000 1.0
C      1  0.4569120000000  0.4709070000000  0.5463280000000 1.0
C      1  0.5665370000000  0.5042890000000  0.4668240000000 1.0
C      1  0.5005290000000  0.4987470000000  0.5502400000000 1.0
C      1  0.5468480000000  0.4663950000000  0.4419390000000 1.0
C      1  0.5050160000000  0.5445540000000  0.4602950000000 1.0
C      1  0.4859510000000  0.5032020000000  0.4507300000000 1.0
C      1  0.4504530000000  0.5267330000000  0.5648410000000 1.0
C      1  0.4182320000000  0.5082810000000  0.4994450000000 1.0
C      1  0.4314340000000  0.4853620000000  0.5508890000000 1.0
C      1  0.5483560000000  0.4291160000000  0.5460170000000 1.0
C      1  0.4993970000000  0.5019840000000  0.5220050000000 1.0
C      1  0.5187400000000  0.4265360000000  0.5067110000000 1.0
C      1  0.4588100000000  0.4677490000000  0.4644730000000 1.0
C      1  0.4619880000000  0.5289270000000  0.5082550000000 1.0
C      1  0.5352110000000  0.5353520000000  0.5523140000000 1.0
C      1  0.4379350000000  0.5036440000000  0.4413930000000 1.0
C      1  0.4159110000000  0.4816090000000  0.5021510000000 1.0
C      1  0.4657830000000  0.4824740000000  0.4887810000000 1.0
C      1  0.4617270000000  0.5165100000000  0.4445960000000 1.0
C      1  0.4274890000000  0.5547880000000  0.4859500000000 1.0
C      1  0.5483960000000  0.5503250000000  0.4669880000000 1.0
C      1  0.4646390000000  0.5051590000000  0.5796640000000 1.0
C      1  0.5062280000000  0.5662290000000  0.5142370000000 1.0
C      1  0.5681860000000  0.5287470000000  0.5190080000000 1.0
C      1  0.4711480000000  0.4335500000000  0.5090010000000 1.0
C      1  0.4387640000000  0.5726600000000  0.4695660000000 1.0
C      1  0.5056590000000  0.5014110000000  0.4718290000000 1.0
C      1  0.5768850000000  0.4796540000000  0.5312070000000 1.0
C      1  0.5665990000000  0.4717960000000  0.5061160000000 1.0
C      1  0.5139770000000  0.4953040000000  0.4174270000000 1.0
C      1  0.4763090000000  0.5490840000000  0.5241680000000 1.0
C      1  0.5551530000000  0.4950270000000  0.4414520000000 1.0
C      1  0.4295810000000  0.4593650000000  0.5092720000000 1.0
C      1  0.5438340000000  0.4304920000000  0.5181680000000 1.0
C      1  0.4280390000000  0.5124290000000  0.5544270000000 1.0
C      1  0.4743530000000  0.5025660000000  0.5072930000000 1.0
C      1  0.5264740000000  0.4822450000000  0.4788830000000 1.0
C      1  0.5015570000000  0.4452520000000  0.4652020000000 1.0
C      1  0.5298980000000  0.5397450000000  0.4458200000000 1.0
C      1  0.4363090000000  0.4778460000000  0.4501510000000 1.0
C      1  0.4928230000000  0.5425800000000  0.5703650000000 1.0
C      1  0.5615630000000  0.4459500000000  0.5624940000000 1.0
C      1  0.5318270000000  0.5642190000000  0.4895900000000 1.0
C      1  0.5193440000000  0.5778730000000  0.5365220000000 1.0
C      1  0.4774230000000  0.4858890000000  0.5618540000000 1.0
C      1  0.5268570000000  0.4585780000000  0.4618380000000 1.0
C      1  0.4547390000000  0.4536250000000  0.5226850000000 1.0
C      1  0.4349240000000  0.5311140000000  0.4989450000000 1.0
C      1  0.4956540000000  0.4355390000000  0.4927790000000 1.0
END
