TITL C-627107-135-1406 9645.29724792046 125000 -1081.86472383493 0 0 175 (C1) n - 1
REM
REM in /home/nfs/bkarasulu/CARBON/AIRSS/Generating-Clusters/LCBOP/Only-C1/SD-CG/FIRE-CG
REM
REM
REM
REM
REM
REM ./C.cell (11c1c37f851c82e70ff6c80c92926a4b)
REM AIRSS Version 0.9.1 bugfix July 2018 build 013d7b7c2542+ Fri, 06 Jul 2018 19:26:36 +0100
REM compiler GCC version 9.2.1 20190827 (Red Hat 9.2.1-1)
REM options -cpp -mtune=generic -march=x86-64 -g -O0 -fpre-include=/usr/include/finclude/math-vector-fortran.h
REM seed -1349883482 -1594177850 1658188463 97490300 1209403084 144765518 -615156191 1891888441 814405551 2116710065 527210102 -955132666 -1487996822 -621237062 1664455269 630191635 -392390525 1522103449 154040204 712648613 -1176443979 509862863 197500914 1683438340 1268294814 -2090711726 -908723927 -34326228 2135223731 2138936242 905365938 999693136 2107976478
REM
CELL 1.54180   50.00000   50.00000   50.00000   90.00000   90.00000   90.00000
LATT -1
SFAC C  
C      1  0.4090070000000  0.4212860000000  0.4831140000000 1.0
C      1  0.4672010000000  0.5983080000000  0.4702980000000 1.0
C      1  0.4932430000000  0.4738860000000  0.5486600000000 1.0
C      1  0.4992350000000  0.5574850000000  0.4814080000000 1.0
C      1  0.5562160000000  0.5203060000000  0.4098800000000 1.0
C      1  0.5857480000000  0.5739280000000  0.5519930000000 1.0
C      1  0.5626810000000  0.4784240000000  0.3607490000000 1.0
C      1  0.5289760000000  0.4893240000000  0.5210780000000 1.0
C      1  0.5059640000000  0.4850820000000  0.4764370000000 1.0
C      1  0.5056490000000  0.5102540000000  0.4015660000000 1.0
C      1  0.5137680000000  0.5188930000000  0.6008610000000 1.0
C      1  0.4865620000000  0.4297740000000  0.4886440000000 1.0
C      1  0.5746970000000  0.4763100000000  0.5233180000000 1.0
C      1  0.4348310000000  0.5647490000000  0.4602090000000 1.0
C      1  0.5088860000000  0.5499470000000  0.6039590000000 1.0
C      1  0.4395190000000  0.4873990000000  0.5231860000000 1.0
C      1  0.4735050000000  0.5056040000000  0.6234060000000 1.0
C      1  0.4373450000000  0.4593460000000  0.5157090000000 1.0
C      1  0.5107830000000  0.4106110000000  0.4459060000000 1.0
C      1  0.4663080000000  0.3743630000000  0.5441250000000 1.0
C      1  0.4572010000000  0.5536840000000  0.6075130000000 1.0
C      1  0.4086060000000  0.4482950000000  0.4024370000000 1.0
C      1  0.4747310000000  0.5929710000000  0.4990390000000 1.0
C      1  0.4595760000000  0.4317010000000  0.4725990000000 1.0
C      1  0.4211060000000  0.4672430000000  0.4184260000000 1.0
C      1  0.5541720000000  0.5991140000000  0.5797050000000 1.0
C      1  0.4785650000000  0.5972140000000  0.4439760000000 1.0
C      1  0.6109770000000  0.4346960000000  0.5044260000000 1.0
C      1  0.5213150000000  0.5553140000000  0.3985920000000 1.0
C      1  0.4366440000000  0.4746880000000  0.5667510000000 1.0
C      1  0.4840250000000  0.5464130000000  0.4601740000000 1.0
C      1  0.6084550000000  0.5251580000000  0.5017180000000 1.0
C      1  0.5040920000000  0.4972040000000  0.6217510000000 1.0
C      1  0.5316860000000  0.4427840000000  0.4754780000000 1.0
C      1  0.4954300000000  0.4309140000000  0.4068250000000 1.0
C      1  0.5955200000000  0.4348270000000  0.5288040000000 1.0
C      1  0.4890880000000  0.4510130000000  0.5337280000000 1.0
C      1  0.4963800000000  0.5078270000000  0.5792360000000 1.0
C      1  0.5082080000000  0.5782590000000  0.4090530000000 1.0
C      1  0.5977010000000  0.5682120000000  0.5252710000000 1.0
C      1  0.4576900000000  0.5211910000000  0.5536270000000 1.0
C      1  0.5461660000000  0.4695590000000  0.5965980000000 1.0
C      1  0.5293370000000  0.4854930000000  0.4931520000000 1.0
C      1  0.5052960000000  0.4446780000000  0.6050440000000 1.0
C      1  0.5036830000000  0.4949470000000  0.5319020000000 1.0
C      1  0.3830830000000  0.4970560000000  0.4715460000000 1.0
C      1  0.5591680000000  0.4008740000000  0.4699440000000 1.0
C      1  0.4036620000000  0.5935880000000  0.5096800000000 1.0
C      1  0.5656160000000  0.5301570000000  0.4847210000000 1.0
C      1  0.5651560000000  0.3986320000000  0.5194050000000 1.0
C      1  0.4261620000000  0.5068660000000  0.5066370000000 1.0
C      1  0.4411670000000  0.4843760000000  0.4043130000000 1.0
C      1  0.4125660000000  0.4673440000000  0.4467770000000 1.0
C      1  0.4609210000000  0.5583790000000  0.4198080000000 1.0
C      1  0.4494000000000  0.5687790000000  0.5555500000000 1.0
C      1  0.5926850000000  0.4594310000000  0.4399210000000 1.0
C      1  0.5255280000000  0.4771420000000  0.4330300000000 1.0
C      1  0.5456330000000  0.5440950000000  0.5003810000000 1.0
C      1  0.4160800000000  0.4209230000000  0.5379810000000 1.0
C      1  0.4928080000000  0.5144400000000  0.4266260000000 1.0
C      1  0.5246190000000  0.5984170000000  0.5455110000000 1.0
C      1  0.5812900000000  0.4848050000000  0.4969770000000 1.0
C      1  0.6153230000000  0.4522060000000  0.4559290000000 1.0
C      1  0.4805290000000  0.4860140000000  0.4928290000000 1.0
C      1  0.4269690000000  0.5087270000000  0.5997700000000 1.0
C      1  0.4127300000000  0.4312450000000  0.5644480000000 1.0
C      1  0.5875210000000  0.4850310000000  0.4262520000000 1.0
C      1  0.6053820000000  0.5390690000000  0.5266390000000 1.0
C      1  0.5627820000000  0.5180270000000  0.5361750000000 1.0
C      1  0.5425930000000  0.5201300000000  0.5915440000000 1.0
C      1  0.5513400000000  0.6006630000000  0.5322350000000 1.0
C      1  0.5249720000000  0.6000000000000  0.4156300000000 1.0
C      1  0.3898610000000  0.4571030000000  0.5296620000000 1.0
C      1  0.5530040000000  0.5125610000000  0.4656560000000 1.0
C      1  0.4054850000000  0.5220060000000  0.5518080000000 1.0
C      1  0.5375780000000  0.6139450000000  0.4344500000000 1.0
C      1  0.4587010000000  0.4757780000000  0.5862940000000 1.0
C      1  0.4449660000000  0.5402000000000  0.4033220000000 1.0
C      1  0.5598490000000  0.4261540000000  0.5626660000000 1.0
C      1  0.5354800000000  0.4158440000000  0.4297960000000 1.0
C      1  0.5486750000000  0.5418490000000  0.5730190000000 1.0
C      1  0.5699110000000  0.4442280000000  0.4480630000000 1.0
C      1  0.4450330000000  0.5124290000000  0.4120090000000 1.0
C      1  0.4382700000000  0.4138280000000  0.4831150000000 1.0
C      1  0.4117200000000  0.4594540000000  0.5591420000000 1.0
C      1  0.5540550000000  0.4920120000000  0.5332150000000 1.0
C      1  0.4505270000000  0.5652270000000  0.5839210000000 1.0
C      1  0.4092420000000  0.4933240000000  0.4608740000000 1.0
C      1  0.4385570000000  0.5906250000000  0.4717860000000 1.0
C      1  0.4448380000000  0.4958940000000  0.5488320000000 1.0
C      1  0.6216350000000  0.4521640000000  0.4839030000000 1.0
C      1  0.4852970000000  0.4815790000000  0.5746070000000 1.0
C      1  0.4992660000000  0.4252760000000  0.5873820000000 1.0
C      1  0.5858800000000  0.5807550000000  0.5002940000000 1.0
C      1  0.5415110000000  0.4500500000000  0.3930900000000 1.0
C      1  0.4118570000000  0.5177530000000  0.5783530000000 1.0
C      1  0.5527650000000  0.6133450000000  0.4843450000000 1.0
C      1  0.4806460000000  0.4618330000000  0.4400570000000 1.0
C      1  0.5287000000000  0.5279480000000  0.4596970000000 1.0
C      1  0.4797130000000  0.4539770000000  0.4123990000000 1.0
C      1  0.4513310000000  0.4936450000000  0.6076120000000 1.0
C      1  0.4498060000000  0.5937030000000  0.5426160000000 1.0
C      1  0.4079870000000  0.5242580000000  0.5225150000000 1.0
C      1  0.4307220000000  0.5488170000000  0.3816750000000 1.0
C      1  0.5004390000000  0.5439250000000  0.5472470000000 1.0
C      1  0.4318620000000  0.5007250000000  0.4781510000000 1.0
C      1  0.5035980000000  0.5293220000000  0.4467430000000 1.0
C      1  0.5561020000000  0.4851460000000  0.4783560000000 1.0
C      1  0.4814580000000  0.5797260000000  0.4201220000000 1.0
C      1  0.3969760000000  0.4297370000000  0.5170910000000 1.0
C      1  0.5616600000000  0.4509220000000  0.5791260000000 1.0
C      1  0.4583760000000  0.5530080000000  0.4487250000000 1.0
C      1  0.4600410000000  0.4584640000000  0.4595050000000 1.0
C      1  0.3916180000000  0.5713290000000  0.5189070000000 1.0
C      1  0.3930870000000  0.5442700000000  0.4805630000000 1.0
C      1  0.4407550000000  0.4306290000000  0.5255980000000 1.0
C      1  0.5655290000000  0.4913670000000  0.4070630000000 1.0
C      1  0.4862380000000  0.5671130000000  0.5037270000000 1.0
C      1  0.4098590000000  0.4476990000000  0.4701340000000 1.0
C      1  0.5287610000000  0.5455730000000  0.5502280000000 1.0
C      1  0.4836200000000  0.4564170000000  0.5058100000000 1.0
C      1  0.4659210000000  0.5093040000000  0.4307980000000 1.0
C      1  0.4112820000000  0.4180660000000  0.5879630000000 1.0
C      1  0.4100140000000  0.5522210000000  0.4614620000000 1.0
C      1  0.5774580000000  0.5349190000000  0.4281030000000 1.0
C      1  0.3943060000000  0.5451930000000  0.5087120000000 1.0
C      1  0.4544880000000  0.3830040000000  0.5216210000000 1.0
C      1  0.3703210000000  0.4893830000000  0.4940040000000 1.0
C      1  0.4559080000000  0.4838510000000  0.4748710000000 1.0
C      1  0.5195790000000  0.4686310000000  0.6105020000000 1.0
C      1  0.6283490000000  0.4783750000000  0.4931440000000 1.0
C      1  0.5921370000000  0.5385030000000  0.4833250000000 1.0
C      1  0.5871160000000  0.5283930000000  0.5466900000000 1.0
C      1  0.5694080000000  0.5965270000000  0.5553510000000 1.0
C      1  0.4819710000000  0.3859030000000  0.5627290000000 1.0
C      1  0.4989420000000  0.4112460000000  0.5114100000000 1.0
C      1  0.5292560000000  0.5278180000000  0.3998860000000 1.0
C      1  0.5858910000000  0.4629790000000  0.5679180000000 1.0
C      1  0.4683870000000  0.4740720000000  0.3953160000000 1.0
C      1  0.4900670000000  0.4094750000000  0.4260030000000 1.0
C      1  0.5254860000000  0.4313250000000  0.4064940000000 1.0
C      1  0.5906670000000  0.4606550000000  0.5399780000000 1.0
C      1  0.6077840000000  0.4971340000000  0.4967800000000 1.0
C      1  0.4892140000000  0.4926030000000  0.3854430000000 1.0
C      1  0.5565320000000  0.4731760000000  0.3869630000000 1.0
C      1  0.5209130000000  0.3952150000000  0.5030850000000 1.0
C      1  0.5127940000000  0.5744720000000  0.5924170000000 1.0
C      1  0.4476060000000  0.4071450000000  0.5094570000000 1.0
C      1  0.5042220000000  0.4749840000000  0.4498030000000 1.0
C      1  0.5090780000000  0.4273810000000  0.4688880000000 1.0
C      1  0.5458000000000  0.6186220000000  0.4592760000000 1.0
C      1  0.4939950000000  0.4114450000000  0.5632960000000 1.0
C      1  0.4857800000000  0.5089410000000  0.5137480000000 1.0
C      1  0.5818810000000  0.5599210000000  0.4446870000000 1.0
C      1  0.4670700000000  0.5343060000000  0.6239980000000 1.0
C      1  0.3739360000000  0.4758710000000  0.5169130000000 1.0
C      1  0.4206330000000  0.4619130000000  0.4927620000000 1.0
C      1  0.4518510000000  0.6002790000000  0.5155290000000 1.0
C      1  0.5252090000000  0.5476850000000  0.4815620000000 1.0
C      1  0.5260120000000  0.5928330000000  0.5749950000000 1.0
C      1  0.5565770000000  0.4962510000000  0.5960700000000 1.0
C      1  0.4842700000000  0.5266050000000  0.5639450000000 1.0
C      1  0.5900290000000  0.5657850000000  0.4735260000000 1.0
C      1  0.4960420000000  0.4238850000000  0.5377010000000 1.0
C      1  0.4285530000000  0.5985520000000  0.4979960000000 1.0
C      1  0.5960570000000  0.5119400000000  0.4340700000000 1.0
C      1  0.5487310000000  0.3959740000000  0.4965660000000 1.0
C      1  0.5767200000000  0.5490830000000  0.5652200000000 1.0
C      1  0.5443640000000  0.5381700000000  0.5273470000000 1.0
C      1  0.4816140000000  0.5454160000000  0.5230350000000 1.0
C      1  0.5595310000000  0.4171830000000  0.4454880000000 1.0
C      1  0.5746010000000  0.4169420000000  0.5385070000000 1.0
C      1  0.4544560000000  0.5458350000000  0.5383230000000 1.0
C      1  0.5537710000000  0.4579240000000  0.4666310000000 1.0
C      1  0.5631130000000  0.5986570000000  0.5058330000000 1.0
END
