TITL C-627112-676-1593 2.45442199149662e-08 125000 -521.356153085521 0 0 87 (C1) n - 1
REM
REM in /home/nfs/bkarasulu/CARBON/AIRSS/Generating-Clusters/LCBOP/Only-C1/SD-CG/FIRE-CG
REM
REM
REM
REM
REM
REM ./C.cell (11c1c37f851c82e70ff6c80c92926a4b)
REM AIRSS Version 0.9.1 bugfix July 2018 build 013d7b7c2542+ Fri, 06 Jul 2018 19:26:36 +0100
REM compiler GCC version 9.2.1 20190827 (Red Hat 9.2.1-1)
REM options -cpp -mtune=generic -march=x86-64 -g -O0 -fpre-include=/usr/include/finclude/math-vector-fortran.h
REM seed 590126697 1389022756 -881549034 -1648177960 433504682 1422603192 823542549 1977593468 -1879449341 -896391743 -261577973 -1389707391 2037636716 1815198667 -882614994 276246119 -710380768 -68476042 -1143561314 -1856304357 -78627657 -773795415 150345508 921343711 -809190582 -712044452 732623970 86033778 1782936829 1986099742 -55131458 -1623137679 -1758706108
REM
CELL 1.54180   50.00000   50.00000   50.00000   90.00000   90.00000   90.00000
LATT -1
SFAC C  
C      1  0.5345290000000  0.4225090000000  0.5484740000000 1.0
C      1  0.5631420000000  0.4317990000000  0.5008940000000 1.0
C      1  0.5370510000000  0.4461890000000  0.4357550000000 1.0
C      1  0.5040180000000  0.5543580000000  0.5560740000000 1.0
C      1  0.4399660000000  0.5195860000000  0.5995550000000 1.0
C      1  0.5898800000000  0.5425690000000  0.5402140000000 1.0
C      1  0.4968100000000  0.4468810000000  0.5774060000000 1.0
C      1  0.5170600000000  0.4276300000000  0.4974790000000 1.0
C      1  0.5845540000000  0.4476110000000  0.4904770000000 1.0
C      1  0.4373480000000  0.4773450000000  0.5489630000000 1.0
C      1  0.5332160000000  0.4531310000000  0.4103710000000 1.0
C      1  0.4980710000000  0.5277380000000  0.5661260000000 1.0
C      1  0.5330480000000  0.4678790000000  0.5291830000000 1.0
C      1  0.4518800000000  0.4552610000000  0.5356930000000 1.0
C      1  0.4869090000000  0.5115410000000  0.5879280000000 1.0
C      1  0.5370120000000  0.5126740000000  0.5078380000000 1.0
C      1  0.4930160000000  0.5494160000000  0.3940960000000 1.0
C      1  0.5880490000000  0.5250090000000  0.5174870000000 1.0
C      1  0.4705060000000  0.5615000000000  0.4967100000000 1.0
C      1  0.4066550000000  0.4891840000000  0.4685000000000 1.0
C      1  0.4349440000000  0.5014370000000  0.5304550000000 1.0
C      1  0.5027090000000  0.5573230000000  0.4413330000000 1.0
C      1  0.5493690000000  0.5726170000000  0.5503980000000 1.0
C      1  0.5602020000000  0.4779800000000  0.5243700000000 1.0
C      1  0.4691000000000  0.5001490000000  0.4732970000000 1.0
C      1  0.5215410000000  0.5729280000000  0.5106730000000 1.0
C      1  0.4263170000000  0.5580590000000  0.4554040000000 1.0
C      1  0.5209830000000  0.4791330000000  0.5531950000000 1.0
C      1  0.4149680000000  0.5151970000000  0.4282550000000 1.0
C      1  0.5625420000000  0.5572800000000  0.4908560000000 1.0
C      1  0.4615950000000  0.5097400000000  0.5226620000000 1.0
C      1  0.4517690000000  0.4784130000000  0.5755940000000 1.0
C      1  0.5142120000000  0.4536400000000  0.5105030000000 1.0
C      1  0.4963410000000  0.4091240000000  0.5027150000000 1.0
C      1  0.3756280000000  0.4880080000000  0.5057870000000 1.0
C      1  0.4320530000000  0.4769150000000  0.4628570000000 1.0
C      1  0.6045440000000  0.5394930000000  0.4740930000000 1.0
C      1  0.4223960000000  0.5417140000000  0.5028160000000 1.0
C      1  0.4772720000000  0.4693290000000  0.5299540000000 1.0
C      1  0.5506920000000  0.5520840000000  0.4436230000000 1.0
C      1  0.4866820000000  0.4089040000000  0.5491130000000 1.0
C      1  0.5076690000000  0.5429870000000  0.4164310000000 1.0
C      1  0.4717790000000  0.5769850000000  0.4730650000000 1.0
C      1  0.4640770000000  0.4464750000000  0.4928690000000 1.0
C      1  0.5848160000000  0.5397370000000  0.4930340000000 1.0
C      1  0.4747870000000  0.5615760000000  0.4487940000000 1.0
C      1  0.5819670000000  0.4872470000000  0.4548990000000 1.0
C      1  0.5514620000000  0.5265700000000  0.4313890000000 1.0
C      1  0.5884820000000  0.4676140000000  0.4724080000000 1.0
C      1  0.5370900000000  0.4532020000000  0.4628560000000 1.0
C      1  0.4509420000000  0.4965770000000  0.4526870000000 1.0
C      1  0.3971250000000  0.5032070000000  0.4453630000000 1.0
C      1  0.5135620000000  0.4699190000000  0.5789130000000 1.0
C      1  0.5261330000000  0.5059020000000  0.4827980000000 1.0
C      1  0.5076610000000  0.5058530000000  0.5464370000000 1.0
C      1  0.5264270000000  0.5010050000000  0.3975370000000 1.0
C      1  0.5075370000000  0.5268840000000  0.4779920000000 1.0
C      1  0.5545040000000  0.4240060000000  0.5286680000000 1.0
C      1  0.5052950000000  0.4909760000000  0.5966640000000 1.0
C      1  0.5285390000000  0.4745730000000  0.3952590000000 1.0
C      1  0.5225890000000  0.5699180000000  0.5394620000000 1.0
C      1  0.4688950000000  0.4548580000000  0.5814330000000 1.0
C      1  0.5405280000000  0.4320980000000  0.4825850000000 1.0
C      1  0.5073400000000  0.4247520000000  0.5610170000000 1.0
C      1  0.4819720000000  0.4961620000000  0.5358410000000 1.0
C      1  0.5275760000000  0.5627360000000  0.4577770000000 1.0
C      1  0.4445010000000  0.4543580000000  0.4742780000000 1.0
C      1  0.4873520000000  0.4610170000000  0.5045760000000 1.0
C      1  0.5355080000000  0.5666420000000  0.4862470000000 1.0
C      1  0.5314170000000  0.5185410000000  0.5344310000000 1.0
C      1  0.4758070000000  0.4115770000000  0.5230920000000 1.0
C      1  0.4690700000000  0.5152420000000  0.4964750000000 1.0
C      1  0.4162960000000  0.5139720000000  0.5116340000000 1.0
C      1  0.5691120000000  0.5060990000000  0.4403150000000 1.0
C      1  0.4498710000000  0.5464870000000  0.4428830000000 1.0
C      1  0.5304940000000  0.4805330000000  0.4703910000000 1.0
C      1  0.4590000000000  0.5036670000000  0.5879910000000 1.0
C      1  0.4552310000000  0.4318380000000  0.5176920000000 1.0
C      1  0.5792060000000  0.4975680000000  0.5208890000000 1.0
C      1  0.4456500000000  0.5571490000000  0.5108230000000 1.0
C      1  0.5495350000000  0.5267820000000  0.5543680000000 1.0
C      1  0.4857690000000  0.5376300000000  0.4933140000000 1.0
C      1  0.4125950000000  0.5513860000000  0.4778570000000 1.0
C      1  0.5284990000000  0.5230410000000  0.4144850000000 1.0
C      1  0.4425320000000  0.5187300000000  0.4363010000000 1.0
C      1  0.3993640000000  0.4969930000000  0.4952960000000 1.0
C      1  0.5658610000000  0.5496570000000  0.5533040000000 1.0
END
