TITL C-627106-156-1976 8.80239084639958 125000 -188.650412614404 0 0 33 (C1) n - 1
REM
REM in /home/nfs/bkarasulu/CARBON/AIRSS/Generating-Clusters/LCBOP/Only-C1/SD-CG/FIRE-CG
REM
REM
REM
REM
REM
REM ./C.cell (11c1c37f851c82e70ff6c80c92926a4b)
REM AIRSS Version 0.9.1 bugfix July 2018 build 013d7b7c2542+ Fri, 06 Jul 2018 19:26:36 +0100
REM compiler GCC version 9.2.1 20190827 (Red Hat 9.2.1-1)
REM options -cpp -mtune=generic -march=x86-64 -g -O0 -fpre-include=/usr/include/finclude/math-vector-fortran.h
REM seed -639619776 2045958197 -1538261469 -1454118910 1680588054 161503939 224539495 340700875 -60075483 -1929925565 -1567601985 -2144158240 2136914792 1776898240 -586920545 -2066583890 1286367250 -2052534851 -103033811 1060580277 -469068337 -339095735 1819328347 1290083804 350383991 -1158611798 -1602857168 642924392 -23769087 -1404491346 72341503 332983569 1888330114
REM
CELL 1.54180   50.00000   50.00000   50.00000   90.00000   90.00000   90.00000
LATT -1
SFAC C  
C      1  0.4768030000000  0.5425660000000  0.5179920000000 1.0
C      1  0.5436740000000  0.4456430000000  0.5039960000000 1.0
C      1  0.5616730000000  0.4292040000000  0.4935870000000 1.0
C      1  0.5090680000000  0.4808330000000  0.5231910000000 1.0
C      1  0.5411460000000  0.5359770000000  0.5333560000000 1.0
C      1  0.5578300000000  0.5578350000000  0.5389460000000 1.0
C      1  0.5885880000000  0.5992570000000  0.5489910000000 1.0
C      1  0.4757160000000  0.5033290000000  0.4715000000000 1.0
C      1  0.4882940000000  0.4964830000000  0.5332490000000 1.0
C      1  0.5592630000000  0.5151080000000  0.4932730000000 1.0
C      1  0.4212200000000  0.4413220000000  0.3346080000000 1.0
C      1  0.5280760000000  0.5236140000000  0.5552110000000 1.0
C      1  0.5272560000000  0.5230850000000  0.6035190000000 1.0
C      1  0.5794130000000  0.4130910000000  0.4833260000000 1.0
C      1  0.4301980000000  0.4515070000000  0.3568640000000 1.0
C      1  0.4575770000000  0.4825670000000  0.4247370000000 1.0
C      1  0.4666460000000  0.4928810000000  0.4473840000000 1.0
C      1  0.5010740000000  0.5167550000000  0.4735560000000 1.0
C      1  0.4378020000000  0.4745670000000  0.5312140000000 1.0
C      1  0.4732690000000  0.5146480000000  0.5175870000000 1.0
C      1  0.5159670000000  0.5157490000000  0.5796940000000 1.0
C      1  0.5733480000000  0.5787010000000  0.5440080000000 1.0
C      1  0.5385960000000  0.5281440000000  0.5056880000000 1.0
C      1  0.5260520000000  0.4626590000000  0.5140940000000 1.0
C      1  0.5148270000000  0.5346850000000  0.4911610000000 1.0
C      1  0.4393260000000  0.4618620000000  0.3794920000000 1.0
C      1  0.4512940000000  0.4777730000000  0.5547550000000 1.0
C      1  0.4766290000000  0.4900710000000  0.5584070000000 1.0
C      1  0.4973860000000  0.5532760000000  0.5039200000000 1.0
C      1  0.4604050000000  0.5014100000000  0.4957130000000 1.0
C      1  0.4484520000000  0.4722150000000  0.4021140000000 1.0
C      1  0.4410510000000  0.4829380000000  0.5054080000000 1.0
C      1  0.4920780000000  0.5002460000000  0.5794590000000 1.0
END
