TITL C-627111-6168-880 0.00171055767672256 125000 -790.837530544155 0 0 130 (C1) n - 1
REM
REM in /home/nfs/bkarasulu/CARBON/AIRSS/Generating-Clusters/LCBOP/Only-C1/SD-CG/FIRE-CG
REM
REM
REM
REM
REM
REM ./C.cell (11c1c37f851c82e70ff6c80c92926a4b)
REM AIRSS Version 0.9.1 bugfix July 2018 build 013d7b7c2542+ Fri, 06 Jul 2018 19:26:36 +0100
REM compiler GCC version 9.2.1 20190827 (Red Hat 9.2.1-1)
REM options -cpp -mtune=generic -march=x86-64 -g -O0 -fpre-include=/usr/include/finclude/math-vector-fortran.h
REM seed 1865849770 -1888361013 -1563526386 1110153435 1534334477 -1703520563 2083475439 -426293349 -1755661336 -293724840 1236878487 837356961 672112648 1454239826 -15675330 1460629955 1929015464 841515348 -34428874 1059594571 -2090906043 1139538240 -1933017447 670987480 -1201827820 -568272224 -1898245482 1360182991 -525789212 1652655716 1994317551 1649012490 806334745
REM
CELL 1.54180   50.00000   50.00000   50.00000   90.00000   90.00000   90.00000
LATT -1
SFAC C  
C      1  0.4852510000000  0.4760140000000  0.6237140000000 1.0
C      1  0.4683620000000  0.4262170000000  0.4459840000000 1.0
C      1  0.4718900000000  0.5459000000000  0.6108130000000 1.0
C      1  0.5902490000000  0.4387030000000  0.4950680000000 1.0
C      1  0.4625030000000  0.5272480000000  0.4570760000000 1.0
C      1  0.4613910000000  0.4785110000000  0.5458800000000 1.0
C      1  0.5232680000000  0.5464180000000  0.5454880000000 1.0
C      1  0.4593870000000  0.4665180000000  0.6183140000000 1.0
C      1  0.4816670000000  0.4794730000000  0.5034400000000 1.0
C      1  0.4980440000000  0.5176970000000  0.3878960000000 1.0
C      1  0.5117660000000  0.5353760000000  0.4589440000000 1.0
C      1  0.5019550000000  0.5431340000000  0.3838120000000 1.0
C      1  0.5441460000000  0.5018160000000  0.4320620000000 1.0
C      1  0.4217930000000  0.4810280000000  0.5901800000000 1.0
C      1  0.3900810000000  0.4972160000000  0.4648070000000 1.0
C      1  0.5375130000000  0.5280650000000  0.4460690000000 1.0
C      1  0.4405990000000  0.4758820000000  0.3763890000000 1.0
C      1  0.5166250000000  0.5725140000000  0.5331530000000 1.0
C      1  0.4648330000000  0.4176210000000  0.6226560000000 1.0
C      1  0.4267530000000  0.4592350000000  0.5722610000000 1.0
C      1  0.5462940000000  0.5370020000000  0.4923330000000 1.0
C      1  0.5565770000000  0.4343990000000  0.4274680000000 1.0
C      1  0.5318270000000  0.5864210000000  0.5137960000000 1.0
C      1  0.4900320000000  0.4912200000000  0.3918070000000 1.0
C      1  0.5342470000000  0.5966640000000  0.4890700000000 1.0
C      1  0.4811430000000  0.4695000000000  0.5633970000000 1.0
C      1  0.5430200000000  0.4324970000000  0.5619950000000 1.0
C      1  0.5509170000000  0.4565180000000  0.4129440000000 1.0
C      1  0.4424880000000  0.5117120000000  0.4692930000000 1.0
C      1  0.5607590000000  0.4260950000000  0.4544540000000 1.0
C      1  0.4380000000000  0.4843540000000  0.6119110000000 1.0
C      1  0.4982550000000  0.4452160000000  0.4089370000000 1.0
C      1  0.4627460000000  0.4543630000000  0.4469020000000 1.0
C      1  0.5810730000000  0.4714090000000  0.4618800000000 1.0
C      1  0.5453810000000  0.4814090000000  0.5162060000000 1.0
C      1  0.5997370000000  0.5282510000000  0.4483280000000 1.0
C      1  0.4805860000000  0.4327580000000  0.5119130000000 1.0
C      1  0.5527250000000  0.4068970000000  0.5173590000000 1.0
C      1  0.4318990000000  0.5598030000000  0.4356260000000 1.0
C      1  0.5352380000000  0.4190230000000  0.5377220000000 1.0
C      1  0.4908920000000  0.5849060000000  0.5378510000000 1.0
C      1  0.4166520000000  0.4454760000000  0.4518940000000 1.0
C      1  0.4958610000000  0.5367330000000  0.6042520000000 1.0
C      1  0.5032600000000  0.4572980000000  0.5713650000000 1.0
C      1  0.4340690000000  0.4902500000000  0.4535520000000 1.0
C      1  0.4218090000000  0.5614900000000  0.6136350000000 1.0
C      1  0.5681440000000  0.5594180000000  0.4174670000000 1.0
C      1  0.4671630000000  0.4100690000000  0.4718220000000 1.0
C      1  0.4955180000000  0.4942230000000  0.4640650000000 1.0
C      1  0.4380670000000  0.4370790000000  0.5864190000000 1.0
C      1  0.5064990000000  0.6005320000000  0.5832330000000 1.0
C      1  0.4692910000000  0.4941760000000  0.5238560000000 1.0
C      1  0.5631930000000  0.5696500000000  0.4632540000000 1.0
C      1  0.6031320000000  0.5120340000000  0.4703290000000 1.0
C      1  0.5252410000000  0.4991370000000  0.5967510000000 1.0
C      1  0.4575160000000  0.5728860000000  0.4953770000000 1.0
C      1  0.5338360000000  0.4800830000000  0.4132040000000 1.0
C      1  0.4379550000000  0.5522160000000  0.5026870000000 1.0
C      1  0.4646900000000  0.4832140000000  0.3831010000000 1.0
C      1  0.4891190000000  0.5198320000000  0.4545180000000 1.0
C      1  0.4736070000000  0.5230020000000  0.5236080000000 1.0
C      1  0.5300940000000  0.5898100000000  0.5906570000000 1.0
C      1  0.4845770000000  0.4534700000000  0.4932380000000 1.0
C      1  0.4366810000000  0.6016140000000  0.4046500000000 1.0
C      1  0.5037340000000  0.4938060000000  0.4924350000000 1.0
C      1  0.5121110000000  0.4179390000000  0.4651580000000 1.0
C      1  0.3968600000000  0.4752720000000  0.4836930000000 1.0
C      1  0.5086790000000  0.4865430000000  0.6161960000000 1.0
C      1  0.5380700000000  0.4758430000000  0.4674480000000 1.0
C      1  0.5071750000000  0.4726120000000  0.4046610000000 1.0
C      1  0.4288300000000  0.4395540000000  0.5006650000000 1.0
C      1  0.4534270000000  0.5526210000000  0.4530920000000 1.0
C      1  0.4468470000000  0.5542460000000  0.6131850000000 1.0
C      1  0.5187790000000  0.5267320000000  0.5911010000000 1.0
C      1  0.4238550000000  0.4611850000000  0.5210430000000 1.0
C      1  0.4643360000000  0.5747860000000  0.4676520000000 1.0
C      1  0.5307630000000  0.5450540000000  0.5728850000000 1.0
C      1  0.4891540000000  0.5980510000000  0.5627270000000 1.0
C      1  0.5145490000000  0.4345290000000  0.5244540000000 1.0
C      1  0.5659180000000  0.4928980000000  0.5699710000000 1.0
C      1  0.4833000000000  0.4731360000000  0.4503320000000 1.0
C      1  0.4721980000000  0.5850350000000  0.5165020000000 1.0
C      1  0.4084240000000  0.4831260000000  0.5091360000000 1.0
C      1  0.5654700000000  0.5245390000000  0.5101880000000 1.0
C      1  0.5457090000000  0.5683020000000  0.5811750000000 1.0
C      1  0.5779530000000  0.4195320000000  0.5119260000000 1.0
C      1  0.4086930000000  0.5421750000000  0.4388440000000 1.0
C      1  0.5426350000000  0.4819170000000  0.5810870000000 1.0
C      1  0.5121720000000  0.3831150000000  0.4935220000000 1.0
C      1  0.4550910000000  0.4215680000000  0.4987740000000 1.0
C      1  0.5920260000000  0.4873340000000  0.4859590000000 1.0
C      1  0.3952920000000  0.5205190000000  0.4502310000000 1.0
C      1  0.5423300000000  0.5892420000000  0.4632560000000 1.0
C      1  0.5156790000000  0.5407700000000  0.4878420000000 1.0
C      1  0.5561770000000  0.5422240000000  0.4651940000000 1.0
C      1  0.6254820000000  0.4659710000000  0.5192230000000 1.0
C      1  0.4546070000000  0.4393100000000  0.6096730000000 1.0
C      1  0.4135650000000  0.5105440000000  0.5117010000000 1.0
C      1  0.5054590000000  0.4436660000000  0.4751020000000 1.0
C      1  0.5394970000000  0.3950300000000  0.4942270000000 1.0
C      1  0.4937870000000  0.3972190000000  0.4758140000000 1.0
C      1  0.5779850000000  0.5111930000000  0.5546960000000 1.0
C      1  0.5801640000000  0.5581380000000  0.5460520000000 1.0
C      1  0.6046720000000  0.4633770000000  0.5020510000000 1.0
C      1  0.5406640000000  0.4107930000000  0.4684210000000 1.0
C      1  0.5314630000000  0.4564210000000  0.5731190000000 1.0
C      1  0.5876160000000  0.5435140000000  0.4288650000000 1.0
C      1  0.4854860000000  0.4248080000000  0.4222830000000 1.0
C      1  0.4722930000000  0.5913160000000  0.4455250000000 1.0
C      1  0.4329750000000  0.5479920000000  0.5320760000000 1.0
C      1  0.5279590000000  0.5883540000000  0.4380480000000 1.0
C      1  0.5321860000000  0.4558220000000  0.5113430000000 1.0
C      1  0.5702380000000  0.5712960000000  0.5674630000000 1.0
C      1  0.5179410000000  0.5236940000000  0.5291750000000 1.0
C      1  0.5763340000000  0.5322950000000  0.5355850000000 1.0
C      1  0.5795300000000  0.4427510000000  0.4684510000000 1.0
C      1  0.4582250000000  0.5388670000000  0.5415320000000 1.0
C      1  0.5452210000000  0.5749440000000  0.4184030000000 1.0
C      1  0.4087400000000  0.4480650000000  0.4788300000000 1.0
C      1  0.4300600000000  0.5247890000000  0.4916500000000 1.0
C      1  0.5285600000000  0.4563950000000  0.4833140000000 1.0
C      1  0.4995470000000  0.5934680000000  0.4373920000000 1.0
C      1  0.5231900000000  0.4995140000000  0.5149300000000 1.0
C      1  0.4367860000000  0.4638160000000  0.4448970000000 1.0
C      1  0.4119720000000  0.5284620000000  0.5339530000000 1.0
C      1  0.4360860000000  0.4653470000000  0.5461570000000 1.0
C      1  0.4974120000000  0.5344340000000  0.5106020000000 1.0
C      1  0.4428010000000  0.5847630000000  0.4244270000000 1.0
C      1  0.5687800000000  0.4956870000000  0.5054500000000 1.0
C      1  0.5585980000000  0.4850400000000  0.4511010000000 1.0
END
