TITL C-627107-135-1905 15322.1773203462 125000 -1238.68841229398 0 0 200 (C1) n - 1
REM
REM in /home/nfs/bkarasulu/CARBON/AIRSS/Generating-Clusters/LCBOP/Only-C1/SD-CG/FIRE-CG
REM
REM
REM
REM
REM
REM ./C.cell (11c1c37f851c82e70ff6c80c92926a4b)
REM AIRSS Version 0.9.1 bugfix July 2018 build 013d7b7c2542+ Fri, 06 Jul 2018 19:26:36 +0100
REM compiler GCC version 9.2.1 20190827 (Red Hat 9.2.1-1)
REM options -cpp -mtune=generic -march=x86-64 -g -O0 -fpre-include=/usr/include/finclude/math-vector-fortran.h
REM seed -329666600 1194012362 -673697181 -1393480173 -42921002 932439206 649032332 1959132117 -270386509 -653691183 -955217676 657159307 1910481035 578395428 -839950239 1514898001 412441707 -265039021 -612716237 -707383574 -1834895793 -641785281 -2040771656 -1933108920 -2001360020 -1660627705 -928750599 1876477200 -1417795559 -539388046 -541022544 -92268673 -1112139664
REM
CELL 1.54180   50.00000   50.00000   50.00000   90.00000   90.00000   90.00000
LATT -1
SFAC C  
C      1  0.5721990000000  0.5622600000000  0.3402340000000 1.0
C      1  0.5154540000000  0.5498840000000  0.4634760000000 1.0
C      1  0.4895650000000  0.5718310000000  0.5358130000000 1.0
C      1  0.4527250000000  0.4551180000000  0.5192720000000 1.0
C      1  0.4392950000000  0.6242950000000  0.4017860000000 1.0
C      1  0.5907130000000  0.4539280000000  0.5522140000000 1.0
C      1  0.4914710000000  0.5532960000000  0.6157730000000 1.0
C      1  0.5158630000000  0.4433380000000  0.6109490000000 1.0
C      1  0.3858130000000  0.4517290000000  0.4672270000000 1.0
C      1  0.5476530000000  0.5068720000000  0.6358590000000 1.0
C      1  0.4933530000000  0.5723350000000  0.4018440000000 1.0
C      1  0.4187120000000  0.5420290000000  0.5693410000000 1.0
C      1  0.4304600000000  0.4887410000000  0.5459930000000 1.0
C      1  0.5374780000000  0.6272200000000  0.5036210000000 1.0
C      1  0.4892470000000  0.5270550000000  0.6227210000000 1.0
C      1  0.5937540000000  0.5623090000000  0.6019190000000 1.0
C      1  0.5219250000000  0.4659800000000  0.4030680000000 1.0
C      1  0.4390690000000  0.4298350000000  0.4237660000000 1.0
C      1  0.5184820000000  0.4070590000000  0.4613180000000 1.0
C      1  0.5657590000000  0.5964550000000  0.5417860000000 1.0
C      1  0.5487390000000  0.6053320000000  0.4021850000000 1.0
C      1  0.5151020000000  0.5063880000000  0.5769010000000 1.0
C      1  0.6234930000000  0.4352250000000  0.4382940000000 1.0
C      1  0.6311200000000  0.6247260000000  0.6364860000000 1.0
C      1  0.5936650000000  0.5253220000000  0.5346920000000 1.0
C      1  0.4804530000000  0.3322450000000  0.5494240000000 1.0
C      1  0.5542110000000  0.6063610000000  0.4949730000000 1.0
C      1  0.4520160000000  0.3731130000000  0.5605650000000 1.0
C      1  0.5788850000000  0.5423330000000  0.4619210000000 1.0
C      1  0.5238430000000  0.5251720000000  0.3922020000000 1.0
C      1  0.5132780000000  0.4000370000000  0.4340150000000 1.0
C      1  0.4781160000000  0.4194610000000  0.4916520000000 1.0
C      1  0.4670400000000  0.4796010000000  0.6094560000000 1.0
C      1  0.4642260000000  0.5712730000000  0.5218740000000 1.0
C      1  0.4498980000000  0.4393040000000  0.5857490000000 1.0
C      1  0.4143730000000  0.4819260000000  0.5684030000000 1.0
C      1  0.4584570000000  0.4691960000000  0.4543410000000 1.0
C      1  0.4583860000000  0.6238400000000  0.4476150000000 1.0
C      1  0.3946750000000  0.4992190000000  0.4335820000000 1.0
C      1  0.5926540000000  0.4967180000000  0.4933950000000 1.0
C      1  0.6196810000000  0.5980230000000  0.4884340000000 1.0
C      1  0.5979310000000  0.4295620000000  0.4481460000000 1.0
C      1  0.6187920000000  0.6046500000000  0.6253240000000 1.0
C      1  0.4126080000000  0.4159700000000  0.4932600000000 1.0
C      1  0.4225940000000  0.5849050000000  0.3760800000000 1.0
C      1  0.5216520000000  0.4161900000000  0.4127990000000 1.0
C      1  0.4728260000000  0.4548450000000  0.5935830000000 1.0
C      1  0.5413580000000  0.4891020000000  0.5337930000000 1.0
C      1  0.3941250000000  0.4501150000000  0.4399250000000 1.0
C      1  0.5151390000000  0.4513240000000  0.4663180000000 1.0
C      1  0.6021630000000  0.4561860000000  0.5261870000000 1.0
C      1  0.4301060000000  0.5062600000000  0.5225990000000 1.0
C      1  0.5112120000000  0.4330070000000  0.5167240000000 1.0
C      1  0.5215680000000  0.6311930000000  0.5248500000000 1.0
C      1  0.5116190000000  0.5792160000000  0.4254200000000 1.0
C      1  0.6064720000000  0.5785660000000  0.4449660000000 1.0
C      1  0.4721580000000  0.5518730000000  0.5730370000000 1.0
C      1  0.5881580000000  0.4759450000000  0.5114570000000 1.0
C      1  0.4771100000000  0.5227670000000  0.3887860000000 1.0
C      1  0.5269860000000  0.5298870000000  0.4204150000000 1.0
C      1  0.4991810000000  0.5355490000000  0.5046530000000 1.0
C      1  0.4628450000000  0.3488310000000  0.5605800000000 1.0
C      1  0.5274110000000  0.5345520000000  0.5141700000000 1.0
C      1  0.4534460000000  0.4715410000000  0.5426630000000 1.0
C      1  0.4375260000000  0.6195040000000  0.4294360000000 1.0
C      1  0.4094070000000  0.5763000000000  0.4452160000000 1.0
C      1  0.4249550000000  0.5543780000000  0.4357390000000 1.0
C      1  0.5529560000000  0.4279260000000  0.4877970000000 1.0
C      1  0.5920230000000  0.5027130000000  0.5517920000000 1.0
C      1  0.4061830000000  0.5996730000000  0.5087000000000 1.0
C      1  0.3910680000000  0.5853280000000  0.4919340000000 1.0
C      1  0.4011170000000  0.5102480000000  0.4573190000000 1.0
C      1  0.4968780000000  0.6205460000000  0.5329970000000 1.0
C      1  0.5916130000000  0.3967420000000  0.4897780000000 1.0
C      1  0.5219130000000  0.4211910000000  0.5413430000000 1.0
C      1  0.3720990000000  0.4919430000000  0.5301890000000 1.0
C      1  0.4863600000000  0.5688490000000  0.5923300000000 1.0
C      1  0.4066170000000  0.4547440000000  0.5697620000000 1.0
C      1  0.4670060000000  0.4759520000000  0.4008920000000 1.0
C      1  0.4465770000000  0.5521860000000  0.5329460000000 1.0
C      1  0.5521550000000  0.5954150000000  0.5649160000000 1.0
C      1  0.4169330000000  0.6021390000000  0.4373410000000 1.0
C      1  0.4175240000000  0.5614750000000  0.3878400000000 1.0
C      1  0.4095850000000  0.4284150000000  0.4288980000000 1.0
C      1  0.4954170000000  0.5965680000000  0.5497220000000 1.0
C      1  0.5668480000000  0.4684290000000  0.4578200000000 1.0
C      1  0.5116240000000  0.3684590000000  0.4968030000000 1.0
C      1  0.5465080000000  0.5483640000000  0.4986910000000 1.0
C      1  0.5741300000000  0.5996290000000  0.5148440000000 1.0
C      1  0.5971130000000  0.5491650000000  0.5491720000000 1.0
C      1  0.5333460000000  0.5651360000000  0.4799090000000 1.0
C      1  0.5729310000000  0.5409120000000  0.4907440000000 1.0
C      1  0.4450260000000  0.5503420000000  0.5617490000000 1.0
C      1  0.5308380000000  0.5933300000000  0.5813600000000 1.0
C      1  0.4889220000000  0.3863920000000  0.4303760000000 1.0
C      1  0.4563280000000  0.5047490000000  0.3974990000000 1.0
C      1  0.4845850000000  0.4964610000000  0.5208730000000 1.0
C      1  0.5328900000000  0.5175570000000  0.5358010000000 1.0
C      1  0.5003140000000  0.4458900000000  0.5869140000000 1.0
C      1  0.5343180000000  0.4403700000000  0.4075940000000 1.0
C      1  0.3960540000000  0.5303510000000  0.5593770000000 1.0
C      1  0.4491180000000  0.5274120000000  0.5204750000000 1.0
C      1  0.3824520000000  0.4764450000000  0.4836490000000 1.0
C      1  0.3924280000000  0.5744570000000  0.4675030000000 1.0
C      1  0.4026540000000  0.4962100000000  0.4814250000000 1.0
C      1  0.4760820000000  0.6266890000000  0.5141280000000 1.0
C      1  0.5598070000000  0.4532890000000  0.5978520000000 1.0
C      1  0.5580160000000  0.5856450000000  0.4467910000000 1.0
C      1  0.5070930000000  0.5011600000000  0.4765280000000 1.0
C      1  0.4796370000000  0.5510880000000  0.3916840000000 1.0
C      1  0.5375840000000  0.4688390000000  0.4617010000000 1.0
C      1  0.5806950000000  0.5674240000000  0.4474850000000 1.0
C      1  0.4193610000000  0.4685000000000  0.4042250000000 1.0
C      1  0.4946590000000  0.5476660000000  0.5531270000000 1.0
C      1  0.5468810000000  0.5891130000000  0.4731880000000 1.0
C      1  0.4327150000000  0.6068050000000  0.5124220000000 1.0
C      1  0.4370520000000  0.4276220000000  0.4704390000000 1.0
C      1  0.4449610000000  0.5448620000000  0.4520480000000 1.0
C      1  0.4775690000000  0.4853650000000  0.5459840000000 1.0
C      1  0.4458880000000  0.4558550000000  0.4080090000000 1.0
C      1  0.4680510000000  0.4313110000000  0.5160340000000 1.0
C      1  0.3990310000000  0.4734430000000  0.4235490000000 1.0
C      1  0.5891450000000  0.5229020000000  0.5060750000000 1.0
C      1  0.5830770000000  0.5163680000000  0.4508180000000 1.0
C      1  0.4780680000000  0.6099340000000  0.4624960000000 1.0
C      1  0.3724110000000  0.4422280000000  0.5110350000000 1.0
C      1  0.4887820000000  0.3757740000000  0.4795120000000 1.0
C      1  0.5324980000000  0.3880160000000  0.5043580000000 1.0
C      1  0.5526910000000  0.4499110000000  0.5028750000000 1.0
C      1  0.5637550000000  0.5280820000000  0.6324660000000 1.0
C      1  0.4765200000000  0.5221470000000  0.5151110000000 1.0
C      1  0.4245590000000  0.4917840000000  0.4987750000000 1.0
C      1  0.4970170000000  0.4789370000000  0.3948330000000 1.0
C      1  0.5944580000000  0.4071350000000  0.4650280000000 1.0
C      1  0.5769630000000  0.4287310000000  0.5582540000000 1.0
C      1  0.5364170000000  0.4876370000000  0.6188750000000 1.0
C      1  0.5104930000000  0.3439560000000  0.5104470000000 1.0
C      1  0.4187210000000  0.3870480000000  0.4910020000000 1.0
C      1  0.5564730000000  0.5487560000000  0.3560430000000 1.0
C      1  0.4545460000000  0.5891730000000  0.5023870000000 1.0
C      1  0.4495490000000  0.3988550000000  0.5506150000000 1.0
C      1  0.5388180000000  0.4583100000000  0.6171810000000 1.0
C      1  0.5916330000000  0.4087970000000  0.5153240000000 1.0
C      1  0.6472320000000  0.4413880000000  0.4294840000000 1.0
C      1  0.6224730000000  0.5905710000000  0.4628730000000 1.0
C      1  0.5267010000000  0.4945400000000  0.4576160000000 1.0
C      1  0.6097680000000  0.4310930000000  0.5163310000000 1.0
C      1  0.4445530000000  0.3798220000000  0.4947290000000 1.0
C      1  0.5398770000000  0.4857810000000  0.4134840000000 1.0
C      1  0.5026960000000  0.5901440000000  0.5779100000000 1.0
C      1  0.4324540000000  0.5179840000000  0.4037720000000 1.0
C      1  0.5017520000000  0.5295560000000  0.4769550000000 1.0
C      1  0.4741930000000  0.6077450000000  0.4907480000000 1.0
C      1  0.4153530000000  0.4194650000000  0.5243220000000 1.0
C      1  0.5005300000000  0.4839630000000  0.5005520000000 1.0
C      1  0.5404870000000  0.5358700000000  0.3727790000000 1.0
C      1  0.5785130000000  0.5449170000000  0.6179330000000 1.0
C      1  0.5764150000000  0.4469470000000  0.4410610000000 1.0
C      1  0.4479340000000  0.6297280000000  0.5214790000000 1.0
C      1  0.3804050000000  0.5131480000000  0.5451270000000 1.0
C      1  0.5826410000000  0.4791380000000  0.5637700000000 1.0
C      1  0.4966840000000  0.5957930000000  0.4463850000000 1.0
C      1  0.5706000000000  0.4096340000000  0.5361220000000 1.0
C      1  0.4395920000000  0.4868550000000  0.6105410000000 1.0
C      1  0.3868610000000  0.4307280000000  0.4878900000000 1.0
C      1  0.4999920000000  0.4276880000000  0.4722750000000 1.0
C      1  0.4392570000000  0.4671410000000  0.4970920000000 1.0
C      1  0.4198410000000  0.4931160000000  0.5936010000000 1.0
C      1  0.4699170000000  0.3915290000000  0.4910130000000 1.0
C      1  0.4227060000000  0.5439600000000  0.4091760000000 1.0
C      1  0.5597420000000  0.4739720000000  0.5162150000000 1.0
C      1  0.5830530000000  0.4920660000000  0.4660380000000 1.0
C      1  0.5390930000000  0.4043720000000  0.4811760000000 1.0
C      1  0.4685850000000  0.3910490000000  0.4477140000000 1.0
C      1  0.4255560000000  0.4339460000000  0.5712110000000 1.0
C      1  0.4259080000000  0.4145740000000  0.5503400000000 1.0
C      1  0.3720260000000  0.4713010000000  0.5106300000000 1.0
C      1  0.5611210000000  0.4782700000000  0.5818800000000 1.0
C      1  0.5669320000000  0.4292770000000  0.5847600000000 1.0
C      1  0.5219100000000  0.4684350000000  0.5420020000000 1.0
C      1  0.5406640000000  0.5909640000000  0.4239180000000 1.0
C      1  0.4916430000000  0.4920040000000  0.5693030000000 1.0
C      1  0.5175890000000  0.5514900000000  0.4357640000000 1.0
C      1  0.4321920000000  0.6094980000000  0.3805250000000 1.0
C      1  0.5334880000000  0.5054770000000  0.4327750000000 1.0
C      1  0.5159990000000  0.4443570000000  0.5608290000000 1.0
C      1  0.5015280000000  0.5079310000000  0.3868290000000 1.0
C      1  0.5103970000000  0.4611850000000  0.5150940000000 1.0
C      1  0.4836720000000  0.5006880000000  0.6194510000000 1.0
C      1  0.5380180000000  0.4951910000000  0.5901090000000 1.0
C      1  0.5168360000000  0.5279080000000  0.5579660000000 1.0
C      1  0.5966560000000  0.5586500000000  0.5741850000000 1.0
C      1  0.6064600000000  0.5841090000000  0.6140130000000 1.0
C      1  0.5610940000000  0.4415490000000  0.4177790000000 1.0
C      1  0.4497420000000  0.4137790000000  0.4473450000000 1.0
C      1  0.4987930000000  0.3304020000000  0.5301700000000 1.0
C      1  0.4439200000000  0.4549420000000  0.4725000000000 1.0
C      1  0.4701060000000  0.4131830000000  0.5380340000000 1.0
C      1  0.5419360000000  0.4015770000000  0.5308450000000 1.0
C      1  0.6011420000000  0.5997390000000  0.5075360000000 1.0
END
