TITL C-627111-6168-910 2.27605110365798e-06 125000 -426.970062964536 0 0 71 (C1) n - 1
REM
REM in /home/nfs/bkarasulu/CARBON/AIRSS/Generating-Clusters/LCBOP/Only-C1/SD-CG/FIRE-CG
REM
REM
REM
REM
REM
REM ./C.cell (11c1c37f851c82e70ff6c80c92926a4b)
REM AIRSS Version 0.9.1 bugfix July 2018 build 013d7b7c2542+ Fri, 06 Jul 2018 19:26:36 +0100
REM compiler GCC version 9.2.1 20190827 (Red Hat 9.2.1-1)
REM options -cpp -mtune=generic -march=x86-64 -g -O0 -fpre-include=/usr/include/finclude/math-vector-fortran.h
REM seed -1724542140 922741801 -1351117002 1823005405 1429311083 -235087115 -1507075152 -779001044 1554455920 -2057314553 1838092182 -621622431 -394252473 -1673752444 -848988425 1602904216 -974239969 1566851724 -347857203 490290162 -2023871825 -249149808 1705873038 1289162081 1959243123 -1399763577 57483153 1229227581 -1410506027 -895301535 2013587816 1511312195 -1749352495
REM
CELL 1.54180   50.00000   50.00000   50.00000   90.00000   90.00000   90.00000
LATT -1
SFAC C  
C      1  0.4295010000000  0.5311770000000  0.4873930000000 1.0
C      1  0.5041190000000  0.5457690000000  0.4402080000000 1.0
C      1  0.5011610000000  0.4818200000000  0.5629370000000 1.0
C      1  0.4843230000000  0.3532910000000  0.5273180000000 1.0
C      1  0.4563690000000  0.5054780000000  0.4352500000000 1.0
C      1  0.5356090000000  0.4075510000000  0.5831240000000 1.0
C      1  0.5751110000000  0.5231100000000  0.4289090000000 1.0
C      1  0.5292020000000  0.4815770000000  0.5601680000000 1.0
C      1  0.5103300000000  0.4814450000000  0.4726850000000 1.0
C      1  0.4638840000000  0.4985470000000  0.4094190000000 1.0
C      1  0.4936290000000  0.5228580000000  0.5326420000000 1.0
C      1  0.5565020000000  0.4245180000000  0.5750900000000 1.0
C      1  0.4236920000000  0.5027990000000  0.5243990000000 1.0
C      1  0.5344970000000  0.3808440000000  0.5750560000000 1.0
C      1  0.4285660000000  0.5299810000000  0.5329170000000 1.0
C      1  0.4332750000000  0.5381070000000  0.4607100000000 1.0
C      1  0.4476960000000  0.3818440000000  0.5030640000000 1.0
C      1  0.4950540000000  0.4394630000000  0.5918700000000 1.0
C      1  0.5738230000000  0.5629410000000  0.5135480000000 1.0
C      1  0.5437480000000  0.5725070000000  0.4692610000000 1.0
C      1  0.5751790000000  0.5439940000000  0.4913710000000 1.0
C      1  0.4633520000000  0.5785810000000  0.5365530000000 1.0
C      1  0.5545220000000  0.5340470000000  0.4443240000000 1.0
C      1  0.5235780000000  0.4574540000000  0.4834370000000 1.0
C      1  0.5050790000000  0.3519870000000  0.5438250000000 1.0
C      1  0.4266400000000  0.5032290000000  0.4954640000000 1.0
C      1  0.5136610000000  0.5979560000000  0.4956510000000 1.0
C      1  0.5521050000000  0.5650380000000  0.5316890000000 1.0
C      1  0.5521930000000  0.4695820000000  0.5493920000000 1.0
C      1  0.4982520000000  0.5250690000000  0.5035050000000 1.0
C      1  0.5098490000000  0.5689780000000  0.5565910000000 1.0
C      1  0.4510630000000  0.5707410000000  0.5120780000000 1.0
C      1  0.4846040000000  0.5809490000000  0.5529610000000 1.0
C      1  0.4175440000000  0.4817520000000  0.5403240000000 1.0
C      1  0.4682140000000  0.6114610000000  0.4921530000000 1.0
C      1  0.4595200000000  0.5847380000000  0.4884290000000 1.0
C      1  0.4284720000000  0.4292720000000  0.4904890000000 1.0
C      1  0.4702270000000  0.5718360000000  0.4656060000000 1.0
C      1  0.5943610000000  0.5120280000000  0.4152800000000 1.0
C      1  0.4774120000000  0.5506220000000  0.4482590000000 1.0
C      1  0.4897430000000  0.4626270000000  0.5797450000000 1.0
C      1  0.5219070000000  0.5726260000000  0.4868950000000 1.0
C      1  0.4354810000000  0.4042540000000  0.4958290000000 1.0
C      1  0.5170470000000  0.5475520000000  0.5000690000000 1.0
C      1  0.5126510000000  0.4195570000000  0.5940400000000 1.0
C      1  0.5268880000000  0.5290700000000  0.4369100000000 1.0
C      1  0.5112240000000  0.5419630000000  0.5454740000000 1.0
C      1  0.5370750000000  0.5802030000000  0.5519030000000 1.0
C      1  0.5609860000000  0.5503990000000  0.4668590000000 1.0
C      1  0.4989190000000  0.5026340000000  0.4867790000000 1.0
C      1  0.5737940000000  0.4947720000000  0.5118850000000 1.0
C      1  0.5186330000000  0.4520830000000  0.4377220000000 1.0
C      1  0.4714650000000  0.4918530000000  0.3849320000000 1.0
C      1  0.4558390000000  0.5323100000000  0.4444320000000 1.0
C      1  0.4644090000000  0.3640450000000  0.5134520000000 1.0
C      1  0.5206460000000  0.5025460000000  0.4295880000000 1.0
C      1  0.4328000000000  0.4816470000000  0.4780850000000 1.0
C      1  0.4272040000000  0.4552250000000  0.4852140000000 1.0
C      1  0.5231560000000  0.3614870000000  0.5608130000000 1.0
C      1  0.4868280000000  0.5000180000000  0.5471430000000 1.0
C      1  0.5322890000000  0.5454940000000  0.5248680000000 1.0
C      1  0.5419710000000  0.4592320000000  0.5039910000000 1.0
C      1  0.5128970000000  0.4797450000000  0.4433110000000 1.0
C      1  0.4799500000000  0.4851300000000  0.3612180000000 1.0
C      1  0.4458760000000  0.4867210000000  0.4535710000000 1.0
C      1  0.5628430000000  0.4474350000000  0.5629430000000 1.0
C      1  0.4348560000000  0.5477170000000  0.5108400000000 1.0
C      1  0.5247410000000  0.4389160000000  0.4612690000000 1.0
C      1  0.4943860000000  0.6165500000000  0.4963940000000 1.0
C      1  0.5576100000000  0.4741170000000  0.5218680000000 1.0
C      1  0.5799700000000  0.5171260000000  0.4986050000000 1.0
END
