TITL C-627112-676-1958 -0.0150320323027328 125000 -628.633405022826 0 0 101 (C1) n - 1
REM
REM in /home/nfs/bkarasulu/CARBON/AIRSS/Generating-Clusters/LCBOP/Only-C1/SD-CG/FIRE-CG
REM
REM
REM
REM
REM
REM ./C.cell (11c1c37f851c82e70ff6c80c92926a4b)
REM AIRSS Version 0.9.1 bugfix July 2018 build 013d7b7c2542+ Fri, 06 Jul 2018 19:26:36 +0100
REM compiler GCC version 9.2.1 20190827 (Red Hat 9.2.1-1)
REM options -cpp -mtune=generic -march=x86-64 -g -O0 -fpre-include=/usr/include/finclude/math-vector-fortran.h
REM seed -1663969635 -1955429997 1148776943 424641166 -278867757 771999148 919408184 585988709 -306772433 1426673069 -1262946660 1656771400 -1226516251 1238278842 2032442551 1305929007 -1476190755 -820279880 -1449623168 610136869 -128225318 1514137621 631304748 1122825060 2081302731 -1725276900 1176624385 -1106910947 1270667456 -49670661 1892967940 1583879620 1817526898
REM
CELL 1.54180   50.00000   50.00000   50.00000   90.00000   90.00000   90.00000
LATT -1
SFAC C  
C      1  0.4463190000000  0.4197620000000  0.4541730000000 1.0
C      1  0.5899480000000  0.5117590000000  0.5290310000000 1.0
C      1  0.4354020000000  0.5283250000000  0.5297930000000 1.0
C      1  0.4716820000000  0.5477210000000  0.4120750000000 1.0
C      1  0.5488180000000  0.5264400000000  0.5047790000000 1.0
C      1  0.5158140000000  0.4964010000000  0.5415090000000 1.0
C      1  0.5245360000000  0.5141420000000  0.4972320000000 1.0
C      1  0.5802680000000  0.5785840000000  0.5195660000000 1.0
C      1  0.4447160000000  0.5130340000000  0.4775310000000 1.0
C      1  0.4926240000000  0.5057190000000  0.5547910000000 1.0
C      1  0.4755420000000  0.4548970000000  0.4342360000000 1.0
C      1  0.4916960000000  0.4736470000000  0.5896340000000 1.0
C      1  0.5389530000000  0.5601890000000  0.5466650000000 1.0
C      1  0.4867210000000  0.5270840000000  0.6233330000000 1.0
C      1  0.4704250000000  0.5627260000000  0.5684700000000 1.0
C      1  0.5105670000000  0.4952920000000  0.5130550000000 1.0
C      1  0.4903440000000  0.4555930000000  0.4586360000000 1.0
C      1  0.4688380000000  0.4499960000000  0.5234290000000 1.0
C      1  0.4780600000000  0.5227210000000  0.5978000000000 1.0
C      1  0.4820520000000  0.5276500000000  0.5409610000000 1.0
C      1  0.5589740000000  0.4520380000000  0.5925480000000 1.0
C      1  0.4941610000000  0.4815790000000  0.4682570000000 1.0
C      1  0.5888030000000  0.5573890000000  0.4695280000000 1.0
C      1  0.5503360000000  0.5539100000000  0.4977800000000 1.0
C      1  0.4923810000000  0.5057390000000  0.4255380000000 1.0
C      1  0.5707690000000  0.5091170000000  0.5088190000000 1.0
C      1  0.5418490000000  0.5342430000000  0.5580080000000 1.0
C      1  0.5346920000000  0.4927930000000  0.4408770000000 1.0
C      1  0.5047000000000  0.4396370000000  0.5534310000000 1.0
C      1  0.4008710000000  0.5020740000000  0.5180460000000 1.0
C      1  0.4584120000000  0.3960340000000  0.4940230000000 1.0
C      1  0.5539280000000  0.5123350000000  0.4476910000000 1.0
C      1  0.5434080000000  0.5530780000000  0.4211930000000 1.0
C      1  0.5088860000000  0.3818540000000  0.4948940000000 1.0
C      1  0.5489400000000  0.4140400000000  0.4922000000000 1.0
C      1  0.5337370000000  0.3916940000000  0.4924340000000 1.0
C      1  0.5420010000000  0.4416180000000  0.4972510000000 1.0
C      1  0.4353850000000  0.4875180000000  0.4685160000000 1.0
C      1  0.4237390000000  0.4626190000000  0.5407800000000 1.0
C      1  0.4672690000000  0.5137850000000  0.4957940000000 1.0
C      1  0.5656010000000  0.4636630000000  0.5682320000000 1.0
C      1  0.5129340000000  0.4411250000000  0.5021390000000 1.0
C      1  0.4351970000000  0.5271800000000  0.5771500000000 1.0
C      1  0.4140270000000  0.4896130000000  0.5417990000000 1.0
C      1  0.5216380000000  0.5478950000000  0.4645660000000 1.0
C      1  0.5940060000000  0.5288230000000  0.4672140000000 1.0
C      1  0.5716900000000  0.4884930000000  0.4881570000000 1.0
C      1  0.4262580000000  0.5342930000000  0.4840200000000 1.0
C      1  0.5763670000000  0.5058700000000  0.4641100000000 1.0
C      1  0.4623930000000  0.5258010000000  0.5213190000000 1.0
C      1  0.4456190000000  0.5485500000000  0.4179490000000 1.0
C      1  0.4147390000000  0.5262830000000  0.5091110000000 1.0
C      1  0.4255790000000  0.4838030000000  0.4418230000000 1.0
C      1  0.4666090000000  0.5939580000000  0.5305520000000 1.0
C      1  0.5201990000000  0.5452020000000  0.4065250000000 1.0
C      1  0.4385020000000  0.4929220000000  0.3967260000000 1.0
C      1  0.5341270000000  0.4745140000000  0.4192690000000 1.0
C      1  0.4603730000000  0.5864010000000  0.5561050000000 1.0
C      1  0.5125050000000  0.5652000000000  0.5361970000000 1.0
C      1  0.5630250000000  0.4913920000000  0.5631050000000 1.0
C      1  0.5870250000000  0.5042260000000  0.5547520000000 1.0
C      1  0.5120770000000  0.5226130000000  0.4725900000000 1.0
C      1  0.5774920000000  0.4493670000000  0.5470560000000 1.0
C      1  0.5428680000000  0.5395790000000  0.4462190000000 1.0
C      1  0.5622160000000  0.5755670000000  0.5400790000000 1.0
C      1  0.5075030000000  0.5014610000000  0.4517370000000 1.0
C      1  0.4501440000000  0.4410440000000  0.4359990000000 1.0
C      1  0.5397330000000  0.5057000000000  0.5551150000000 1.0
C      1  0.4999120000000  0.4512140000000  0.5772250000000 1.0
C      1  0.5059820000000  0.5732940000000  0.5084480000000 1.0
C      1  0.5531800000000  0.4418880000000  0.6163250000000 1.0
C      1  0.4329140000000  0.4392880000000  0.4969740000000 1.0
C      1  0.4272110000000  0.4570890000000  0.4325430000000 1.0
C      1  0.4427570000000  0.4163630000000  0.4821930000000 1.0
C      1  0.5760550000000  0.5659640000000  0.4941530000000 1.0
C      1  0.5806380000000  0.4528800000000  0.5206270000000 1.0
C      1  0.4628290000000  0.4816820000000  0.3931030000000 1.0
C      1  0.4263040000000  0.5028740000000  0.4205590000000 1.0
C      1  0.4988720000000  0.4366320000000  0.4773130000000 1.0
C      1  0.5122250000000  0.4676780000000  0.4045440000000 1.0
C      1  0.4782660000000  0.5830910000000  0.5063900000000 1.0
C      1  0.4399470000000  0.4432240000000  0.5264930000000 1.0
C      1  0.4951080000000  0.5320340000000  0.4127890000000 1.0
C      1  0.4593470000000  0.5406940000000  0.5847110000000 1.0
C      1  0.4420710000000  0.4656880000000  0.4862200000000 1.0
C      1  0.4869880000000  0.5003670000000  0.5820580000000 1.0
C      1  0.4373500000000  0.5602580000000  0.4806500000000 1.0
C      1  0.5252620000000  0.5647960000000  0.4878920000000 1.0
C      1  0.4593040000000  0.5747290000000  0.4869610000000 1.0
C      1  0.4277830000000  0.5134770000000  0.5537480000000 1.0
C      1  0.5665590000000  0.5698690000000  0.4230710000000 1.0
C      1  0.4822370000000  0.3840300000000  0.4966200000000 1.0
C      1  0.4663900000000  0.4692870000000  0.5026000000000 1.0
C      1  0.4857590000000  0.4898720000000  0.4960270000000 1.0
C      1  0.4906850000000  0.5527930000000  0.5502680000000 1.0
C      1  0.5642050000000  0.4613670000000  0.4985460000000 1.0
C      1  0.5464380000000  0.4321280000000  0.6395380000000 1.0
C      1  0.4261840000000  0.5307700000000  0.4231640000000 1.0
C      1  0.4962120000000  0.4412850000000  0.5266310000000 1.0
C      1  0.4843980000000  0.4771240000000  0.4130820000000 1.0
C      1  0.5836100000000  0.5709530000000  0.4446120000000 1.0
END
