TITL C-627106-156-779 1242.87804220597 125000 -1087.63574506878 0 0 178 (C1) n - 1
REM
REM in /home/nfs/bkarasulu/CARBON/AIRSS/Generating-Clusters/LCBOP/Only-C1/SD-CG/FIRE-CG
REM
REM
REM
REM
REM
REM ./C.cell (11c1c37f851c82e70ff6c80c92926a4b)
REM AIRSS Version 0.9.1 bugfix July 2018 build 013d7b7c2542+ Fri, 06 Jul 2018 19:26:36 +0100
REM compiler GCC version 9.2.1 20190827 (Red Hat 9.2.1-1)
REM options -cpp -mtune=generic -march=x86-64 -g -O0 -fpre-include=/usr/include/finclude/math-vector-fortran.h
REM seed -1704221695 -2045090984 -946190646 -526586012 -1212131027 -220322296 1820633505 -229522269 1946588154 331834271 -1366566743 -345754759 1450321622 752195115 305161728 -285214388 -815289482 449760928 -633643449 1390580762 -1975108207 -506951721 -1989103894 -695170092 -1624574409 508215032 282248156 -2016960854 -700686850 1324668003 -1505902386 -887463894 -1275894775
REM
CELL 1.54180   50.00000   50.00000   50.00000   90.00000   90.00000   90.00000
LATT -1
SFAC C  
C      1  0.5270610000000  0.3788910000000  0.5147540000000 1.0
C      1  0.4993370000000  0.5941000000000  0.5686780000000 1.0
C      1  0.4568910000000  0.6473220000000  0.4504890000000 1.0
C      1  0.5164890000000  0.5088660000000  0.5682940000000 1.0
C      1  0.4431010000000  0.5504390000000  0.4189810000000 1.0
C      1  0.5274410000000  0.5279910000000  0.5489550000000 1.0
C      1  0.4987140000000  0.4748550000000  0.6326210000000 1.0
C      1  0.4351660000000  0.5473260000000  0.5014930000000 1.0
C      1  0.5029260000000  0.5218030000000  0.3629010000000 1.0
C      1  0.5818430000000  0.5552440000000  0.4201010000000 1.0
C      1  0.4648890000000  0.4890530000000  0.5178570000000 1.0
C      1  0.5295070000000  0.4073260000000  0.5850680000000 1.0
C      1  0.4915800000000  0.5383200000000  0.4154520000000 1.0
C      1  0.5021090000000  0.3720180000000  0.5015930000000 1.0
C      1  0.4576920000000  0.5560120000000  0.4446300000000 1.0
C      1  0.5250810000000  0.4732510000000  0.6366830000000 1.0
C      1  0.4907740000000  0.4497140000000  0.3849630000000 1.0
C      1  0.3787340000000  0.4673130000000  0.5270310000000 1.0
C      1  0.5210440000000  0.4375520000000  0.5171960000000 1.0
C      1  0.4156150000000  0.5532490000000  0.4284070000000 1.0
C      1  0.5999450000000  0.4006400000000  0.5593040000000 1.0
C      1  0.4169030000000  0.5673170000000  0.4540470000000 1.0
C      1  0.4720680000000  0.4829880000000  0.5885870000000 1.0
C      1  0.4867730000000  0.4336060000000  0.4866250000000 1.0
C      1  0.3744130000000  0.5419270000000  0.4787330000000 1.0
C      1  0.4590270000000  0.5050270000000  0.5774660000000 1.0
C      1  0.4641820000000  0.4835430000000  0.4601930000000 1.0
C      1  0.4789150000000  0.6131240000000  0.5649560000000 1.0
C      1  0.4571060000000  0.6240070000000  0.4621210000000 1.0
C      1  0.4102660000000  0.5116340000000  0.5206580000000 1.0
C      1  0.5096300000000  0.4807760000000  0.4628330000000 1.0
C      1  0.5693120000000  0.6106420000000  0.5197490000000 1.0
C      1  0.4696080000000  0.5201050000000  0.5541920000000 1.0
C      1  0.4562280000000  0.5989180000000  0.4753510000000 1.0
C      1  0.5904670000000  0.5685370000000  0.4440710000000 1.0
C      1  0.4898810000000  0.4869280000000  0.5051130000000 1.0
C      1  0.5679180000000  0.4070720000000  0.5057580000000 1.0
C      1  0.4839390000000  0.4250480000000  0.4004700000000 1.0
C      1  0.5413850000000  0.5225740000000  0.4585630000000 1.0
C      1  0.5148580000000  0.5432050000000  0.3742950000000 1.0
C      1  0.4921500000000  0.5280030000000  0.4426860000000 1.0
C      1  0.4212060000000  0.4943690000000  0.4999300000000 1.0
C      1  0.6720850000000  0.5611830000000  0.4639600000000 1.0
C      1  0.6325490000000  0.5278970000000  0.4796980000000 1.0
C      1  0.5297160000000  0.4356380000000  0.5444380000000 1.0
C      1  0.5585550000000  0.5451880000000  0.4764650000000 1.0
C      1  0.4123630000000  0.5981140000000  0.5006840000000 1.0
C      1  0.5725420000000  0.4993360000000  0.5894770000000 1.0
C      1  0.4111630000000  0.4572240000000  0.4121920000000 1.0
C      1  0.5241510000000  0.4810730000000  0.4041210000000 1.0
C      1  0.4420530000000  0.4285310000000  0.4832430000000 1.0
C      1  0.4973470000000  0.5686490000000  0.5600730000000 1.0
C      1  0.4831380000000  0.5450150000000  0.5643850000000 1.0
C      1  0.4933360000000  0.4335780000000  0.5136440000000 1.0
C      1  0.5094580000000  0.5232440000000  0.5944720000000 1.0
C      1  0.5458410000000  0.6234210000000  0.5217830000000 1.0
C      1  0.5000680000000  0.3858870000000  0.4757690000000 1.0
C      1  0.5822420000000  0.4281640000000  0.5196720000000 1.0
C      1  0.5340810000000  0.5765940000000  0.4398220000000 1.0
C      1  0.6368780000000  0.5092050000000  0.4999210000000 1.0
C      1  0.5546380000000  0.5169640000000  0.4285690000000 1.0
C      1  0.4530400000000  0.6050330000000  0.5743950000000 1.0
C      1  0.5235090000000  0.4044500000000  0.6376140000000 1.0
C      1  0.4797360000000  0.3638280000000  0.5161550000000 1.0
C      1  0.5599140000000  0.5226320000000  0.6000110000000 1.0
C      1  0.4304290000000  0.5638180000000  0.5637070000000 1.0
C      1  0.3759510000000  0.4584130000000  0.5016120000000 1.0
C      1  0.5125090000000  0.4793490000000  0.5637520000000 1.0
C      1  0.5281230000000  0.3963700000000  0.4722360000000 1.0
C      1  0.4416140000000  0.4752220000000  0.5072480000000 1.0
C      1  0.4182200000000  0.4523450000000  0.5493430000000 1.0
C      1  0.4742140000000  0.3944930000000  0.4646270000000 1.0
C      1  0.3761120000000  0.5355230000000  0.4524420000000 1.0
C      1  0.5144420000000  0.5028910000000  0.5069050000000 1.0
C      1  0.5547110000000  0.5387310000000  0.5077550000000 1.0
C      1  0.5353810000000  0.4916400000000  0.4645090000000 1.0
C      1  0.4957080000000  0.6313860000000  0.5234860000000 1.0
C      1  0.5867450000000  0.5930770000000  0.5096060000000 1.0
C      1  0.5216680000000  0.6256750000000  0.4625350000000 1.0
C      1  0.3989800000000  0.4736720000000  0.5467060000000 1.0
C      1  0.4654930000000  0.4038310000000  0.5404330000000 1.0
C      1  0.5289480000000  0.4126830000000  0.4257930000000 1.0
C      1  0.4408040000000  0.4228550000000  0.4349950000000 1.0
C      1  0.5778850000000  0.5091140000000  0.5403100000000 1.0
C      1  0.4862250000000  0.4836000000000  0.4777800000000 1.0
C      1  0.4697340000000  0.5767030000000  0.4601030000000 1.0
C      1  0.4580190000000  0.4216530000000  0.4122020000000 1.0
C      1  0.4617360000000  0.5106690000000  0.3874920000000 1.0
C      1  0.5470700000000  0.4920240000000  0.4181240000000 1.0
C      1  0.4602150000000  0.4724390000000  0.4131140000000 1.0
C      1  0.6074880000000  0.5303540000000  0.4668370000000 1.0
C      1  0.5202870000000  0.4048520000000  0.6634810000000 1.0
C      1  0.5372980000000  0.4367150000000  0.4136080000000 1.0
C      1  0.5344770000000  0.5296790000000  0.6070770000000 1.0
C      1  0.4646600000000  0.3782240000000  0.5330090000000 1.0
C      1  0.4411140000000  0.5995620000000  0.5013420000000 1.0
C      1  0.4356750000000  0.4469130000000  0.5038060000000 1.0
C      1  0.4490330000000  0.5069890000000  0.4599160000000 1.0
C      1  0.4638100000000  0.5353330000000  0.4032340000000 1.0
C      1  0.4086470000000  0.5192210000000  0.5714190000000 1.0
C      1  0.4863760000000  0.4683860000000  0.5688930000000 1.0
C      1  0.4766740000000  0.4294160000000  0.5366760000000 1.0
C      1  0.5326230000000  0.4588880000000  0.5608530000000 1.0
C      1  0.5427720000000  0.4929860000000  0.5102970000000 1.0
C      1  0.4873190000000  0.5015850000000  0.3753040000000 1.0
C      1  0.3877820000000  0.5167160000000  0.5895910000000 1.0
C      1  0.4728580000000  0.4699060000000  0.4368170000000 1.0
C      1  0.3876370000000  0.5532060000000  0.5014340000000 1.0
C      1  0.5807300000000  0.5270100000000  0.4249140000000 1.0
C      1  0.6284380000000  0.4836650000000  0.5443250000000 1.0
C      1  0.4973510000000  0.5713780000000  0.4659150000000 1.0
C      1  0.6110570000000  0.4337220000000  0.5880900000000 1.0
C      1  0.4202950000000  0.4368090000000  0.5254550000000 1.0
C      1  0.4743750000000  0.6188060000000  0.5364700000000 1.0
C      1  0.4244890000000  0.5046100000000  0.4735610000000 1.0
C      1  0.3915240000000  0.5380950000000  0.4300170000000 1.0
C      1  0.6379810000000  0.4953660000000  0.5224910000000 1.0
C      1  0.5862280000000  0.4959090000000  0.5640580000000 1.0
C      1  0.5376220000000  0.5458090000000  0.5302740000000 1.0
C      1  0.4450650000000  0.4892590000000  0.3965980000000 1.0
C      1  0.4421990000000  0.4510850000000  0.5637940000000 1.0
C      1  0.5954320000000  0.5732600000000  0.4938340000000 1.0
C      1  0.5167890000000  0.6123170000000  0.4858260000000 1.0
C      1  0.5300300000000  0.4097760000000  0.5572570000000 1.0
C      1  0.6009720000000  0.5170670000000  0.4423910000000 1.0
C      1  0.5521270000000  0.4576850000000  0.5808530000000 1.0
C      1  0.4098830000000  0.5385320000000  0.5127780000000 1.0
C      1  0.5616480000000  0.4751400000000  0.6004540000000 1.0
C      1  0.5449520000000  0.5706330000000  0.4639310000000 1.0
C      1  0.4398220000000  0.5888070000000  0.5538080000000 1.0
C      1  0.4515630000000  0.6014600000000  0.5282160000000 1.0
C      1  0.5200290000000  0.6253500000000  0.5108370000000 1.0
C      1  0.4610050000000  0.5150290000000  0.5285550000000 1.0
C      1  0.5343010000000  0.5669130000000  0.4132270000000 1.0
C      1  0.5502810000000  0.4727640000000  0.4490090000000 1.0
C      1  0.5016100000000  0.4780710000000  0.3848260000000 1.0
C      1  0.5266560000000  0.4051250000000  0.6113070000000 1.0
C      1  0.5611640000000  0.5654290000000  0.4036080000000 1.0
C      1  0.4538770000000  0.5282550000000  0.5944300000000 1.0
C      1  0.4942270000000  0.4371030000000  0.4610560000000 1.0
C      1  0.5539060000000  0.4673670000000  0.5050330000000 1.0
C      1  0.5110160000000  0.5363250000000  0.4634390000000 1.0
C      1  0.4648510000000  0.5291380000000  0.4527920000000 1.0
C      1  0.4066480000000  0.5019570000000  0.5475160000000 1.0
C      1  0.5949920000000  0.4253160000000  0.5447110000000 1.0
C      1  0.5495320000000  0.4736310000000  0.6257620000000 1.0
C      1  0.6061600000000  0.4754230000000  0.5593980000000 1.0
C      1  0.4513250000000  0.4131900000000  0.4607430000000 1.0
C      1  0.5890180000000  0.5539550000000  0.4717020000000 1.0
C      1  0.6029990000000  0.4476180000000  0.5636470000000 1.0
C      1  0.5429350000000  0.4426350000000  0.4650570000000 1.0
C      1  0.5784530000000  0.4553420000000  0.5116260000000 1.0
C      1  0.5067910000000  0.5861410000000  0.4875740000000 1.0
C      1  0.4186930000000  0.4787120000000  0.3971210000000 1.0
C      1  0.3910850000000  0.5815220000000  0.5031830000000 1.0
C      1  0.4827940000000  0.5384280000000  0.5935930000000 1.0
C      1  0.4871770000000  0.5466440000000  0.5066610000000 1.0
C      1  0.4785180000000  0.4785190000000  0.6154830000000 1.0
C      1  0.5289560000000  0.3865200000000  0.5415270000000 1.0
C      1  0.5629240000000  0.5124170000000  0.5165260000000 1.0
C      1  0.6535280000000  0.5446390000000  0.4717750000000 1.0
C      1  0.4162480000000  0.4393370000000  0.4340790000000 1.0
C      1  0.4295640000000  0.5393110000000  0.5791160000000 1.0
C      1  0.3983220000000  0.4413290000000  0.4562060000000 1.0
C      1  0.5449230000000  0.3925830000000  0.4962920000000 1.0
C      1  0.5357100000000  0.4160900000000  0.4536910000000 1.0
C      1  0.5007690000000  0.4595250000000  0.4422310000000 1.0
C      1  0.4974660000000  0.5726910000000  0.5106270000000 1.0
C      1  0.5042030000000  0.4071990000000  0.4117380000000 1.0
C      1  0.5132900000000  0.5512270000000  0.4014720000000 1.0
C      1  0.4699400000000  0.4490840000000  0.5562530000000 1.0
C      1  0.5059720000000  0.5285980000000  0.4934390000000 1.0
C      1  0.3839790000000  0.4493340000000  0.4775380000000 1.0
C      1  0.4604290000000  0.5378430000000  0.5114060000000 1.0
C      1  0.5366900000000  0.4473620000000  0.4942450000000 1.0
C      1  0.5198950000000  0.4576650000000  0.4199410000000 1.0
C      1  0.6091630000000  0.4062520000000  0.5848180000000 1.0
C      1  0.4293630000000  0.5602950000000  0.4770560000000 1.0
END
