TITL C-627112-676-933 -8.07333134004486e-07 125000 -1104.54393409176 0 0 180 (C1) n - 1
REM
REM in /home/nfs/bkarasulu/CARBON/AIRSS/Generating-Clusters/LCBOP/Only-C1/SD-CG/FIRE-CG
REM
REM
REM
REM
REM
REM ./C.cell (11c1c37f851c82e70ff6c80c92926a4b)
REM AIRSS Version 0.9.1 bugfix July 2018 build 013d7b7c2542+ Fri, 06 Jul 2018 19:26:36 +0100
REM compiler GCC version 9.2.1 20190827 (Red Hat 9.2.1-1)
REM options -cpp -mtune=generic -march=x86-64 -g -O0 -fpre-include=/usr/include/finclude/math-vector-fortran.h
REM seed 1551944651 538284011 1166707430 -1855664671 240354969 -236767290 -1271700546 1915165998 1151251811 517192308 -1788510896 -915508810 185388861 -1143949953 -135609116 1798752789 2049366727 -1555178306 -588676288 346332583 86500941 -1339851487 1221043821 1710651360 473023080 541789839 2007095383 1746808834 -1349574085 -776714060 -1269145135 -1808886635 603561961
REM
CELL 1.54180   50.00000   50.00000   50.00000   90.00000   90.00000   90.00000
LATT -1
SFAC C  
C      1  0.4796120000000  0.4962030000000  0.3611180000000 1.0
C      1  0.5288020000000  0.5701410000000  0.5558320000000 1.0
C      1  0.4425560000000  0.5573420000000  0.3875470000000 1.0
C      1  0.5443330000000  0.6457290000000  0.5330950000000 1.0
C      1  0.4163530000000  0.5608350000000  0.5789500000000 1.0
C      1  0.4808380000000  0.5475060000000  0.6078470000000 1.0
C      1  0.5750920000000  0.5585040000000  0.5359420000000 1.0
C      1  0.4742680000000  0.4555410000000  0.4776430000000 1.0
C      1  0.6373860000000  0.4639900000000  0.4366640000000 1.0
C      1  0.3978290000000  0.4810200000000  0.5054220000000 1.0
C      1  0.4869450000000  0.3981820000000  0.4492720000000 1.0
C      1  0.4656450000000  0.3843610000000  0.5122370000000 1.0
C      1  0.5267610000000  0.5172880000000  0.5663200000000 1.0
C      1  0.4929890000000  0.5230090000000  0.5233540000000 1.0
C      1  0.4348290000000  0.5878750000000  0.5018430000000 1.0
C      1  0.4390680000000  0.5291260000000  0.3921730000000 1.0
C      1  0.4892510000000  0.6168250000000  0.4997610000000 1.0
C      1  0.5533890000000  0.4039070000000  0.6136860000000 1.0
C      1  0.4424000000000  0.3958890000000  0.4989010000000 1.0
C      1  0.5223190000000  0.5534780000000  0.4923220000000 1.0
C      1  0.4737800000000  0.5295840000000  0.4292590000000 1.0
C      1  0.4750740000000  0.5749690000000  0.4421670000000 1.0
C      1  0.3652380000000  0.4563210000000  0.5304100000000 1.0
C      1  0.5555310000000  0.5182780000000  0.5628790000000 1.0
C      1  0.5191560000000  0.6028520000000  0.4601280000000 1.0
C      1  0.4233880000000  0.5861790000000  0.4532790000000 1.0
C      1  0.4379540000000  0.5388530000000  0.6183500000000 1.0
C      1  0.4866390000000  0.5630310000000  0.3434730000000 1.0
C      1  0.5557860000000  0.4321310000000  0.6155730000000 1.0
C      1  0.5440200000000  0.5417810000000  0.6013460000000 1.0
C      1  0.5345820000000  0.4010460000000  0.4568250000000 1.0
C      1  0.5051010000000  0.5052220000000  0.3696570000000 1.0
C      1  0.6493810000000  0.4728670000000  0.4822070000000 1.0
C      1  0.5058490000000  0.4069860000000  0.6071320000000 1.0
C      1  0.5920360000000  0.5353340000000  0.5390750000000 1.0
C      1  0.5659510000000  0.5614790000000  0.5095510000000 1.0
C      1  0.4971930000000  0.4691570000000  0.5175990000000 1.0
C      1  0.4729140000000  0.4594750000000  0.5059350000000 1.0
C      1  0.5300780000000  0.5128790000000  0.4429230000000 1.0
C      1  0.4115260000000  0.5110570000000  0.5732950000000 1.0
C      1  0.5589770000000  0.4687830000000  0.4332950000000 1.0
C      1  0.4538210000000  0.4426790000000  0.5180770000000 1.0
C      1  0.4639490000000  0.3901550000000  0.5419020000000 1.0
C      1  0.5255060000000  0.5741310000000  0.4207360000000 1.0
C      1  0.4896190000000  0.3814790000000  0.4947230000000 1.0
C      1  0.4667300000000  0.4907130000000  0.5691240000000 1.0
C      1  0.5009050000000  0.4674560000000  0.5450440000000 1.0
C      1  0.5323090000000  0.4452430000000  0.6257100000000 1.0
C      1  0.4220940000000  0.5367410000000  0.5613050000000 1.0
C      1  0.4489980000000  0.5961370000000  0.5268540000000 1.0
C      1  0.4740380000000  0.5476230000000  0.4511950000000 1.0
C      1  0.5517690000000  0.4822650000000  0.3682410000000 1.0
C      1  0.5393670000000  0.5711450000000  0.5066710000000 1.0
C      1  0.3812930000000  0.5031100000000  0.4987760000000 1.0
C      1  0.4958440000000  0.4428300000000  0.5551660000000 1.0
C      1  0.4388820000000  0.4939340000000  0.4813930000000 1.0
C      1  0.5876520000000  0.4559950000000  0.5798710000000 1.0
C      1  0.6040940000000  0.4581650000000  0.4715500000000 1.0
C      1  0.5066730000000  0.4341980000000  0.6189660000000 1.0
C      1  0.5127770000000  0.4201050000000  0.5162550000000 1.0
C      1  0.5283200000000  0.5547740000000  0.4644910000000 1.0
C      1  0.4820760000000  0.4492610000000  0.6123490000000 1.0
C      1  0.5951350000000  0.4311710000000  0.4662790000000 1.0
C      1  0.3952950000000  0.4056560000000  0.4934460000000 1.0
C      1  0.5147280000000  0.4631360000000  0.3922800000000 1.0
C      1  0.6013590000000  0.4112830000000  0.4849820000000 1.0
C      1  0.4136980000000  0.5676590000000  0.4957330000000 1.0
C      1  0.5041650000000  0.4179920000000  0.5433280000000 1.0
C      1  0.4534270000000  0.4344450000000  0.4397530000000 1.0
C      1  0.4885200000000  0.5537180000000  0.3693330000000 1.0
C      1  0.5143680000000  0.4674600000000  0.4579350000000 1.0
C      1  0.5770150000000  0.4738880000000  0.5101450000000 1.0
C      1  0.5447420000000  0.5336270000000  0.4551410000000 1.0
C      1  0.4406880000000  0.4078870000000  0.5494760000000 1.0
C      1  0.4437330000000  0.4980990000000  0.5264690000000 1.0
C      1  0.5830780000000  0.4446260000000  0.3940510000000 1.0
C      1  0.4158390000000  0.3878350000000  0.4937540000000 1.0
C      1  0.5684710000000  0.5262800000000  0.4702920000000 1.0
C      1  0.5008800000000  0.4473610000000  0.4719790000000 1.0
C      1  0.5838130000000  0.5108440000000  0.4194200000000 1.0
C      1  0.4784140000000  0.5545530000000  0.5563080000000 1.0
C      1  0.4877650000000  0.3977210000000  0.5578400000000 1.0
C      1  0.5435980000000  0.5607110000000  0.4040080000000 1.0
C      1  0.4725040000000  0.6113820000000  0.5202150000000 1.0
C      1  0.5085960000000  0.5334700000000  0.3747120000000 1.0
C      1  0.4535700000000  0.4919140000000  0.3659560000000 1.0
C      1  0.5845270000000  0.5371230000000  0.4134500000000 1.0
C      1  0.4848130000000  0.4052910000000  0.5873270000000 1.0
C      1  0.4393030000000  0.5124720000000  0.6242750000000 1.0
C      1  0.4706930000000  0.5650760000000  0.3888830000000 1.0
C      1  0.5443070000000  0.6157920000000  0.4556280000000 1.0
C      1  0.4368780000000  0.4786610000000  0.4573370000000 1.0
C      1  0.5663330000000  0.6057130000000  0.4429130000000 1.0
C      1  0.4209280000000  0.5872470000000  0.4252120000000 1.0
C      1  0.4409540000000  0.5760400000000  0.5832460000000 1.0
C      1  0.4509890000000  0.4349090000000  0.5451310000000 1.0
C      1  0.5614330000000  0.5435420000000  0.5787360000000 1.0
C      1  0.3891650000000  0.4315200000000  0.4977180000000 1.0
C      1  0.5218220000000  0.4464610000000  0.4118950000000 1.0
C      1  0.5618360000000  0.4994350000000  0.3493680000000 1.0
C      1  0.4671290000000  0.4115500000000  0.4373660000000 1.0
C      1  0.5216610000000  0.5766110000000  0.4483640000000 1.0
C      1  0.4925180000000  0.4901010000000  0.5587730000000 1.0
C      1  0.5208890000000  0.5265250000000  0.5937870000000 1.0
C      1  0.5395670000000  0.6221000000000  0.5231760000000 1.0
C      1  0.4545880000000  0.5586490000000  0.6045240000000 1.0
C      1  0.5241770000000  0.4844560000000  0.3763380000000 1.0
C      1  0.5047750000000  0.5136530000000  0.5487670000000 1.0
C      1  0.4550650000000  0.5380390000000  0.4704840000000 1.0
C      1  0.5707430000000  0.5618080000000  0.4131950000000 1.0
C      1  0.5088800000000  0.4245420000000  0.4880110000000 1.0
C      1  0.5602570000000  0.4518900000000  0.5114870000000 1.0
C      1  0.5910600000000  0.4681230000000  0.5564130000000 1.0
C      1  0.4277760000000  0.5388760000000  0.4595400000000 1.0
C      1  0.4268600000000  0.5206780000000  0.4378740000000 1.0
C      1  0.3992260000000  0.5490960000000  0.5110390000000 1.0
C      1  0.4162640000000  0.4099690000000  0.5635680000000 1.0
C      1  0.4140520000000  0.5623740000000  0.4670800000000 1.0
C      1  0.4475530000000  0.4852230000000  0.6254520000000 1.0
C      1  0.4699080000000  0.4316070000000  0.5917150000000 1.0
C      1  0.6599810000000  0.4882890000000  0.5009910000000 1.0
C      1  0.5514940000000  0.4211040000000  0.4444730000000 1.0
C      1  0.5348780000000  0.5976670000000  0.5139180000000 1.0
C      1  0.5894480000000  0.4303230000000  0.4161860000000 1.0
C      1  0.5177690000000  0.4822630000000  0.5047770000000 1.0
C      1  0.4944330000000  0.5962710000000  0.5749110000000 1.0
C      1  0.4455360000000  0.4898870000000  0.5528880000000 1.0
C      1  0.4435270000000  0.4240800000000  0.4997830000000 1.0
C      1  0.6197300000000  0.5355880000000  0.5381320000000 1.0
C      1  0.4296850000000  0.4662380000000  0.6339910000000 1.0
C      1  0.5768570000000  0.5854100000000  0.4282220000000 1.0
C      1  0.4580280000000  0.5155550000000  0.4868830000000 1.0
C      1  0.5173350000000  0.5041120000000  0.4876060000000 1.0
C      1  0.4010670000000  0.4587530000000  0.5771340000000 1.0
C      1  0.4038210000000  0.4321910000000  0.5731790000000 1.0
C      1  0.5006740000000  0.5728740000000  0.5614320000000 1.0
C      1  0.5166410000000  0.4912730000000  0.6382660000000 1.0
C      1  0.4076130000000  0.5433990000000  0.5366560000000 1.0
C      1  0.4944180000000  0.4986720000000  0.6223620000000 1.0
C      1  0.5755670000000  0.4456470000000  0.6012020000000 1.0
C      1  0.5764580000000  0.5118430000000  0.5446550000000 1.0
C      1  0.4970730000000  0.5240340000000  0.6084340000000 1.0
C      1  0.4031630000000  0.4856510000000  0.5770990000000 1.0
C      1  0.4657840000000  0.5147460000000  0.5147690000000 1.0
C      1  0.5569150000000  0.5634850000000  0.5581810000000 1.0
C      1  0.5179230000000  0.4951530000000  0.4605370000000 1.0
C      1  0.5068160000000  0.3982390000000  0.4725080000000 1.0
C      1  0.6583580000000  0.5079490000000  0.5187550000000 1.0
C      1  0.4746350000000  0.4773510000000  0.6191290000000 1.0
C      1  0.4242210000000  0.4851940000000  0.4066280000000 1.0
C      1  0.5830110000000  0.4857260000000  0.5357490000000 1.0
C      1  0.5784210000000  0.4996320000000  0.4659700000000 1.0
C      1  0.4345560000000  0.5014810000000  0.3843870000000 1.0
C      1  0.5423280000000  0.4452830000000  0.4309460000000 1.0
C      1  0.4480040000000  0.5260360000000  0.4189940000000 1.0
C      1  0.4541100000000  0.4562830000000  0.4573010000000 1.0
C      1  0.4243920000000  0.4918110000000  0.4351030000000 1.0
C      1  0.5769060000000  0.5452790000000  0.4891400000000 1.0
C      1  0.5806100000000  0.4236670000000  0.4426920000000 1.0
C      1  0.5108730000000  0.5287350000000  0.5012260000000 1.0
C      1  0.4691900000000  0.4418140000000  0.5652920000000 1.0
C      1  0.5328760000000  0.5432960000000  0.3850450000000 1.0
C      1  0.5689190000000  0.4620980000000  0.3791010000000 1.0
C      1  0.4438220000000  0.5961920000000  0.4729210000000 1.0
C      1  0.4250800000000  0.5754990000000  0.4011710000000 1.0
C      1  0.3820010000000  0.5299140000000  0.4996090000000 1.0
C      1  0.4540670000000  0.5411430000000  0.5566810000000 1.0
C      1  0.4773680000000  0.5780630000000  0.4136260000000 1.0
C      1  0.4706730000000  0.5953280000000  0.4618190000000 1.0
C      1  0.4451980000000  0.5906570000000  0.5563840000000 1.0
C      1  0.5877230000000  0.4790770000000  0.4839010000000 1.0
C      1  0.6061970000000  0.3935530000000  0.5034560000000 1.0
C      1  0.3849510000000  0.4560460000000  0.5111560000000 1.0
C      1  0.6305730000000  0.4648570000000  0.4631590000000 1.0
C      1  0.5753660000000  0.4913700000000  0.4382400000000 1.0
C      1  0.4255040000000  0.4874600000000  0.5062050000000 1.0
C      1  0.4938710000000  0.6079690000000  0.4733020000000 1.0
C      1  0.5327460000000  0.4699090000000  0.6388660000000 1.0
C      1  0.5294570000000  0.3919090000000  0.6094530000000 1.0
C      1  0.6435000000000  0.5256510000000  0.5318250000000 1.0
END
