TITL C-627112-676-1586 -140.667036802628 125000 -1133.75306024082 0 0 185 (C1) n - 1
REM
REM in /home/nfs/bkarasulu/CARBON/AIRSS/Generating-Clusters/LCBOP/Only-C1/SD-CG/FIRE-CG
REM
REM
REM
REM
REM
REM ./C.cell (11c1c37f851c82e70ff6c80c92926a4b)
REM AIRSS Version 0.9.1 bugfix July 2018 build 013d7b7c2542+ Fri, 06 Jul 2018 19:26:36 +0100
REM compiler GCC version 9.2.1 20190827 (Red Hat 9.2.1-1)
REM options -cpp -mtune=generic -march=x86-64 -g -O0 -fpre-include=/usr/include/finclude/math-vector-fortran.h
REM seed 1162312267 349762172 -535300458 -1133386699 38576098 -1482573784 -1778538376 941337174 -2137405430 731480586 -392173282 1100704836 -253406879 586863438 -398410551 732094363 1426691366 1984471971 160349161 1162403818 -502263131 1155651747 -1339619940 1030300329 874574049 576399576 551283135 738046514 106294344 -1245514699 639467758 -1855010127 545037712
REM
CELL 1.54180   50.00000   50.00000   50.00000   90.00000   90.00000   90.00000
LATT -1
SFAC C  
C      1  0.6082710000000  0.4707710000000  0.4480150000000 1.0
C      1  0.5233830000000  0.4657060000000  0.3866210000000 1.0
C      1  0.4870290000000  0.4334940000000  0.4808690000000 1.0
C      1  0.4145580000000  0.4139250000000  0.5134410000000 1.0
C      1  0.4819410000000  0.3650200000000  0.5504880000000 1.0
C      1  0.4716320000000  0.4389630000000  0.6056040000000 1.0
C      1  0.4027470000000  0.6244980000000  0.5902800000000 1.0
C      1  0.5146360000000  0.5006990000000  0.4889320000000 1.0
C      1  0.4399230000000  0.6345320000000  0.3123320000000 1.0
C      1  0.4747160000000  0.5482890000000  0.5293270000000 1.0
C      1  0.4456880000000  0.4368770000000  0.5930930000000 1.0
C      1  0.4479590000000  0.5613060000000  0.5696110000000 1.0
C      1  0.5883700000000  0.5330790000000  0.5968470000000 1.0
C      1  0.5259330000000  0.3634620000000  0.4928870000000 1.0
C      1  0.5821120000000  0.6255350000000  0.4424190000000 1.0
C      1  0.5527580000000  0.5901140000000  0.4304620000000 1.0
C      1  0.5691770000000  0.4716810000000  0.5784630000000 1.0
C      1  0.5587360000000  0.4876290000000  0.6007950000000 1.0
C      1  0.5623630000000  0.5173070000000  0.5590160000000 1.0
C      1  0.6027680000000  0.3575820000000  0.5538070000000 1.0
C      1  0.4900410000000  0.5002660000000  0.5443190000000 1.0
C      1  0.4894550000000  0.5935950000000  0.4685080000000 1.0
C      1  0.4923770000000  0.5708110000000  0.6011490000000 1.0
C      1  0.5292700000000  0.5058490000000  0.4265990000000 1.0
C      1  0.3893140000000  0.6663030000000  0.2605400000000 1.0
C      1  0.4826230000000  0.5316800000000  0.4092440000000 1.0
C      1  0.3675220000000  0.4963590000000  0.5161720000000 1.0
C      1  0.5384120000000  0.5550660000000  0.5567630000000 1.0
C      1  0.4884450000000  0.4587260000000  0.6458680000000 1.0
C      1  0.4842010000000  0.5361010000000  0.4669580000000 1.0
C      1  0.5818970000000  0.5576640000000  0.5850580000000 1.0
C      1  0.4799610000000  0.5934910000000  0.5450580000000 1.0
C      1  0.4946080000000  0.4197460000000  0.4366400000000 1.0
C      1  0.4568590000000  0.6238850000000  0.3297110000000 1.0
C      1  0.4664310000000  0.5097550000000  0.3978200000000 1.0
C      1  0.5794310000000  0.3643980000000  0.5444110000000 1.0
C      1  0.4727690000000  0.4393210000000  0.4005650000000 1.0
C      1  0.4906210000000  0.6025440000000  0.3645260000000 1.0
C      1  0.4671410000000  0.4684880000000  0.5674060000000 1.0
C      1  0.3549540000000  0.4813810000000  0.4365600000000 1.0
C      1  0.5922190000000  0.5320510000000  0.4057610000000 1.0
C      1  0.4804030000000  0.6175790000000  0.6068260000000 1.0
C      1  0.5085460000000  0.4167170000000  0.5644380000000 1.0
C      1  0.4753170000000  0.5649280000000  0.5554150000000 1.0
C      1  0.5409180000000  0.4731770000000  0.4621070000000 1.0
C      1  0.4177840000000  0.5275600000000  0.5933560000000 1.0
C      1  0.4581730000000  0.3980400000000  0.4966500000000 1.0
C      1  0.3799090000000  0.4887220000000  0.4381340000000 1.0
C      1  0.5548560000000  0.3691770000000  0.5323910000000 1.0
C      1  0.5447240000000  0.5263740000000  0.5201210000000 1.0
C      1  0.5058260000000  0.4347590000000  0.4588620000000 1.0
C      1  0.4892500000000  0.5282770000000  0.4385330000000 1.0
C      1  0.4566630000000  0.5362040000000  0.4740890000000 1.0
C      1  0.5330120000000  0.4508230000000  0.5028290000000 1.0
C      1  0.5688320000000  0.4925830000000  0.4006710000000 1.0
C      1  0.4317240000000  0.5827020000000  0.5770990000000 1.0
C      1  0.5057720000000  0.5863610000000  0.4488470000000 1.0
C      1  0.4372530000000  0.5417980000000  0.4959370000000 1.0
C      1  0.4645300000000  0.4182800000000  0.4439250000000 1.0
C      1  0.5174450000000  0.5281900000000  0.6088120000000 1.0
C      1  0.4437980000000  0.4760370000000  0.4904750000000 1.0
C      1  0.5217330000000  0.5168210000000  0.3812280000000 1.0
C      1  0.5101480000000  0.4904750000000  0.3814960000000 1.0
C      1  0.5503030000000  0.3640110000000  0.5048080000000 1.0
C      1  0.5657960000000  0.5165330000000  0.6057190000000 1.0
C      1  0.4090890000000  0.4595770000000  0.5718520000000 1.0
C      1  0.4737640000000  0.6132250000000  0.3471120000000 1.0
C      1  0.4535660000000  0.4371970000000  0.4231210000000 1.0
C      1  0.5402480000000  0.4735450000000  0.6188520000000 1.0
C      1  0.4988440000000  0.4297620000000  0.4097660000000 1.0
C      1  0.5232110000000  0.4502770000000  0.6128560000000 1.0
C      1  0.5373510000000  0.4989100000000  0.5254720000000 1.0
C      1  0.5021640000000  0.3678040000000  0.5074040000000 1.0
C      1  0.4218600000000  0.4812900000000  0.6129950000000 1.0
C      1  0.4684740000000  0.3876190000000  0.5599330000000 1.0
C      1  0.4857260000000  0.5925850000000  0.6150960000000 1.0
C      1  0.5318670000000  0.4004050000000  0.5648400000000 1.0
C      1  0.5411850000000  0.4814060000000  0.6454080000000 1.0
C      1  0.5345740000000  0.5268490000000  0.5654920000000 1.0
C      1  0.4696300000000  0.4529780000000  0.5220660000000 1.0
C      1  0.5947930000000  0.4285090000000  0.5847980000000 1.0
C      1  0.5238640000000  0.4419060000000  0.4026320000000 1.0
C      1  0.4024200000000  0.4392390000000  0.5153280000000 1.0
C      1  0.4065690000000  0.4962020000000  0.4406920000000 1.0
C      1  0.5897120000000  0.5790580000000  0.4571810000000 1.0
C      1  0.3638830000000  0.4713010000000  0.5072280000000 1.0
C      1  0.5734230000000  0.5178350000000  0.3872890000000 1.0
C      1  0.5543030000000  0.5625630000000  0.5817870000000 1.0
C      1  0.4142110000000  0.5069700000000  0.6104450000000 1.0
C      1  0.5395290000000  0.6263530000000  0.4069520000000 1.0
C      1  0.4194660000000  0.4593750000000  0.5263740000000 1.0
C      1  0.5796760000000  0.4668910000000  0.4022550000000 1.0
C      1  0.4857790000000  0.4040260000000  0.5747620000000 1.0
C      1  0.5710590000000  0.5262150000000  0.5326200000000 1.0
C      1  0.4826890000000  0.6264230000000  0.5815750000000 1.0
C      1  0.4619750000000  0.5145130000000  0.5842580000000 1.0
C      1  0.5012230000000  0.5277480000000  0.4897310000000 1.0
C      1  0.5314670000000  0.3779060000000  0.5467240000000 1.0
C      1  0.5160130000000  0.4608060000000  0.4534610000000 1.0
C      1  0.5042560000000  0.5039250000000  0.4374040000000 1.0
C      1  0.5365560000000  0.4263710000000  0.6049550000000 1.0
C      1  0.5604720000000  0.6184750000000  0.4254680000000 1.0
C      1  0.5107600000000  0.5310260000000  0.5808430000000 1.0
C      1  0.4229680000000  0.6451760000000  0.2949690000000 1.0
C      1  0.5443270000000  0.5365720000000  0.6085700000000 1.0
C      1  0.4060020000000  0.6558260000000  0.2776100000000 1.0
C      1  0.4264470000000  0.4599780000000  0.5954570000000 1.0
C      1  0.5007650000000  0.5447790000000  0.5150070000000 1.0
C      1  0.4945900000000  0.4491870000000  0.6199940000000 1.0
C      1  0.4731950000000  0.5983170000000  0.5179670000000 1.0
C      1  0.5656100000000  0.4607130000000  0.4719390000000 1.0
C      1  0.4463410000000  0.4635140000000  0.4317480000000 1.0
C      1  0.4129130000000  0.4758030000000  0.5487640000000 1.0
C      1  0.5769410000000  0.4084210000000  0.5854050000000 1.0
C      1  0.4443270000000  0.5134990000000  0.4619190000000 1.0
C      1  0.4789870000000  0.4510440000000  0.5486460000000 1.0
C      1  0.5278160000000  0.5500340000000  0.5276180000000 1.0
C      1  0.5302610000000  0.4239670000000  0.5075910000000 1.0
C      1  0.4800120000000  0.4669460000000  0.6691190000000 1.0
C      1  0.5174470000000  0.6237830000000  0.5485950000000 1.0
C      1  0.4460450000000  0.4018010000000  0.5496310000000 1.0
C      1  0.4111900000000  0.5331990000000  0.4832680000000 1.0
C      1  0.5402440000000  0.5006070000000  0.4742460000000 1.0
C      1  0.5594690000000  0.4777770000000  0.5262250000000 1.0
C      1  0.4316180000000  0.5240860000000  0.5442930000000 1.0
C      1  0.5160980000000  0.4897210000000  0.5429080000000 1.0
C      1  0.3858710000000  0.5103480000000  0.5299930000000 1.0
C      1  0.4276830000000  0.4847910000000  0.4235000000000 1.0
C      1  0.5722700000000  0.4487620000000  0.4233480000000 1.0
C      1  0.5163440000000  0.5640050000000  0.3808940000000 1.0
C      1  0.4762160000000  0.5029380000000  0.5209780000000 1.0
C      1  0.4547200000000  0.4887560000000  0.4689150000000 1.0
C      1  0.5916110000000  0.4551230000000  0.5829010000000 1.0
C      1  0.5910530000000  0.5267570000000  0.5129820000000 1.0
C      1  0.5242240000000  0.5889020000000  0.4283540000000 1.0
C      1  0.4942360000000  0.5550600000000  0.5772830000000 1.0
C      1  0.5058670000000  0.4432220000000  0.5554840000000 1.0
C      1  0.5489200000000  0.4084890000000  0.5862390000000 1.0
C      1  0.4468680000000  0.5384560000000  0.5228950000000 1.0
C      1  0.4813430000000  0.4885900000000  0.3844670000000 1.0
C      1  0.5601740000000  0.4614720000000  0.5018160000000 1.0
C      1  0.4395750000000  0.5323400000000  0.5731720000000 1.0
C      1  0.5248300000000  0.4644390000000  0.5552490000000 1.0
C      1  0.5559460000000  0.5013530000000  0.4249200000000 1.0
C      1  0.4737470000000  0.4955710000000  0.5670740000000 1.0
C      1  0.5866100000000  0.5590120000000  0.4120210000000 1.0
C      1  0.4934130000000  0.6148740000000  0.5583010000000 1.0
C      1  0.5189460000000  0.6055550000000  0.4045120000000 1.0
C      1  0.5081770000000  0.5910960000000  0.3827830000000 1.0
C      1  0.4949960000000  0.4786740000000  0.4448470000000 1.0
C      1  0.5038720000000  0.5395600000000  0.3908750000000 1.0
C      1  0.4165700000000  0.6034240000000  0.5836230000000 1.0
C      1  0.4080050000000  0.4309910000000  0.5662380000000 1.0
C      1  0.4442430000000  0.4624400000000  0.5144200000000 1.0
C      1  0.5736260000000  0.5134290000000  0.4434420000000 1.0
C      1  0.6176520000000  0.5205290000000  0.5180300000000 1.0
C      1  0.4641740000000  0.4163960000000  0.4743950000000 1.0
C      1  0.4105250000000  0.5040620000000  0.5424870000000 1.0
C      1  0.4878360000000  0.4532990000000  0.5006780000000 1.0
C      1  0.5106570000000  0.4707040000000  0.4991410000000 1.0
C      1  0.5992530000000  0.5163450000000  0.4301420000000 1.0
C      1  0.5428160000000  0.5564480000000  0.3715430000000 1.0
C      1  0.4342060000000  0.4189410000000  0.5704260000000 1.0
C      1  0.6423340000000  0.5136580000000  0.5227870000000 1.0
C      1  0.4777440000000  0.5986410000000  0.4917950000000 1.0
C      1  0.5491020000000  0.5284400000000  0.3758450000000 1.0
C      1  0.5544620000000  0.4665790000000  0.5541300000000 1.0
C      1  0.4402240000000  0.4030470000000  0.5200810000000 1.0
C      1  0.4771180000000  0.3768000000000  0.4983700000000 1.0
C      1  0.5900750000000  0.5587410000000  0.4763770000000 1.0
C      1  0.5815790000000  0.5336240000000  0.4865600000000 1.0
C      1  0.4710510000000  0.5158730000000  0.6112750000000 1.0
C      1  0.5060520000000  0.3675570000000  0.5360070000000 1.0
C      1  0.4157140000000  0.5151160000000  0.4604010000000 1.0
C      1  0.5838100000000  0.4557030000000  0.4498520000000 1.0
C      1  0.4671420000000  0.4746320000000  0.4484810000000 1.0
C      1  0.4399230000000  0.5032710000000  0.4052980000000 1.0
C      1  0.6161110000000  0.4946830000000  0.4372560000000 1.0
C      1  0.5643520000000  0.5167710000000  0.4700620000000 1.0
C      1  0.3771190000000  0.4479060000000  0.5069030000000 1.0
C      1  0.4950100000000  0.5199740000000  0.6234100000000 1.0
C      1  0.5478960000000  0.4355400000000  0.4169460000000 1.0
C      1  0.5948350000000  0.6072250000000  0.4586520000000 1.0
C      1  0.5749560000000  0.5731720000000  0.4332170000000 1.0
C      1  0.4710870000000  0.4620020000000  0.3836970000000 1.0
END
