TITL C-627109-622-1808 0.00156102259671206 125000 -766.455594795113 0 0 125 (C1) n - 1
REM
REM in /home/nfs/bkarasulu/CARBON/AIRSS/Generating-Clusters/LCBOP/Only-C1/SD-CG/FIRE-CG
REM
REM
REM
REM
REM
REM ./C.cell (11c1c37f851c82e70ff6c80c92926a4b)
REM AIRSS Version 0.9.1 bugfix July 2018 build 013d7b7c2542+ Fri, 06 Jul 2018 19:26:36 +0100
REM compiler GCC version 9.2.1 20190827 (Red Hat 9.2.1-1)
REM options -cpp -mtune=generic -march=x86-64 -g -O0 -fpre-include=/usr/include/finclude/math-vector-fortran.h
REM seed 1685350486 -1244265056 849593361 -124043932 335556944 -950508089 148679637 -164577072 1062554028 1620520259 1353473324 -1204523388 1534725618 152359817 -431596376 468223561 33787299 -2114034600 -1445395376 1177840375 1423815690 721060509 -492517969 1043190698 -1616577704 969318106 1139166866 638665903 1485007061 -903002833 1034180520 783242857 20773194
REM
CELL 1.54180   50.00000   50.00000   50.00000   90.00000   90.00000   90.00000
LATT -1
SFAC C  
C      1  0.4704510000000  0.5425360000000  0.5988000000000 1.0
C      1  0.5388000000000  0.5613100000000  0.5090830000000 1.0
C      1  0.5060800000000  0.3964980000000  0.4366130000000 1.0
C      1  0.5839740000000  0.5049030000000  0.4909700000000 1.0
C      1  0.4876190000000  0.5768330000000  0.5141840000000 1.0
C      1  0.4503720000000  0.5421540000000  0.5118760000000 1.0
C      1  0.4997930000000  0.5403720000000  0.4420090000000 1.0
C      1  0.5229160000000  0.5118700000000  0.4134840000000 1.0
C      1  0.5750810000000  0.5226630000000  0.5658130000000 1.0
C      1  0.5367470000000  0.4509900000000  0.4855870000000 1.0
C      1  0.5434660000000  0.4961150000000  0.5432150000000 1.0
C      1  0.5145620000000  0.4069340000000  0.4902800000000 1.0
C      1  0.5275220000000  0.5402580000000  0.5495450000000 1.0
C      1  0.4123580000000  0.5715630000000  0.5051940000000 1.0
C      1  0.5417040000000  0.5343930000000  0.4998550000000 1.0
C      1  0.4935500000000  0.5833850000000  0.5421850000000 1.0
C      1  0.5236560000000  0.4317610000000  0.5621800000000 1.0
C      1  0.4933260000000  0.5560180000000  0.5863610000000 1.0
C      1  0.5122060000000  0.4533900000000  0.5486560000000 1.0
C      1  0.3870930000000  0.5053660000000  0.4717860000000 1.0
C      1  0.4804550000000  0.5744140000000  0.5655650000000 1.0
C      1  0.5319430000000  0.5818220000000  0.4907970000000 1.0
C      1  0.5208740000000  0.5551060000000  0.5953520000000 1.0
C      1  0.3983260000000  0.5322330000000  0.4313040000000 1.0
C      1  0.4527280000000  0.5766740000000  0.5732970000000 1.0
C      1  0.5128350000000  0.4557450000000  0.4666580000000 1.0
C      1  0.6097000000000  0.5550310000000  0.5572450000000 1.0
C      1  0.4717210000000  0.4991590000000  0.5750750000000 1.0
C      1  0.4470830000000  0.5585310000000  0.5933090000000 1.0
C      1  0.5541770000000  0.4792540000000  0.5238370000000 1.0
C      1  0.5374220000000  0.4760880000000  0.5014050000000 1.0
C      1  0.4260310000000  0.5325820000000  0.4231200000000 1.0
C      1  0.4493890000000  0.4435080000000  0.5438400000000 1.0
C      1  0.5865190000000  0.4435370000000  0.5310870000000 1.0
C      1  0.5234170000000  0.4395570000000  0.4242900000000 1.0
C      1  0.4984630000000  0.5002710000000  0.5585880000000 1.0
C      1  0.5314680000000  0.3895270000000  0.4488670000000 1.0
C      1  0.5343630000000  0.5639670000000  0.5364680000000 1.0
C      1  0.5707600000000  0.5464350000000  0.4487750000000 1.0
C      1  0.4696530000000  0.5146170000000  0.6008530000000 1.0
C      1  0.5861370000000  0.4970830000000  0.4340080000000 1.0
C      1  0.3739750000000  0.6304460000000  0.5413420000000 1.0
C      1  0.4075770000000  0.4870630000000  0.4800800000000 1.0
C      1  0.4973730000000  0.4760230000000  0.5435700000000 1.0
C      1  0.5677820000000  0.4478860000000  0.4420170000000 1.0
C      1  0.5553140000000  0.3890250000000  0.4976870000000 1.0
C      1  0.5527230000000  0.4019650000000  0.4342670000000 1.0
C      1  0.4527450000000  0.4850150000000  0.4503110000000 1.0
C      1  0.4799330000000  0.4749590000000  0.5223380000000 1.0
C      1  0.5226150000000  0.5132880000000  0.5523490000000 1.0
C      1  0.5219680000000  0.5872540000000  0.5470990000000 1.0
C      1  0.4841580000000  0.5277280000000  0.4615740000000 1.0
C      1  0.5530230000000  0.4124740000000  0.5163420000000 1.0
C      1  0.4456730000000  0.4230720000000  0.4873740000000 1.0
C      1  0.5891820000000  0.5637810000000  0.4965350000000 1.0
C      1  0.5000140000000  0.4226810000000  0.4260590000000 1.0
C      1  0.5228100000000  0.4766130000000  0.6018820000000 1.0
C      1  0.4626920000000  0.4445600000000  0.5697280000000 1.0
C      1  0.4464990000000  0.5245880000000  0.5336580000000 1.0
C      1  0.3989860000000  0.5913520000000  0.5166390000000 1.0
C      1  0.5172890000000  0.5212740000000  0.4950020000000 1.0
C      1  0.5157730000000  0.4936000000000  0.4966800000000 1.0
C      1  0.5561240000000  0.5117230000000  0.5860890000000 1.0
C      1  0.5809570000000  0.4691150000000  0.5213070000000 1.0
C      1  0.5520110000000  0.4345530000000  0.5629380000000 1.0
C      1  0.4397460000000  0.5317260000000  0.4488520000000 1.0
C      1  0.5890560000000  0.5399840000000  0.5464860000000 1.0
C      1  0.5335780000000  0.5806400000000  0.5936670000000 1.0
C      1  0.5241070000000  0.5360360000000  0.4284700000000 1.0
C      1  0.4069330000000  0.4571420000000  0.5250270000000 1.0
C      1  0.4924910000000  0.5339350000000  0.4882250000000 1.0
C      1  0.4677680000000  0.4398880000000  0.4943920000000 1.0
C      1  0.4265900000000  0.4756300000000  0.4614490000000 1.0
C      1  0.5810460000000  0.4707860000000  0.4324060000000 1.0
C      1  0.4973730000000  0.4672230000000  0.5997800000000 1.0
C      1  0.3960970000000  0.5294770000000  0.4602500000000 1.0
C      1  0.5322230000000  0.5965600000000  0.5716710000000 1.0
C      1  0.5378140000000  0.5317650000000  0.5974120000000 1.0
C      1  0.5486680000000  0.4824280000000  0.5900570000000 1.0
C      1  0.4051910000000  0.4759660000000  0.5059900000000 1.0
C      1  0.4861360000000  0.5163920000000  0.3731900000000 1.0
C      1  0.5191510000000  0.4631450000000  0.4397220000000 1.0
C      1  0.4777450000000  0.4209880000000  0.5765870000000 1.0
C      1  0.5242360000000  0.4879490000000  0.4281810000000 1.0
C      1  0.4646880000000  0.5025910000000  0.6249500000000 1.0
C      1  0.5502150000000  0.5834180000000  0.4690610000000 1.0
C      1  0.4515420000000  0.5090700000000  0.5549240000000 1.0
C      1  0.5457560000000  0.5533410000000  0.4346750000000 1.0
C      1  0.4243130000000  0.4357020000000  0.5314050000000 1.0
C      1  0.5682960000000  0.5246740000000  0.5032040000000 1.0
C      1  0.4616060000000  0.5240170000000  0.3846360000000 1.0
C      1  0.3605530000000  0.4996320000000  0.4745920000000 1.0
C      1  0.4220140000000  0.5390790000000  0.4706380000000 1.0
C      1  0.4206250000000  0.4483040000000  0.4556990000000 1.0
C      1  0.4282560000000  0.5505890000000  0.4956200000000 1.0
C      1  0.5330170000000  0.3881190000000  0.4774980000000 1.0
C      1  0.5747800000000  0.5661630000000  0.4713410000000 1.0
C      1  0.4284090000000  0.4171530000000  0.5095530000000 1.0
C      1  0.4876620000000  0.4570960000000  0.4804120000000 1.0
C      1  0.4651780000000  0.4512850000000  0.5211560000000 1.0
C      1  0.3863250000000  0.6110740000000  0.5290190000000 1.0
C      1  0.5839830000000  0.5227730000000  0.4413930000000 1.0
C      1  0.5396910000000  0.5808890000000  0.4422290000000 1.0
C      1  0.4905110000000  0.4811100000000  0.4970900000000 1.0
C      1  0.5089520000000  0.5125370000000  0.3891270000000 1.0
C      1  0.4894120000000  0.5090000000000  0.3197920000000 1.0
C      1  0.4727070000000  0.4687540000000  0.5833980000000 1.0
C      1  0.4402160000000  0.5297780000000  0.3994510000000 1.0
C      1  0.5617450000000  0.4475650000000  0.4697380000000 1.0
C      1  0.4606630000000  0.5132900000000  0.4538020000000 1.0
C      1  0.4535070000000  0.4184590000000  0.4394700000000 1.0
C      1  0.4878360000000  0.5125720000000  0.3455600000000 1.0
C      1  0.5049420000000  0.5899920000000  0.4948700000000 1.0
C      1  0.5604320000000  0.4584170000000  0.5780670000000 1.0
C      1  0.4741840000000  0.4358380000000  0.4303210000000 1.0
C      1  0.5658730000000  0.4256460000000  0.5386830000000 1.0
C      1  0.4363180000000  0.4253720000000  0.4606490000000 1.0
C      1  0.5954680000000  0.4831050000000  0.5018610000000 1.0
C      1  0.4675830000000  0.4644110000000  0.4349540000000 1.0
C      1  0.5042660000000  0.4152080000000  0.5742810000000 1.0
C      1  0.5507970000000  0.4296670000000  0.4273290000000 1.0
C      1  0.4768560000000  0.5511840000000  0.5054290000000 1.0
C      1  0.5307990000000  0.4271760000000  0.5030380000000 1.0
C      1  0.5845150000000  0.5438610000000  0.5177750000000 1.0
C      1  0.5276260000000  0.5999390000000  0.4272080000000 1.0
END
