TITL C-627111-6168-1008 9.04996012437492e-07 125000 -703.751070226055 0 0 116 (C1) n - 1
REM
REM in /home/nfs/bkarasulu/CARBON/AIRSS/Generating-Clusters/LCBOP/Only-C1/SD-CG/FIRE-CG
REM
REM
REM
REM
REM
REM ./C.cell (11c1c37f851c82e70ff6c80c92926a4b)
REM AIRSS Version 0.9.1 bugfix July 2018 build 013d7b7c2542+ Fri, 06 Jul 2018 19:26:36 +0100
REM compiler GCC version 9.2.1 20190827 (Red Hat 9.2.1-1)
REM options -cpp -mtune=generic -march=x86-64 -g -O0 -fpre-include=/usr/include/finclude/math-vector-fortran.h
REM seed -792550598 -1189686432 -25235205 -284360965 -305654679 822730738 1689893623 -2086813992 1457440096 -1945762758 487354490 1282527090 -967634887 -745319162 29888999 214519847 -1607808550 636664326 1969386627 767438774 -762293642 594132051 -1828241967 1793662762 -1073665530 -625625118 -104372636 -1257738115 196634437 -495499311 2068371847 -1512760001 1468513659
REM
CELL 1.54180   50.00000   50.00000   50.00000   90.00000   90.00000   90.00000
LATT -1
SFAC C  
C      1  0.5256310000000  0.5901380000000  0.5166220000000 1.0
C      1  0.4713910000000  0.5117240000000  0.5474580000000 1.0
C      1  0.4792330000000  0.6630340000000  0.4864910000000 1.0
C      1  0.5750430000000  0.5607630000000  0.5000660000000 1.0
C      1  0.4647350000000  0.4546370000000  0.5869520000000 1.0
C      1  0.5728240000000  0.4288740000000  0.4555060000000 1.0
C      1  0.5111060000000  0.5321200000000  0.5867640000000 1.0
C      1  0.5237640000000  0.5159040000000  0.3836000000000 1.0
C      1  0.5749050000000  0.5331360000000  0.5030310000000 1.0
C      1  0.5805720000000  0.5855590000000  0.4942130000000 1.0
C      1  0.4083680000000  0.4502080000000  0.4544780000000 1.0
C      1  0.4552820000000  0.4811570000000  0.5837160000000 1.0
C      1  0.4539700000000  0.5738760000000  0.5580080000000 1.0
C      1  0.4970440000000  0.5157630000000  0.3828790000000 1.0
C      1  0.5193530000000  0.4194120000000  0.5333180000000 1.0
C      1  0.5251050000000  0.4451510000000  0.5440330000000 1.0
C      1  0.5128840000000  0.3986780000000  0.5499710000000 1.0
C      1  0.5018970000000  0.5647050000000  0.4486750000000 1.0
C      1  0.4304920000000  0.5676910000000  0.5417870000000 1.0
C      1  0.5103370000000  0.5667240000000  0.5211770000000 1.0
C      1  0.4877850000000  0.5035570000000  0.5245430000000 1.0
C      1  0.4268190000000  0.5633200000000  0.4923020000000 1.0
C      1  0.6240440000000  0.4993650000000  0.5778910000000 1.0
C      1  0.5053680000000  0.4118730000000  0.4815600000000 1.0
C      1  0.4719860000000  0.5026280000000  0.5749030000000 1.0
C      1  0.6364780000000  0.4866320000000  0.5288700000000 1.0
C      1  0.4235100000000  0.5778480000000  0.5155930000000 1.0
C      1  0.4285930000000  0.4832430000000  0.5744540000000 1.0
C      1  0.5175240000000  0.5471270000000  0.5403650000000 1.0
C      1  0.4878950000000  0.5215910000000  0.5022410000000 1.0
C      1  0.4344190000000  0.4412660000000  0.5029630000000 1.0
C      1  0.4669620000000  0.5424860000000  0.5095610000000 1.0
C      1  0.4634130000000  0.4654680000000  0.4009360000000 1.0
C      1  0.4536660000000  0.5301050000000  0.5349680000000 1.0
C      1  0.4716240000000  0.5127650000000  0.3945800000000 1.0
C      1  0.4677070000000  0.4911490000000  0.4126250000000 1.0
C      1  0.5043460000000  0.5511710000000  0.5660690000000 1.0
C      1  0.4507150000000  0.5286120000000  0.3869310000000 1.0
C      1  0.4642760000000  0.4311400000000  0.5708080000000 1.0
C      1  0.5095260000000  0.5384730000000  0.4589170000000 1.0
C      1  0.5248840000000  0.4101280000000  0.4596150000000 1.0
C      1  0.4938180000000  0.4686650000000  0.4480750000000 1.0
C      1  0.3945690000000  0.4633830000000  0.4769810000000 1.0
C      1  0.5723800000000  0.4898900000000  0.5631410000000 1.0
C      1  0.4892280000000  0.5154030000000  0.5930360000000 1.0
C      1  0.4045870000000  0.5251440000000  0.5266980000000 1.0
C      1  0.4893750000000  0.6172210000000  0.4996580000000 1.0
C      1  0.5968930000000  0.5174580000000  0.4930010000000 1.0
C      1  0.5952610000000  0.4617940000000  0.5278830000000 1.0
C      1  0.4935320000000  0.4745960000000  0.5235760000000 1.0
C      1  0.5432330000000  0.5386020000000  0.4220500000000 1.0
C      1  0.5468780000000  0.5000200000000  0.5711900000000 1.0
C      1  0.5282510000000  0.4976300000000  0.5493200000000 1.0
C      1  0.4302130000000  0.4924260000000  0.4844940000000 1.0
C      1  0.3998940000000  0.4940870000000  0.4817900000000 1.0
C      1  0.5904080000000  0.4344860000000  0.5245170000000 1.0
C      1  0.5329660000000  0.5268650000000  0.4472780000000 1.0
C      1  0.5370940000000  0.5198320000000  0.5892560000000 1.0
C      1  0.4698230000000  0.5096340000000  0.4603840000000 1.0
C      1  0.5962860000000  0.4947460000000  0.5768610000000 1.0
C      1  0.4245310000000  0.4816910000000  0.5478260000000 1.0
C      1  0.5229100000000  0.5790040000000  0.4356730000000 1.0
C      1  0.5162550000000  0.6140910000000  0.5079950000000 1.0
C      1  0.4265990000000  0.5384890000000  0.5392650000000 1.0
C      1  0.5365440000000  0.4814780000000  0.4688240000000 1.0
C      1  0.6041370000000  0.4897880000000  0.4902300000000 1.0
C      1  0.4936490000000  0.4461490000000  0.4308320000000 1.0
C      1  0.4450660000000  0.4249900000000  0.5226250000000 1.0
C      1  0.4778250000000  0.4439240000000  0.4089450000000 1.0
C      1  0.5580050000000  0.4787820000000  0.4872170000000 1.0
C      1  0.4541360000000  0.4209290000000  0.4637570000000 1.0
C      1  0.5484330000000  0.4933810000000  0.4200240000000 1.0
C      1  0.4709480000000  0.6018680000000  0.4442620000000 1.0
C      1  0.4452620000000  0.5148600000000  0.4747580000000 1.0
C      1  0.5844290000000  0.4738000000000  0.4764550000000 1.0
C      1  0.5521030000000  0.4147000000000  0.4677590000000 1.0
C      1  0.5105010000000  0.4702610000000  0.4710950000000 1.0
C      1  0.5417200000000  0.5664950000000  0.4207340000000 1.0
C      1  0.5172280000000  0.4721530000000  0.5415720000000 1.0
C      1  0.4624780000000  0.4357580000000  0.5427990000000 1.0
C      1  0.5736420000000  0.4785950000000  0.5361990000000 1.0
C      1  0.4738920000000  0.5939140000000  0.5047950000000 1.0
C      1  0.4921570000000  0.5218570000000  0.4740560000000 1.0
C      1  0.4684650000000  0.4625990000000  0.5348080000000 1.0
C      1  0.4760360000000  0.4906040000000  0.4403490000000 1.0
C      1  0.4996520000000  0.4656600000000  0.4963510000000 1.0
C      1  0.4037700000000  0.4653420000000  0.4305910000000 1.0
C      1  0.4619970000000  0.3815720000000  0.5927770000000 1.0
C      1  0.3919990000000  0.5053960000000  0.4549970000000 1.0
C      1  0.4304050000000  0.4321350000000  0.4566500000000 1.0
C      1  0.5536980000000  0.5182810000000  0.5153880000000 1.0
C      1  0.4755910000000  0.5741950000000  0.4432980000000 1.0
C      1  0.6152610000000  0.4768010000000  0.5134570000000 1.0
C      1  0.5405360000000  0.4988630000000  0.4472180000000 1.0
C      1  0.4637580000000  0.4057200000000  0.5820180000000 1.0
C      1  0.5230980000000  0.4143320000000  0.5055610000000 1.0
C      1  0.4778090000000  0.4144190000000  0.4753790000000 1.0
C      1  0.4555690000000  0.5578180000000  0.4346060000000 1.0
C      1  0.4725430000000  0.6255540000000  0.4563060000000 1.0
C      1  0.5439030000000  0.5165390000000  0.4030050000000 1.0
C      1  0.5868380000000  0.4514600000000  0.4596990000000 1.0
C      1  0.5510330000000  0.4137080000000  0.4967920000000 1.0
C      1  0.4445550000000  0.5409910000000  0.4886710000000 1.0
C      1  0.4826950000000  0.5679870000000  0.5119730000000 1.0
C      1  0.4803790000000  0.6363880000000  0.4809780000000 1.0
C      1  0.5317460000000  0.5229010000000  0.5334490000000 1.0
C      1  0.4366800000000  0.4702990000000  0.5015100000000 1.0
C      1  0.4792180000000  0.5664090000000  0.5662660000000 1.0
C      1  0.5732780000000  0.4174310000000  0.5131800000000 1.0
C      1  0.6386420000000  0.4951910000000  0.5541690000000 1.0
C      1  0.3931830000000  0.5104220000000  0.5066570000000 1.0
C      1  0.3954080000000  0.4913270000000  0.4317380000000 1.0
C      1  0.4440630000000  0.4766150000000  0.5281410000000 1.0
C      1  0.4605510000000  0.3576950000000  0.6031410000000 1.0
C      1  0.6362690000000  0.5075390000000  0.6008830000000 1.0
C      1  0.5587540000000  0.4897670000000  0.5136710000000 1.0
END
