TITL C-627110-360-1498 0.0765911093029246 125000 -238.92824304153 0 0 41 (C1) n - 1
REM
REM in /home/nfs/bkarasulu/CARBON/AIRSS/Generating-Clusters/LCBOP/Only-C1/SD-CG/FIRE-CG
REM
REM
REM
REM
REM
REM ./C.cell (11c1c37f851c82e70ff6c80c92926a4b)
REM AIRSS Version 0.9.1 bugfix July 2018 build 013d7b7c2542+ Fri, 06 Jul 2018 19:26:36 +0100
REM compiler GCC version 9.2.1 20190827 (Red Hat 9.2.1-1)
REM options -cpp -mtune=generic -march=x86-64 -g -O0 -fpre-include=/usr/include/finclude/math-vector-fortran.h
REM seed 1050830961 -1413659578 -120038439 -941957554 455171503 723215160 -1851478301 -1935907773 947877439 -1206172055 489157240 979672381 -2125900945 913476069 1649490493 1763119862 -1975908425 -488936331 -1164604315 -700016122 72211938 -364282107 -1861689768 731481185 1614379082 505161741 651552998 141569970 -229380193 -601911939 655337275 -1645868798 -2051126766
REM
CELL 1.54180   50.00000   50.00000   50.00000   90.00000   90.00000   90.00000
LATT -1
SFAC C  
C      1  0.3980590000000  0.4590880000000  0.5596120000000 1.0
C      1  0.5287260000000  0.5462500000000  0.5207220000000 1.0
C      1  0.5561340000000  0.4154830000000  0.5048210000000 1.0
C      1  0.5147100000000  0.4023300000000  0.4846940000000 1.0
C      1  0.6043800000000  0.5833810000000  0.4227030000000 1.0
C      1  0.4520580000000  0.4901520000000  0.5198540000000 1.0
C      1  0.4671900000000  0.4916550000000  0.4740910000000 1.0
C      1  0.5573090000000  0.5988790000000  0.4537580000000 1.0
C      1  0.4537930000000  0.4984030000000  0.5465050000000 1.0
C      1  0.5259590000000  0.5261060000000  0.5398990000000 1.0
C      1  0.5589100000000  0.4598360000000  0.5287130000000 1.0
C      1  0.5466060000000  0.5075850000000  0.5436470000000 1.0
C      1  0.5180550000000  0.4434250000000  0.5078970000000 1.0
C      1  0.5279280000000  0.5630940000000  0.4695710000000 1.0
C      1  0.4568530000000  0.4771490000000  0.4955810000000 1.0
C      1  0.4014050000000  0.4855200000000  0.5996130000000 1.0
C      1  0.3902850000000  0.4403790000000  0.5402860000000 1.0
C      1  0.3668590000000  0.4265430000000  0.5428990000000 1.0
C      1  0.5455530000000  0.4400070000000  0.5145810000000 1.0
C      1  0.5011990000000  0.5219870000000  0.5522720000000 1.0
C      1  0.4526420000000  0.4490320000000  0.4941590000000 1.0
C      1  0.4765350000000  0.5124600000000  0.5546730000000 1.0
C      1  0.4108300000000  0.4787970000000  0.5748500000000 1.0
C      1  0.5585260000000  0.4842410000000  0.5392690000000 1.0
C      1  0.4918810000000  0.5800650000000  0.4420530000000 1.0
C      1  0.5409760000000  0.3978550000000  0.4905490000000 1.0
C      1  0.5513240000000  0.5713820000000  0.4558140000000 1.0
C      1  0.5036970000000  0.5591740000000  0.4551940000000 1.0
C      1  0.4070090000000  0.4361480000000  0.5182350000000 1.0
C      1  0.5915740000000  0.5607800000000  0.4297040000000 1.0
C      1  0.4334220000000  0.4914910000000  0.5642720000000 1.0
C      1  0.4919520000000  0.5337760000000  0.4549590000000 1.0
C      1  0.5638610000000  0.5251070000000  0.4464770000000 1.0
C      1  0.5011360000000  0.4258300000000  0.4932170000000 1.0
C      1  0.5288860000000  0.5582060000000  0.4970670000000 1.0
C      1  0.4744690000000  0.4323120000000  0.4890690000000 1.0
C      1  0.4795170000000  0.5111530000000  0.4610030000000 1.0
C      1  0.5974350000000  0.6088320000000  0.4286030000000 1.0
C      1  0.4279220000000  0.4387230000000  0.5021160000000 1.0
C      1  0.5755610000000  0.6154820000000  0.4430300000000 1.0
C      1  0.5688780000000  0.5519020000000  0.4439730000000 1.0
END
