TITL C-627110-360-1460 -797.315402634683 125000 -1024.46321934125 0 0 167 (C1) n - 1
REM
REM in /home/nfs/bkarasulu/CARBON/AIRSS/Generating-Clusters/LCBOP/Only-C1/SD-CG/FIRE-CG
REM
REM
REM
REM
REM
REM ./C.cell (11c1c37f851c82e70ff6c80c92926a4b)
REM AIRSS Version 0.9.1 bugfix July 2018 build 013d7b7c2542+ Fri, 06 Jul 2018 19:26:36 +0100
REM compiler GCC version 9.2.1 20190827 (Red Hat 9.2.1-1)
REM options -cpp -mtune=generic -march=x86-64 -g -O0 -fpre-include=/usr/include/finclude/math-vector-fortran.h
REM seed 622474311 1480091442 387623767 -1013249860 -1061989258 -1178663816 345267326 -2008140929 441388160 -2130820554 -571299197 -1143217559 1519277055 -711961074 -1292678760 -1097199130 1925579995 1589177438 399573079 332968256 -1651996663 -935341525 -1104536512 -639047018 -610239109 1683686134 1487866729 1026984531 1964541321 -208223107 1943876604 393990379 -373660112
REM
CELL 1.54180   50.00000   50.00000   50.00000   90.00000   90.00000   90.00000
LATT -1
SFAC C  
C      1  0.5090990000000  0.5572550000000  0.3941420000000 1.0
C      1  0.4330470000000  0.5352200000000  0.5150260000000 1.0
C      1  0.4600760000000  0.5277260000000  0.5160450000000 1.0
C      1  0.4904050000000  0.6045810000000  0.4267960000000 1.0
C      1  0.4819440000000  0.4683730000000  0.3765110000000 1.0
C      1  0.4462260000000  0.4252580000000  0.4366040000000 1.0
C      1  0.4907000000000  0.6012650000000  0.4542190000000 1.0
C      1  0.5824140000000  0.4269240000000  0.4889370000000 1.0
C      1  0.4787730000000  0.5985270000000  0.5166920000000 1.0
C      1  0.5701960000000  0.5347120000000  0.5113700000000 1.0
C      1  0.5240820000000  0.3958590000000  0.4614880000000 1.0
C      1  0.3983520000000  0.4712150000000  0.4599550000000 1.0
C      1  0.5113380000000  0.5117030000000  0.4090580000000 1.0
C      1  0.4541930000000  0.4685510000000  0.4651510000000 1.0
C      1  0.4226400000000  0.5324390000000  0.4388080000000 1.0
C      1  0.3759580000000  0.5433380000000  0.5068990000000 1.0
C      1  0.6130500000000  0.5525000000000  0.5077490000000 1.0
C      1  0.4555770000000  0.4680000000000  0.4175470000000 1.0
C      1  0.4267110000000  0.5000710000000  0.5921150000000 1.0
C      1  0.3976790000000  0.5582460000000  0.4952950000000 1.0
C      1  0.4669540000000  0.5067570000000  0.5332840000000 1.0
C      1  0.5128090000000  0.4536410000000  0.4152500000000 1.0
C      1  0.5974580000000  0.4775020000000  0.5501870000000 1.0
C      1  0.5653530000000  0.4951340000000  0.4599980000000 1.0
C      1  0.5972220000000  0.4680100000000  0.5222970000000 1.0
C      1  0.5423930000000  0.4524520000000  0.5227330000000 1.0
C      1  0.4568680000000  0.4592940000000  0.5901340000000 1.0
C      1  0.4995330000000  0.4927310000000  0.6159480000000 1.0
C      1  0.5142700000000  0.5443750000000  0.4696530000000 1.0
C      1  0.5211220000000  0.4843770000000  0.5975230000000 1.0
C      1  0.5353490000000  0.5856170000000  0.5313700000000 1.0
C      1  0.4905000000000  0.3819050000000  0.5086960000000 1.0
C      1  0.4666670000000  0.4149600000000  0.5743090000000 1.0
C      1  0.4164060000000  0.4684560000000  0.5522650000000 1.0
C      1  0.4914600000000  0.4047310000000  0.5699990000000 1.0
C      1  0.5822170000000  0.4316100000000  0.4602570000000 1.0
C      1  0.5625610000000  0.4496840000000  0.4220030000000 1.0
C      1  0.4081920000000  0.5340440000000  0.5625540000000 1.0
C      1  0.4812660000000  0.5641980000000  0.3986080000000 1.0
C      1  0.5602980000000  0.4269340000000  0.4413610000000 1.0
C      1  0.4953590000000  0.3883240000000  0.4597750000000 1.0
C      1  0.5102290000000  0.5166020000000  0.5645380000000 1.0
C      1  0.5179270000000  0.6026670000000  0.5477690000000 1.0
C      1  0.4979750000000  0.4353160000000  0.5157980000000 1.0
C      1  0.5209710000000  0.4840790000000  0.4893070000000 1.0
C      1  0.4698360000000  0.5146070000000  0.5829500000000 1.0
C      1  0.4168470000000  0.5225160000000  0.4663920000000 1.0
C      1  0.5408200000000  0.6096190000000  0.4664050000000 1.0
C      1  0.3976810000000  0.4698070000000  0.5296820000000 1.0
C      1  0.5596060000000  0.5791410000000  0.5483560000000 1.0
C      1  0.5616240000000  0.4074300000000  0.4987180000000 1.0
C      1  0.5332930000000  0.5675550000000  0.4065050000000 1.0
C      1  0.5265770000000  0.5983580000000  0.5746010000000 1.0
C      1  0.5921030000000  0.4683900000000  0.5771220000000 1.0
C      1  0.5026290000000  0.5493070000000  0.5230420000000 1.0
C      1  0.5356970000000  0.5509890000000  0.5846610000000 1.0
C      1  0.4819060000000  0.4641960000000  0.4036510000000 1.0
C      1  0.5562820000000  0.4341820000000  0.5668400000000 1.0
C      1  0.6215530000000  0.5280810000000  0.4914180000000 1.0
C      1  0.5075170000000  0.5408060000000  0.5823130000000 1.0
C      1  0.4183610000000  0.5384720000000  0.4904440000000 1.0
C      1  0.4088390000000  0.5844720000000  0.4980610000000 1.0
C      1  0.5329300000000  0.5150970000000  0.4276520000000 1.0
C      1  0.4288120000000  0.4825680000000  0.4178010000000 1.0
C      1  0.4983540000000  0.4380730000000  0.4644670000000 1.0
C      1  0.4511620000000  0.4127820000000  0.5170110000000 1.0
C      1  0.4135610000000  0.4940150000000  0.4706180000000 1.0
C      1  0.5528890000000  0.5678990000000  0.4277260000000 1.0
C      1  0.4735790000000  0.5309850000000  0.4323900000000 1.0
C      1  0.5392660000000  0.4665710000000  0.4211200000000 1.0
C      1  0.5047850000000  0.4754170000000  0.5413770000000 1.0
C      1  0.4244910000000  0.4134270000000  0.4498170000000 1.0
C      1  0.6001870000000  0.4492820000000  0.5007660000000 1.0
C      1  0.5664080000000  0.4824470000000  0.4869680000000 1.0
C      1  0.4966060000000  0.6368470000000  0.4825360000000 1.0
C      1  0.5465540000000  0.4716380000000  0.5972670000000 1.0
C      1  0.5525340000000  0.5681270000000  0.4722180000000 1.0
C      1  0.4473350000000  0.4830650000000  0.6061570000000 1.0
C      1  0.5853380000000  0.5877990000000  0.5362420000000 1.0
C      1  0.5469660000000  0.4443630000000  0.5898020000000 1.0
C      1  0.4643070000000  0.4071370000000  0.4248280000000 1.0
C      1  0.4531230000000  0.4522010000000  0.4417920000000 1.0
C      1  0.5569350000000  0.4334720000000  0.5388410000000 1.0
C      1  0.4395820000000  0.5660160000000  0.5530420000000 1.0
C      1  0.4027870000000  0.4460770000000  0.5107590000000 1.0
C      1  0.4532720000000  0.5671600000000  0.4562540000000 1.0
C      1  0.4328910000000  0.5960490000000  0.5090130000000 1.0
C      1  0.5221470000000  0.5682300000000  0.5134620000000 1.0
C      1  0.4376820000000  0.5897550000000  0.5374120000000 1.0
C      1  0.5044430000000  0.4323650000000  0.4889890000000 1.0
C      1  0.5749640000000  0.5766390000000  0.4861070000000 1.0
C      1  0.3821310000000  0.4929290000000  0.5234600000000 1.0
C      1  0.4697660000000  0.3899600000000  0.5287500000000 1.0
C      1  0.4375780000000  0.5582160000000  0.4324330000000 1.0
C      1  0.4472320000000  0.4362020000000  0.5753090000000 1.0
C      1  0.5456140000000  0.5763540000000  0.5753310000000 1.0
C      1  0.5059840000000  0.4849970000000  0.5701620000000 1.0
C      1  0.5807630000000  0.5130110000000  0.5247150000000 1.0
C      1  0.4240580000000  0.5296830000000  0.5861570000000 1.0
C      1  0.5423080000000  0.4899880000000  0.4404360000000 1.0
C      1  0.4515580000000  0.4014020000000  0.4883240000000 1.0
C      1  0.5368970000000  0.3932890000000  0.4872850000000 1.0
C      1  0.4828200000000  0.4663470000000  0.5799900000000 1.0
C      1  0.3738480000000  0.5177290000000  0.5162760000000 1.0
C      1  0.4228720000000  0.5449250000000  0.5404010000000 1.0
C      1  0.5996310000000  0.4549820000000  0.4515160000000 1.0
C      1  0.4822910000000  0.3898280000000  0.4347750000000 1.0
C      1  0.4930030000000  0.6077220000000  0.5371830000000 1.0
C      1  0.4702040000000  0.4365010000000  0.5204770000000 1.0
C      1  0.5858340000000  0.5057740000000  0.5515790000000 1.0
C      1  0.5190200000000  0.3844260000000  0.5098610000000 1.0
C      1  0.4282320000000  0.4006100000000  0.4730540000000 1.0
C      1  0.4814830000000  0.5423230000000  0.5055350000000 1.0
C      1  0.5858780000000  0.5547430000000  0.4993750000000 1.0
C      1  0.5331990000000  0.5552190000000  0.4889470000000 1.0
C      1  0.5747450000000  0.5416560000000  0.4379510000000 1.0
C      1  0.4064770000000  0.4686230000000  0.4319720000000 1.0
C      1  0.3951930000000  0.4512310000000  0.4822640000000 1.0
C      1  0.4258060000000  0.5110540000000  0.4193710000000 1.0
C      1  0.4562930000000  0.5035400000000  0.5588610000000 1.0
C      1  0.5849790000000  0.5169970000000  0.4546140000000 1.0
C      1  0.5348310000000  0.4135410000000  0.4410190000000 1.0
C      1  0.5682200000000  0.6049810000000  0.4910510000000 1.0
C      1  0.4239600000000  0.4273050000000  0.5267570000000 1.0
C      1  0.4778610000000  0.3881350000000  0.4829760000000 1.0
C      1  0.5444320000000  0.4668420000000  0.4976630000000 1.0
C      1  0.5292680000000  0.5092170000000  0.5016750000000 1.0
C      1  0.5120430000000  0.6165510000000  0.4687000000000 1.0
C      1  0.4915250000000  0.4838460000000  0.4951220000000 1.0
C      1  0.5889690000000  0.4608870000000  0.4253510000000 1.0
C      1  0.5113080000000  0.5295130000000  0.3874970000000 1.0
C      1  0.6110790000000  0.5713890000000  0.5309250000000 1.0
C      1  0.4698380000000  0.5433580000000  0.4584910000000 1.0
C      1  0.4507750000000  0.5547090000000  0.5779660000000 1.0
C      1  0.4612640000000  0.5509070000000  0.4142940000000 1.0
C      1  0.5198210000000  0.4853560000000  0.4592860000000 1.0
C      1  0.4823530000000  0.4838200000000  0.5235150000000 1.0
C      1  0.4887790000000  0.5081770000000  0.4271250000000 1.0
C      1  0.5141670000000  0.3968050000000  0.5574190000000 1.0
C      1  0.4881590000000  0.5418520000000  0.4784510000000 1.0
C      1  0.5154760000000  0.4515810000000  0.5312770000000 1.0
C      1  0.5449440000000  0.5314260000000  0.5012850000000 1.0
C      1  0.4695570000000  0.6335970000000  0.4883540000000 1.0
C      1  0.4350020000000  0.4798400000000  0.4824450000000 1.0
C      1  0.5554550000000  0.4076660000000  0.5275890000000 1.0
C      1  0.4659910000000  0.5907610000000  0.4674180000000 1.0
C      1  0.6094640000000  0.5070880000000  0.4718780000000 1.0
C      1  0.4276980000000  0.4410990000000  0.5542370000000 1.0
C      1  0.5836160000000  0.4901530000000  0.5082530000000 1.0
C      1  0.4723630000000  0.4993990000000  0.6078950000000 1.0
C      1  0.5561170000000  0.5311350000000  0.5858010000000 1.0
C      1  0.5263060000000  0.5350340000000  0.4464450000000 1.0
C      1  0.6092880000000  0.4713310000000  0.4730120000000 1.0
C      1  0.4590180000000  0.6048360000000  0.4945080000000 1.0
C      1  0.5464120000000  0.5852620000000  0.4504700000000 1.0
C      1  0.4384660000000  0.4732320000000  0.5088490000000 1.0
C      1  0.4774790000000  0.4826930000000  0.4703350000000 1.0
C      1  0.4307400000000  0.4900870000000  0.5641710000000 1.0
C      1  0.5118180000000  0.5283930000000  0.5391670000000 1.0
C      1  0.5311080000000  0.3928030000000  0.5348030000000 1.0
C      1  0.4607490000000  0.4628920000000  0.5218940000000 1.0
C      1  0.4769920000000  0.5430000000000  0.5835520000000 1.0
C      1  0.4936260000000  0.4907480000000  0.4489830000000 1.0
C      1  0.5801170000000  0.6098060000000  0.5168250000000 1.0
C      1  0.5711420000000  0.4843840000000  0.5904620000000 1.0
C      1  0.5162250000000  0.4258200000000  0.4223380000000 1.0
C      1  0.5716090000000  0.5098930000000  0.5764920000000 1.0
END
