TITL C-627109-622-481 -4.96191271130436e-07 125000 -900.172448238564 0 0 145 (C1) n - 1
REM
REM in /home/nfs/bkarasulu/CARBON/AIRSS/Generating-Clusters/LCBOP/Only-C1/SD-CG/FIRE-CG
REM
REM
REM
REM
REM
REM ./C.cell (11c1c37f851c82e70ff6c80c92926a4b)
REM AIRSS Version 0.9.1 bugfix July 2018 build 013d7b7c2542+ Fri, 06 Jul 2018 19:26:36 +0100
REM compiler GCC version 9.2.1 20190827 (Red Hat 9.2.1-1)
REM options -cpp -mtune=generic -march=x86-64 -g -O0 -fpre-include=/usr/include/finclude/math-vector-fortran.h
REM seed -2119055480 91524618 1844793650 -31031002 835779044 1740270324 -1476357455 672587236 -1731816967 2128652098 -834802505 350079386 -1248091718 -673666338 -1934268486 611838597 1308971768 -1863961230 -80638763 863438891 -1548741457 -1841669404 608205280 -609151970 33939518 1772487036 1020140015 -1330176357 -2026264725 2052304489 498861758 -1912006232 -1069764683
REM
CELL 1.54180   50.00000   50.00000   50.00000   90.00000   90.00000   90.00000
LATT -1
SFAC C  
C      1  0.5225200000000  0.4819140000000  0.6246540000000 1.0
C      1  0.5836990000000  0.5006420000000  0.5005180000000 1.0
C      1  0.4732520000000  0.4257030000000  0.5061000000000 1.0
C      1  0.4484350000000  0.5431530000000  0.5973820000000 1.0
C      1  0.4689820000000  0.5736620000000  0.4204090000000 1.0
C      1  0.4819090000000  0.4690840000000  0.5071610000000 1.0
C      1  0.5021390000000  0.6099070000000  0.4282370000000 1.0
C      1  0.4592530000000  0.4936180000000  0.4761560000000 1.0
C      1  0.4101600000000  0.5471180000000  0.5245100000000 1.0
C      1  0.3981780000000  0.5362100000000  0.4465840000000 1.0
C      1  0.4992640000000  0.4199010000000  0.4265100000000 1.0
C      1  0.5418320000000  0.4632190000000  0.6202400000000 1.0
C      1  0.4540750000000  0.4358480000000  0.4366860000000 1.0
C      1  0.5046160000000  0.5591000000000  0.5141630000000 1.0
C      1  0.4278540000000  0.5685870000000  0.5309470000000 1.0
C      1  0.6097920000000  0.5269040000000  0.5306960000000 1.0
C      1  0.6040970000000  0.4428720000000  0.4560420000000 1.0
C      1  0.3997190000000  0.4960450000000  0.5131230000000 1.0
C      1  0.5016020000000  0.4261850000000  0.5013810000000 1.0
C      1  0.5693840000000  0.4410070000000  0.5822550000000 1.0
C      1  0.5180780000000  0.4610850000000  0.5652110000000 1.0
C      1  0.4214730000000  0.4704620000000  0.4448970000000 1.0
C      1  0.4382590000000  0.4791120000000  0.4232430000000 1.0
C      1  0.3795860000000  0.5319590000000  0.4271130000000 1.0
C      1  0.5820930000000  0.4333060000000  0.4413250000000 1.0
C      1  0.4974700000000  0.4831260000000  0.5256060000000 1.0
C      1  0.4614060000000  0.5245050000000  0.5173490000000 1.0
C      1  0.5458410000000  0.4868150000000  0.4440090000000 1.0
C      1  0.5766070000000  0.4380110000000  0.5542280000000 1.0
C      1  0.6034250000000  0.5502420000000  0.4898550000000 1.0
C      1  0.4840940000000  0.5420230000000  0.5259790000000 1.0
C      1  0.5595090000000  0.5164920000000  0.5034670000000 1.0
C      1  0.4699860000000  0.4642490000000  0.5628700000000 1.0
C      1  0.6062260000000  0.5216060000000  0.4421740000000 1.0
C      1  0.5382030000000  0.5714720000000  0.5643020000000 1.0
C      1  0.5048730000000  0.4791750000000  0.4650140000000 1.0
C      1  0.4926590000000  0.5241080000000  0.6063470000000 1.0
C      1  0.4658730000000  0.5508630000000  0.4035670000000 1.0
C      1  0.5350370000000  0.5551490000000  0.4495590000000 1.0
C      1  0.5417660000000  0.4161380000000  0.4682760000000 1.0
C      1  0.5214100000000  0.4299940000000  0.4150990000000 1.0
C      1  0.4709350000000  0.5661640000000  0.4792850000000 1.0
C      1  0.4562760000000  0.5639190000000  0.5786070000000 1.0
C      1  0.5094290000000  0.4368000000000  0.5792270000000 1.0
C      1  0.5069270000000  0.5033810000000  0.6195560000000 1.0
C      1  0.5645120000000  0.4153980000000  0.4542580000000 1.0
C      1  0.4357810000000  0.4852410000000  0.5403530000000 1.0
C      1  0.3746200000000  0.4724370000000  0.5783820000000 1.0
C      1  0.6025300000000  0.4619610000000  0.4749250000000 1.0
C      1  0.5327400000000  0.5501800000000  0.5840510000000 1.0
C      1  0.5480230000000  0.4775950000000  0.5325400000000 1.0
C      1  0.5513530000000  0.5585650000000  0.4722490000000 1.0
C      1  0.6077110000000  0.4771190000000  0.5364150000000 1.0
C      1  0.5215950000000  0.4249830000000  0.4835090000000 1.0
C      1  0.5486450000000  0.4051300000000  0.5244890000000 1.0
C      1  0.4451400000000  0.5783140000000  0.4830430000000 1.0
C      1  0.5139720000000  0.5029420000000  0.5137110000000 1.0
C      1  0.5205910000000  0.6260040000000  0.4389830000000 1.0
C      1  0.5028890000000  0.5044790000000  0.4486270000000 1.0
C      1  0.4754330000000  0.4169230000000  0.4419060000000 1.0
C      1  0.4078220000000  0.4863500000000  0.5384560000000 1.0
C      1  0.4111290000000  0.4332320000000  0.5212390000000 1.0
C      1  0.4687840000000  0.4569420000000  0.5902410000000 1.0
C      1  0.4298650000000  0.4431580000000  0.4516950000000 1.0
C      1  0.4850540000000  0.5582870000000  0.5744020000000 1.0
C      1  0.5692280000000  0.4518590000000  0.4234840000000 1.0
C      1  0.4954930000000  0.4727850000000  0.5523180000000 1.0
C      1  0.5156840000000  0.5643980000000  0.4335910000000 1.0
C      1  0.4746340000000  0.4601510000000  0.3956190000000 1.0
C      1  0.4906550000000  0.4436790000000  0.6000380000000 1.0
C      1  0.5452920000000  0.4419120000000  0.4114510000000 1.0
C      1  0.5786640000000  0.5640400000000  0.5326690000000 1.0
C      1  0.4954180000000  0.5826910000000  0.4262930000000 1.0
C      1  0.4756390000000  0.3992610000000  0.4652080000000 1.0
C      1  0.5049790000000  0.5497060000000  0.5953190000000 1.0
C      1  0.5411770000000  0.5011150000000  0.5189030000000 1.0
C      1  0.4810540000000  0.4762350000000  0.4805010000000 1.0
C      1  0.4513430000000  0.5091450000000  0.5405680000000 1.0
C      1  0.4969290000000  0.3814800000000  0.4734570000000 1.0
C      1  0.5640590000000  0.4613650000000  0.6022620000000 1.0
C      1  0.4887190000000  0.5349280000000  0.5542920000000 1.0
C      1  0.6036880000000  0.5366630000000  0.4663500000000 1.0
C      1  0.4478670000000  0.5302480000000  0.4099770000000 1.0
C      1  0.4232970000000  0.5249190000000  0.4848760000000 1.0
C      1  0.4636840000000  0.4499870000000  0.5180320000000 1.0
C      1  0.4967980000000  0.4981630000000  0.3687710000000 1.0
C      1  0.5634320000000  0.5841110000000  0.4738910000000 1.0
C      1  0.4092540000000  0.5152390000000  0.4622090000000 1.0
C      1  0.4569520000000  0.4577310000000  0.4169610000000 1.0
C      1  0.4069890000000  0.4864560000000  0.4637430000000 1.0
C      1  0.4792600000000  0.6115060000000  0.5369360000000 1.0
C      1  0.5994070000000  0.5503840000000  0.5183380000000 1.0
C      1  0.5992670000000  0.4537180000000  0.5464750000000 1.0
C      1  0.4398920000000  0.5051480000000  0.4136630000000 1.0
C      1  0.4077580000000  0.5622690000000  0.4530580000000 1.0
C      1  0.4657550000000  0.5200320000000  0.5940310000000 1.0
C      1  0.4305750000000  0.5782380000000  0.4580290000000 1.0
C      1  0.4889200000000  0.4746350000000  0.3784580000000 1.0
C      1  0.5012620000000  0.6077560000000  0.5518230000000 1.0
C      1  0.5264680000000  0.5043180000000  0.4328930000000 1.0
C      1  0.4386670000000  0.5707700000000  0.5574770000000 1.0
C      1  0.4402830000000  0.5857100000000  0.5107690000000 1.0
C      1  0.5908070000000  0.4988020000000  0.4344990000000 1.0
C      1  0.5335450000000  0.5561000000000  0.5172950000000 1.0
C      1  0.4259300000000  0.4173590000000  0.5375320000000 1.0
C      1  0.4163050000000  0.4330740000000  0.4738420000000 1.0
C      1  0.3903560000000  0.4797600000000  0.5589450000000 1.0
C      1  0.4604790000000  0.4086500000000  0.4876710000000 1.0
C      1  0.4709090000000  0.5387530000000  0.4714470000000 1.0
C      1  0.5507130000000  0.5647430000000  0.5390610000000 1.0
C      1  0.4072970000000  0.4474630000000  0.4967540000000 1.0
C      1  0.4743780000000  0.4056970000000  0.5564470000000 1.0
C      1  0.4015140000000  0.4760450000000  0.4913140000000 1.0
C      1  0.4076840000000  0.5238070000000  0.5085290000000 1.0
C      1  0.5491180000000  0.5427350000000  0.4960150000000 1.0
C      1  0.4483100000000  0.4074240000000  0.5492030000000 1.0
C      1  0.4524000000000  0.5208720000000  0.4876970000000 1.0
C      1  0.5074960000000  0.5190140000000  0.4920200000000 1.0
C      1  0.5159590000000  0.3774070000000  0.4927330000000 1.0
C      1  0.5375010000000  0.5231380000000  0.5735850000000 1.0
C      1  0.5411310000000  0.4768450000000  0.5597030000000 1.0
C      1  0.5142850000000  0.5205120000000  0.5572300000000 1.0
C      1  0.5338250000000  0.3863760000000  0.5113750000000 1.0
C      1  0.4513380000000  0.4615100000000  0.5417640000000 1.0
C      1  0.5594450000000  0.6096460000000  0.4670580000000 1.0
C      1  0.6025340000000  0.5009650000000  0.5224320000000 1.0
C      1  0.5700140000000  0.4796320000000  0.4316660000000 1.0
C      1  0.5518330000000  0.4988170000000  0.5757390000000 1.0
C      1  0.5810480000000  0.4763480000000  0.4858060000000 1.0
C      1  0.4989350000000  0.4146220000000  0.5641360000000 1.0
C      1  0.5707400000000  0.4881840000000  0.5937480000000 1.0
C      1  0.5217940000000  0.5947090000000  0.5632420000000 1.0
C      1  0.4578640000000  0.6054020000000  0.5218700000000 1.0
C      1  0.4469030000000  0.5834890000000  0.4351580000000 1.0
C      1  0.5590080000000  0.4308970000000  0.5313210000000 1.0
C      1  0.4664460000000  0.5157960000000  0.5645710000000 1.0
C      1  0.5515370000000  0.4546080000000  0.5158310000000 1.0
C      1  0.5346720000000  0.4726600000000  0.4677340000000 1.0
C      1  0.4953630000000  0.5247770000000  0.4671460000000 1.0
C      1  0.4836610000000  0.5453340000000  0.3825080000000 1.0
C      1  0.4940220000000  0.5747820000000  0.4930500000000 1.0
C      1  0.5428170000000  0.6258590000000  0.4538320000000 1.0
C      1  0.6255630000000  0.5299530000000  0.4244190000000 1.0
C      1  0.5545570000000  0.4638570000000  0.4880090000000 1.0
C      1  0.4951250000000  0.5247500000000  0.3699390000000 1.0
END
