TITL C-627107-135-925 -2.31836557080935e-06 125000 -955.628136376666 0 0 156 (C1) n - 1
REM
REM in /home/nfs/bkarasulu/CARBON/AIRSS/Generating-Clusters/LCBOP/Only-C1/SD-CG/FIRE-CG
REM
REM
REM
REM
REM
REM ./C.cell (11c1c37f851c82e70ff6c80c92926a4b)
REM AIRSS Version 0.9.1 bugfix July 2018 build 013d7b7c2542+ Fri, 06 Jul 2018 19:26:36 +0100
REM compiler GCC version 9.2.1 20190827 (Red Hat 9.2.1-1)
REM options -cpp -mtune=generic -march=x86-64 -g -O0 -fpre-include=/usr/include/finclude/math-vector-fortran.h
REM seed 437825212 -1654455381 -1510175083 -1956113652 1776240271 -712877041 -1483364379 -994493748 1506066159 1548591363 -1810974726 -82801095 1481698278 471876903 1815699257 715458312 -217191787 1696347243 -1552894547 -884896442 1873634832 -1549000541 -869939574 1329495986 952617197 953334745 -885098598 -668988900 -1804920322 516602665 -223050557 -1193453823 -961467368
REM
CELL 1.54180   50.00000   50.00000   50.00000   90.00000   90.00000   90.00000
LATT -1
SFAC C  
C      1  0.4350650000000  0.5884090000000  0.5232280000000 1.0
C      1  0.5240800000000  0.5219210000000  0.4239260000000 1.0
C      1  0.6057080000000  0.5343590000000  0.5266620000000 1.0
C      1  0.5784790000000  0.4289330000000  0.4786090000000 1.0
C      1  0.4796140000000  0.5437560000000  0.4238390000000 1.0
C      1  0.5164180000000  0.4933820000000  0.5179110000000 1.0
C      1  0.5400980000000  0.5016830000000  0.4719530000000 1.0
C      1  0.3961080000000  0.4413360000000  0.5468370000000 1.0
C      1  0.4528830000000  0.4510930000000  0.5376470000000 1.0
C      1  0.4717890000000  0.5365080000000  0.6262940000000 1.0
C      1  0.5729800000000  0.5232020000000  0.5596520000000 1.0
C      1  0.5371750000000  0.4795270000000  0.6559530000000 1.0
C      1  0.5983530000000  0.5094050000000  0.4378950000000 1.0
C      1  0.4230500000000  0.5114960000000  0.4629650000000 1.0
C      1  0.4329660000000  0.5773870000000  0.4972390000000 1.0
C      1  0.4540020000000  0.4419460000000  0.4057810000000 1.0
C      1  0.4404880000000  0.4952840000000  0.5279440000000 1.0
C      1  0.5548060000000  0.5014760000000  0.5537930000000 1.0
C      1  0.5769630000000  0.4589580000000  0.4333690000000 1.0
C      1  0.5323520000000  0.3881300000000  0.4454190000000 1.0
C      1  0.4691870000000  0.5908870000000  0.4360460000000 1.0
C      1  0.4617510000000  0.4775720000000  0.5332110000000 1.0
C      1  0.5690170000000  0.5672740000000  0.5358580000000 1.0
C      1  0.4299080000000  0.4894510000000  0.4084880000000 1.0
C      1  0.5235300000000  0.5962180000000  0.5606650000000 1.0
C      1  0.4911710000000  0.6156370000000  0.5009360000000 1.0
C      1  0.4907350000000  0.4080250000000  0.5064530000000 1.0
C      1  0.5887070000000  0.6261820000000  0.4043400000000 1.0
C      1  0.6004320000000  0.5701110000000  0.4955740000000 1.0
C      1  0.5274460000000  0.4854570000000  0.4918160000000 1.0
C      1  0.5625260000000  0.5159280000000  0.4827780000000 1.0
C      1  0.5532670000000  0.5392460000000  0.4964150000000 1.0
C      1  0.4312820000000  0.5681160000000  0.4721140000000 1.0
C      1  0.4836580000000  0.6200170000000  0.4757880000000 1.0
C      1  0.5383530000000  0.4398660000000  0.5113190000000 1.0
C      1  0.4668780000000  0.4896680000000  0.6504380000000 1.0
C      1  0.5398870000000  0.5520440000000  0.5773000000000 1.0
C      1  0.4621780000000  0.5367030000000  0.5124130000000 1.0
C      1  0.5074310000000  0.5441290000000  0.4309790000000 1.0
C      1  0.4423920000000  0.4905510000000  0.4641300000000 1.0
C      1  0.4430020000000  0.5656130000000  0.5669760000000 1.0
C      1  0.4444020000000  0.4177920000000  0.4537400000000 1.0
C      1  0.5020670000000  0.3963650000000  0.5310680000000 1.0
C      1  0.5091540000000  0.4541210000000  0.6261540000000 1.0
C      1  0.4923190000000  0.4363410000000  0.5075020000000 1.0
C      1  0.4811980000000  0.4496810000000  0.3953540000000 1.0
C      1  0.3715680000000  0.5113470000000  0.5076280000000 1.0
C      1  0.4937340000000  0.4969750000000  0.6438080000000 1.0
C      1  0.3997350000000  0.4676020000000  0.5416160000000 1.0
C      1  0.4385160000000  0.5549050000000  0.4480880000000 1.0
C      1  0.4818760000000  0.5524970000000  0.5051410000000 1.0
C      1  0.5284360000000  0.4471470000000  0.5371940000000 1.0
C      1  0.6009480000000  0.5354650000000  0.4269850000000 1.0
C      1  0.5417960000000  0.4119730000000  0.5061330000000 1.0
C      1  0.4026310000000  0.6300120000000  0.5354600000000 1.0
C      1  0.5409400000000  0.5320580000000  0.5208400000000 1.0
C      1  0.5053700000000  0.5170260000000  0.5745340000000 1.0
C      1  0.4670110000000  0.5213920000000  0.4105460000000 1.0
C      1  0.5567210000000  0.4753030000000  0.5637960000000 1.0
C      1  0.5974110000000  0.5846510000000  0.4282690000000 1.0
C      1  0.5878660000000  0.4729380000000  0.4975680000000 1.0
C      1  0.4754740000000  0.4641800000000  0.4432730000000 1.0
C      1  0.4901840000000  0.4194660000000  0.5913050000000 1.0
C      1  0.5221200000000  0.5688670000000  0.4753110000000 1.0
C      1  0.4529050000000  0.3944310000000  0.5277120000000 1.0
C      1  0.5846380000000  0.5823210000000  0.3829100000000 1.0
C      1  0.5979420000000  0.5354940000000  0.3981770000000 1.0
C      1  0.5939720000000  0.5603270000000  0.5214100000000 1.0
C      1  0.5478210000000  0.5803240000000  0.5190490000000 1.0
C      1  0.4187020000000  0.5173570000000  0.4913860000000 1.0
C      1  0.5549630000000  0.4118090000000  0.4808040000000 1.0
C      1  0.4530120000000  0.3987450000000  0.4740390000000 1.0
C      1  0.4979120000000  0.5653140000000  0.4887680000000 1.0
C      1  0.5137470000000  0.4769000000000  0.6420640000000 1.0
C      1  0.4965600000000  0.5235310000000  0.6325130000000 1.0
C      1  0.4295100000000  0.4113670000000  0.5299110000000 1.0
C      1  0.4052500000000  0.4142200000000  0.5445090000000 1.0
C      1  0.5674060000000  0.4269100000000  0.5497120000000 1.0
C      1  0.5861010000000  0.4329690000000  0.5283250000000 1.0
C      1  0.5020020000000  0.4338160000000  0.6104590000000 1.0
C      1  0.4858900000000  0.4214330000000  0.4315940000000 1.0
C      1  0.5858630000000  0.5010700000000  0.4927890000000 1.0
C      1  0.4969810000000  0.5931450000000  0.5680870000000 1.0
C      1  0.4433580000000  0.4881020000000  0.5854180000000 1.0
C      1  0.5199940000000  0.5633440000000  0.4477590000000 1.0
C      1  0.5316500000000  0.3967580000000  0.5295720000000 1.0
C      1  0.3915950000000  0.3927890000000  0.5556740000000 1.0
C      1  0.5901270000000  0.5990160000000  0.4052460000000 1.0
C      1  0.4303020000000  0.4436050000000  0.4925970000000 1.0
C      1  0.4179970000000  0.6098740000000  0.5293390000000 1.0
C      1  0.5524870000000  0.4016320000000  0.5494710000000 1.0
C      1  0.5022190000000  0.4344850000000  0.4090640000000 1.0
C      1  0.3454640000000  0.5155580000000  0.5059830000000 1.0
C      1  0.4620650000000  0.5638660000000  0.4343530000000 1.0
C      1  0.5266230000000  0.5949670000000  0.5316590000000 1.0
C      1  0.4439760000000  0.5158680000000  0.5916790000000 1.0
C      1  0.5497620000000  0.4494030000000  0.5557990000000 1.0
C      1  0.3197660000000  0.5196380000000  0.5043790000000 1.0
C      1  0.5372170000000  0.4593510000000  0.4918620000000 1.0
C      1  0.4803390000000  0.5023640000000  0.3943860000000 1.0
C      1  0.4817090000000  0.4776600000000  0.4867130000000 1.0
C      1  0.5448210000000  0.5667020000000  0.4925910000000 1.0
C      1  0.4364110000000  0.4429330000000  0.4650630000000 1.0
C      1  0.5342370000000  0.5219980000000  0.3973330000000 1.0
C      1  0.5281860000000  0.4426750000000  0.4213670000000 1.0
C      1  0.5185910000000  0.5323500000000  0.6175740000000 1.0
C      1  0.5241990000000  0.4361890000000  0.4502010000000 1.0
C      1  0.3987640000000  0.5065040000000  0.5093010000000 1.0
C      1  0.3792440000000  0.3723970000000  0.5662000000000 1.0
C      1  0.6000850000000  0.5586430000000  0.3824580000000 1.0
C      1  0.5539810000000  0.4535160000000  0.4170400000000 1.0
C      1  0.5275240000000  0.5435530000000  0.3802750000000 1.0
C      1  0.5898360000000  0.4841020000000  0.4347110000000 1.0
C      1  0.4796520000000  0.5916990000000  0.5447560000000 1.0
C      1  0.5869610000000  0.4445400000000  0.5018420000000 1.0
C      1  0.6014270000000  0.5602750000000  0.4420170000000 1.0
C      1  0.4764690000000  0.3977600000000  0.5479190000000 1.0
C      1  0.6041860000000  0.5629800000000  0.4699480000000 1.0
C      1  0.4571430000000  0.4418970000000  0.5643970000000 1.0
C      1  0.4297270000000  0.5811560000000  0.5856420000000 1.0
C      1  0.5320390000000  0.5054390000000  0.4453450000000 1.0
C      1  0.5999260000000  0.5227570000000  0.5516910000000 1.0
C      1  0.4902610000000  0.4504320000000  0.4835800000000 1.0
C      1  0.4480620000000  0.4660610000000  0.4526570000000 1.0
C      1  0.4962540000000  0.4959530000000  0.5609260000000 1.0
C      1  0.5594180000000  0.5817290000000  0.3706320000000 1.0
C      1  0.4344860000000  0.4629430000000  0.4044090000000 1.0
C      1  0.4488250000000  0.5212220000000  0.6194140000000 1.0
C      1  0.6063320000000  0.5166450000000  0.5047180000000 1.0
C      1  0.4849870000000  0.4767140000000  0.3878250000000 1.0
C      1  0.5841730000000  0.4396690000000  0.4529540000000 1.0
C      1  0.5356080000000  0.5080310000000  0.5333250000000 1.0
C      1  0.4534990000000  0.5801760000000  0.5440290000000 1.0
C      1  0.4467380000000  0.5137100000000  0.5051760000000 1.0
C      1  0.4495840000000  0.4618680000000  0.5833040000000 1.0
C      1  0.4118040000000  0.4900650000000  0.5293900000000 1.0
C      1  0.4762200000000  0.6112190000000  0.4517740000000 1.0
C      1  0.4925780000000  0.4806630000000  0.5348680000000 1.0
C      1  0.4649280000000  0.3960740000000  0.5000020000000 1.0
C      1  0.4445860000000  0.5377520000000  0.5732480000000 1.0
C      1  0.5371120000000  0.4116880000000  0.4586200000000 1.0
C      1  0.5828930000000  0.5140510000000  0.3875260000000 1.0
C      1  0.4395930000000  0.5148430000000  0.4178060000000 1.0
C      1  0.5009320000000  0.4513470000000  0.5316020000000 1.0
C      1  0.4373350000000  0.4369350000000  0.5189020000000 1.0
C      1  0.4609530000000  0.4961220000000  0.4851160000000 1.0
C      1  0.5213750000000  0.5347280000000  0.5896690000000 1.0
C      1  0.5375610000000  0.5662780000000  0.3703530000000 1.0
C      1  0.4571030000000  0.4212740000000  0.4277620000000 1.0
C      1  0.5569760000000  0.5073860000000  0.3897170000000 1.0
C      1  0.4286600000000  0.5287520000000  0.4411250000000 1.0
C      1  0.4941640000000  0.4418250000000  0.4547670000000 1.0
C      1  0.4734040000000  0.4182170000000  0.5687220000000 1.0
C      1  0.4447800000000  0.5005060000000  0.6386560000000 1.0
C      1  0.4984310000000  0.6001660000000  0.5230180000000 1.0
C      1  0.5615560000000  0.5501410000000  0.5592980000000 1.0
END
