TITL C-627112-676-27 0.000468747965797035 125000 -644.768745353085 0 0 105 (C1) n - 1
REM
REM in /home/nfs/bkarasulu/CARBON/AIRSS/Generating-Clusters/LCBOP/Only-C1/SD-CG/FIRE-CG
REM
REM
REM
REM
REM
REM ./C.cell (11c1c37f851c82e70ff6c80c92926a4b)
REM AIRSS Version 0.9.1 bugfix July 2018 build 013d7b7c2542+ Fri, 06 Jul 2018 19:26:36 +0100
REM compiler GCC version 9.2.1 20190827 (Red Hat 9.2.1-1)
REM options -cpp -mtune=generic -march=x86-64 -g -O0 -fpre-include=/usr/include/finclude/math-vector-fortran.h
REM seed -1687460178 -1756051788 164381112 -62925836 741550342 1293915451 -331245564 -2139306758 -1178682611 -1666851628 144941010 1835811513 -350992868 429446466 942065426 294657918 231991850 -1139666080 -290104520 -648083740 218327183 -1724322335 -1428299112 -1247905286 -1240548003 -436695546 -954155384 766664189 -651011376 -1550644509 -277619469 -1660751320 -1180440944
REM
CELL 1.54180   50.00000   50.00000   50.00000   90.00000   90.00000   90.00000
LATT -1
SFAC C  
C      1  0.5565050000000  0.4712660000000  0.6377300000000 1.0
C      1  0.4423480000000  0.4576060000000  0.5093940000000 1.0
C      1  0.5469110000000  0.5499770000000  0.3830910000000 1.0
C      1  0.5146770000000  0.3912210000000  0.5141520000000 1.0
C      1  0.5177050000000  0.4066370000000  0.5379410000000 1.0
C      1  0.4213590000000  0.5321120000000  0.3953460000000 1.0
C      1  0.5473710000000  0.4776580000000  0.3989090000000 1.0
C      1  0.5158780000000  0.3638990000000  0.5152790000000 1.0
C      1  0.5281520000000  0.5661680000000  0.4390680000000 1.0
C      1  0.4130770000000  0.5082080000000  0.4038380000000 1.0
C      1  0.5538520000000  0.4725450000000  0.4504280000000 1.0
C      1  0.5530620000000  0.4472010000000  0.4650250000000 1.0
C      1  0.4921670000000  0.4548680000000  0.6084620000000 1.0
C      1  0.5116300000000  0.5577330000000  0.5323990000000 1.0
C      1  0.4972600000000  0.4504900000000  0.4874470000000 1.0
C      1  0.4093630000000  0.5280580000000  0.5675120000000 1.0
C      1  0.4781130000000  0.4687900000000  0.4767840000000 1.0
C      1  0.4633170000000  0.5311080000000  0.4545230000000 1.0
C      1  0.4657380000000  0.5216190000000  0.5455740000000 1.0
C      1  0.4400260000000  0.4687330000000  0.3969720000000 1.0
C      1  0.5090660000000  0.4278640000000  0.4745060000000 1.0
C      1  0.4421030000000  0.5654870000000  0.5068990000000 1.0
C      1  0.5602810000000  0.5158990000000  0.4757760000000 1.0
C      1  0.4501430000000  0.4660540000000  0.4831750000000 1.0
C      1  0.5879800000000  0.5388000000000  0.4111690000000 1.0
C      1  0.5811250000000  0.5270540000000  0.4608980000000 1.0
C      1  0.5286450000000  0.4341000000000  0.4550290000000 1.0
C      1  0.4365780000000  0.4688440000000  0.5780090000000 1.0
C      1  0.4721040000000  0.5575360000000  0.4477130000000 1.0
C      1  0.5343280000000  0.5704380000000  0.4646950000000 1.0
C      1  0.5270090000000  0.4401580000000  0.5854500000000 1.0
C      1  0.4718900000000  0.4236220000000  0.5354570000000 1.0
C      1  0.5374480000000  0.5164200000000  0.5239080000000 1.0
C      1  0.5409170000000  0.4058270000000  0.5541650000000 1.0
C      1  0.5988700000000  0.6011570000000  0.5399650000000 1.0
C      1  0.5515080000000  0.5842470000000  0.5232970000000 1.0
C      1  0.5521860000000  0.5246630000000  0.5013210000000 1.0
C      1  0.5240020000000  0.4443080000000  0.4283460000000 1.0
C      1  0.4534330000000  0.4336750000000  0.5192070000000 1.0
C      1  0.5751100000000  0.5928780000000  0.5316540000000 1.0
C      1  0.4747420000000  0.5072510000000  0.4445080000000 1.0
C      1  0.4825080000000  0.5619780000000  0.4215150000000 1.0
C      1  0.5163730000000  0.4978160000000  0.4661440000000 1.0
C      1  0.4252500000000  0.4316020000000  0.3608710000000 1.0
C      1  0.4646040000000  0.5683100000000  0.5522100000000 1.0
C      1  0.4973380000000  0.4251100000000  0.5468160000000 1.0
C      1  0.4470490000000  0.5773730000000  0.5319580000000 1.0
C      1  0.5067110000000  0.4709870000000  0.3731760000000 1.0
C      1  0.5200910000000  0.4500580000000  0.6121810000000 1.0
C      1  0.4246680000000  0.5009010000000  0.5287380000000 1.0
C      1  0.5312880000000  0.4672430000000  0.5249080000000 1.0
C      1  0.4597540000000  0.4794350000000  0.5890990000000 1.0
C      1  0.5742770000000  0.4876890000000  0.6260550000000 1.0
C      1  0.4648430000000  0.4931290000000  0.6141330000000 1.0
C      1  0.5435220000000  0.4661160000000  0.4240070000000 1.0
C      1  0.4190990000000  0.4754870000000  0.4400660000000 1.0
C      1  0.4929260000000  0.5129450000000  0.5482620000000 1.0
C      1  0.4211270000000  0.4829600000000  0.4130930000000 1.0
C      1  0.5246840000000  0.5025020000000  0.5827740000000 1.0
C      1  0.5091050000000  0.4842840000000  0.6455930000000 1.0
C      1  0.4636100000000  0.5611980000000  0.4007500000000 1.0
C      1  0.4568120000000  0.5430790000000  0.5630340000000 1.0
C      1  0.5228730000000  0.5566510000000  0.3926930000000 1.0
C      1  0.4050530000000  0.5125840000000  0.5457290000000 1.0
C      1  0.4321210000000  0.4496340000000  0.3783850000000 1.0
C      1  0.5016580000000  0.4427810000000  0.4115370000000 1.0
C      1  0.5428120000000  0.4901010000000  0.5320790000000 1.0
C      1  0.4441290000000  0.5370030000000  0.5032150000000 1.0
C      1  0.4671510000000  0.4757510000000  0.4014360000000 1.0
C      1  0.5011410000000  0.4945110000000  0.5694730000000 1.0
C      1  0.5321640000000  0.4792830000000  0.3767430000000 1.0
C      1  0.4894770000000  0.4605720000000  0.3930880000000 1.0
C      1  0.4280790000000  0.4728700000000  0.5287860000000 1.0
C      1  0.4321770000000  0.5395770000000  0.5763120000000 1.0
C      1  0.4936910000000  0.5866820000000  0.4808260000000 1.0
C      1  0.6226400000000  0.6094310000000  0.5482780000000 1.0
C      1  0.5138460000000  0.5290100000000  0.5344810000000 1.0
C      1  0.4305290000000  0.4698140000000  0.4634500000000 1.0
C      1  0.6460190000000  0.6175690000000  0.5564540000000 1.0
C      1  0.5910860000000  0.5338800000000  0.4371620000000 1.0
C      1  0.5291570000000  0.4667390000000  0.6333260000000 1.0
C      1  0.4866880000000  0.4673730000000  0.5808650000000 1.0
C      1  0.5442950000000  0.4957970000000  0.4635820000000 1.0
C      1  0.4467990000000  0.5804160000000  0.4833340000000 1.0
C      1  0.4471760000000  0.5177440000000  0.5238390000000 1.0
C      1  0.4703640000000  0.5778340000000  0.4679550000000 1.0
C      1  0.4893040000000  0.4912850000000  0.4629470000000 1.0
C      1  0.4922570000000  0.5713120000000  0.5478370000000 1.0
C      1  0.5101450000000  0.4041690000000  0.4895380000000 1.0
C      1  0.5108530000000  0.4583100000000  0.5106150000000 1.0
C      1  0.4404540000000  0.5505510000000  0.3928200000000 1.0
C      1  0.5131360000000  0.4922650000000  0.6716340000000 1.0
C      1  0.4252810000000  0.4619150000000  0.5547610000000 1.0
C      1  0.4462990000000  0.5285420000000  0.4766170000000 1.0
C      1  0.4720600000000  0.4976280000000  0.4184880000000 1.0
C      1  0.5039990000000  0.4454590000000  0.5658840000000 1.0
C      1  0.5106590000000  0.5623450000000  0.4173120000000 1.0
C      1  0.5275640000000  0.5730410000000  0.5141680000000 1.0
C      1  0.5717810000000  0.5438590000000  0.3906100000000 1.0
C      1  0.5494870000000  0.5092440000000  0.5896450000000 1.0
C      1  0.5706000000000  0.5043650000000  0.6053150000000 1.0
C      1  0.5712130000000  0.4375830000000  0.4827060000000 1.0
C      1  0.5193740000000  0.5775760000000  0.4873580000000 1.0
C      1  0.4852380000000  0.4933960000000  0.6322990000000 1.0
C      1  0.5455540000000  0.4211700000000  0.5760140000000 1.0
END
