TITL C-627107-135-763 -0.0556441141328071 125000 -132.704535488579 0 0 23 (C1) n - 1
REM
REM in /home/nfs/bkarasulu/CARBON/AIRSS/Generating-Clusters/LCBOP/Only-C1/SD-CG/FIRE-CG
REM
REM
REM
REM
REM
REM ./C.cell (11c1c37f851c82e70ff6c80c92926a4b)
REM AIRSS Version 0.9.1 bugfix July 2018 build 013d7b7c2542+ Fri, 06 Jul 2018 19:26:36 +0100
REM compiler GCC version 9.2.1 20190827 (Red Hat 9.2.1-1)
REM options -cpp -mtune=generic -march=x86-64 -g -O0 -fpre-include=/usr/include/finclude/math-vector-fortran.h
REM seed 1486770518 21404449 -719199019 1606563175 1950685454 1161322327 -693683238 -844733321 -349182082 529302188 1208292518 1826272863 1959968795 1920432278 -954626764 -680714429 1908100933 1307683715 -1585992640 1225437854 1903219736 2124108415 410050526 535149738 -425203313 -1235419751 -1558814275 1751135765 -558670820 966807853 1892193854 -1251598531 1976730113
REM
CELL 1.54180   50.00000   50.00000   50.00000   90.00000   90.00000   90.00000
LATT -1
SFAC C  
C      1  0.5013650000000  0.4833060000000  0.4915500000000 1.0
C      1  0.4530160000000  0.4543380000000  0.5162860000000 1.0
C      1  0.4867280000000  0.5010030000000  0.4490100000000 1.0
C      1  0.4708880000000  0.4820910000000  0.4381760000000 1.0
C      1  0.4643470000000  0.4573850000000  0.4470660000000 1.0
C      1  0.5039510000000  0.5037050000000  0.4714120000000 1.0
C      1  0.5183600000000  0.5495660000000  0.4630630000000 1.0
C      1  0.5583230000000  0.4994360000000  0.5254450000000 1.0
C      1  0.4539140000000  0.4411540000000  0.4926740000000 1.0
C      1  0.4876130000000  0.5686730000000  0.5364480000000 1.0
C      1  0.5500840000000  0.5170720000000  0.4799660000000 1.0
C      1  0.5081850000000  0.5005050000000  0.5384970000000 1.0
C      1  0.4973970000000  0.4568550000000  0.4813260000000 1.0
C      1  0.4956870000000  0.5190380000000  0.5560310000000 1.0
C      1  0.5359160000000  0.4966440000000  0.5397040000000 1.0
C      1  0.4690070000000  0.4736280000000  0.5261880000000 1.0
C      1  0.4723400000000  0.4466320000000  0.4719530000000 1.0
C      1  0.5122110000000  0.5739470000000  0.4562130000000 1.0
C      1  0.4883470000000  0.5114430000000  0.5812610000000 1.0
C      1  0.5641200000000  0.5078910000000  0.5007350000000 1.0
C      1  0.4928690000000  0.4870780000000  0.5187880000000 1.0
C      1  0.4910770000000  0.5450980000000  0.5470040000000 1.0
C      1  0.5242540000000  0.5235100000000  0.4712020000000 1.0
END
