TITL C-627108-131-254 8.41479452362494e-06 125000 -88.1483315690254 0 0 16 (C1) n - 1
REM
REM in /home/nfs/bkarasulu/CARBON/AIRSS/Generating-Clusters/LCBOP/Only-C1/SD-CG/FIRE-CG
REM
REM
REM
REM
REM
REM ./C.cell (11c1c37f851c82e70ff6c80c92926a4b)
REM AIRSS Version 0.9.1 bugfix July 2018 build 013d7b7c2542+ Fri, 06 Jul 2018 19:26:36 +0100
REM compiler GCC version 9.2.1 20190827 (Red Hat 9.2.1-1)
REM options -cpp -mtune=generic -march=x86-64 -g -O0 -fpre-include=/usr/include/finclude/math-vector-fortran.h
REM seed 149723955 2030387549 1144944125 -1642673456 -194000350 -1325561266 540715331 1409792026 -912329875 946811751 -325285098 -451369903 1714373938 -413764869 -1458560337 -52821553 89804418 -1430593438 1022715537 -1822766945 -959038494 1365964040 960488889 614296919 -1096400604 -1158718012 119790986 -1730157975 -1436075182 -773242894 269170839 -1514849913 269056526
REM
CELL 1.54180   50.00000   50.00000   50.00000   90.00000   90.00000   90.00000
LATT -1
SFAC C  
C      1  0.4339560000000  0.4811910000000  0.5460060000000 1.0
C      1  0.5383340000000  0.5077420000000  0.5226020000000 1.0
C      1  0.4871470000000  0.5138920000000  0.5094790000000 1.0
C      1  0.5087760000000  0.4730020000000  0.4533050000000 1.0
C      1  0.5026580000000  0.5005590000000  0.4607160000000 1.0
C      1  0.5505190000000  0.4932530000000  0.4602520000000 1.0
C      1  0.5289840000000  0.5132320000000  0.4576610000000 1.0
C      1  0.4863120000000  0.5083420000000  0.4818780000000 1.0
C      1  0.4200030000000  0.4618650000000  0.5565640000000 1.0
C      1  0.5667400000000  0.4954940000000  0.4829800000000 1.0
C      1  0.5601120000000  0.5014640000000  0.5083550000000 1.0
C      1  0.4636540000000  0.5209710000000  0.5236510000000 1.0
C      1  0.4481750000000  0.5007920000000  0.5352560000000 1.0
C      1  0.4562870000000  0.5472230000000  0.5259020000000 1.0
C      1  0.5363340000000  0.4688320000000  0.4528410000000 1.0
C      1  0.5120070000000  0.5121460000000  0.5225520000000 1.0
END
