TITL C-627112-676-815 -2.89657178203349e-07 125000 -1063.34392321191 0 0 176 (C1) n - 1
REM
REM in /home/nfs/bkarasulu/CARBON/AIRSS/Generating-Clusters/LCBOP/Only-C1/SD-CG/FIRE-CG
REM
REM
REM
REM
REM
REM ./C.cell (11c1c37f851c82e70ff6c80c92926a4b)
REM AIRSS Version 0.9.1 bugfix July 2018 build 013d7b7c2542+ Fri, 06 Jul 2018 19:26:36 +0100
REM compiler GCC version 9.2.1 20190827 (Red Hat 9.2.1-1)
REM options -cpp -mtune=generic -march=x86-64 -g -O0 -fpre-include=/usr/include/finclude/math-vector-fortran.h
REM seed -1436571500 1944146080 1306858692 -772355562 1392560884 -1795840634 -1794711441 292824486 -49344821 1238367567 408982789 -972818978 -1052787630 1985173050 -585571325 221212791 917573231 1812576728 -254786666 600028347 -2011689313 1093411859 369438298 -934190887 -1512645177 -1555620209 1227043961 1577958174 1609770418 1690666531 752683767 -1307713973 1010129074
REM
CELL 1.54180   50.00000   50.00000   50.00000   90.00000   90.00000   90.00000
LATT -1
SFAC C  
C      1  0.5424770000000  0.5733700000000  0.4224230000000 1.0
C      1  0.5674130000000  0.5861540000000  0.4363270000000 1.0
C      1  0.4487820000000  0.4788560000000  0.5481970000000 1.0
C      1  0.6031390000000  0.4861150000000  0.5797950000000 1.0
C      1  0.4302270000000  0.4904950000000  0.5693660000000 1.0
C      1  0.3878130000000  0.5605430000000  0.5581500000000 1.0
C      1  0.3925380000000  0.3600370000000  0.5463790000000 1.0
C      1  0.4669990000000  0.5065920000000  0.4345490000000 1.0
C      1  0.5574250000000  0.5592740000000  0.4841780000000 1.0
C      1  0.4134780000000  0.5687460000000  0.5170810000000 1.0
C      1  0.4652720000000  0.4480890000000  0.3698770000000 1.0
C      1  0.5027170000000  0.5577130000000  0.5164940000000 1.0
C      1  0.4882280000000  0.4934310000000  0.6205620000000 1.0
C      1  0.4826350000000  0.5676740000000  0.5351980000000 1.0
C      1  0.4373610000000  0.5654530000000  0.5595350000000 1.0
C      1  0.4854490000000  0.4667520000000  0.4333650000000 1.0
C      1  0.4399780000000  0.4484290000000  0.3790340000000 1.0
C      1  0.4009080000000  0.4699880000000  0.5213350000000 1.0
C      1  0.4116670000000  0.5642920000000  0.5454150000000 1.0
C      1  0.5174050000000  0.5795860000000  0.4080600000000 1.0
C      1  0.5117770000000  0.5353830000000  0.3789720000000 1.0
C      1  0.4541240000000  0.5177840000000  0.4111170000000 1.0
C      1  0.3883040000000  0.4501210000000  0.5629760000000 1.0
C      1  0.4958840000000  0.3784820000000  0.5770870000000 1.0
C      1  0.4650960000000  0.5118740000000  0.4863060000000 1.0
C      1  0.5340710000000  0.6022650000000  0.4669130000000 1.0
C      1  0.4635130000000  0.5905000000000  0.4303060000000 1.0
C      1  0.5617760000000  0.4893340000000  0.4222910000000 1.0
C      1  0.5684730000000  0.3925750000000  0.4755010000000 1.0
C      1  0.5882840000000  0.5654560000000  0.4401240000000 1.0
C      1  0.5067120000000  0.5096570000000  0.3723430000000 1.0
C      1  0.6029330000000  0.5381120000000  0.4805200000000 1.0
C      1  0.4674210000000  0.5435840000000  0.5983290000000 1.0
C      1  0.5715060000000  0.5407190000000  0.4415140000000 1.0
C      1  0.4525980000000  0.5270290000000  0.5324760000000 1.0
C      1  0.5634810000000  0.5027900000000  0.5371260000000 1.0
C      1  0.4533970000000  0.5384230000000  0.4807630000000 1.0
C      1  0.5993910000000  0.4461340000000  0.5015970000000 1.0
C      1  0.5288180000000  0.5595550000000  0.5284720000000 1.0
C      1  0.4722500000000  0.4509130000000  0.6102530000000 1.0
C      1  0.5093710000000  0.4623170000000  0.5021940000000 1.0
C      1  0.4097520000000  0.3977070000000  0.5078120000000 1.0
C      1  0.4576150000000  0.5803390000000  0.5429300000000 1.0
C      1  0.5491780000000  0.4772220000000  0.6039270000000 1.0
C      1  0.4895910000000  0.4607350000000  0.3785010000000 1.0
C      1  0.5510250000000  0.5049730000000  0.5932690000000 1.0
C      1  0.4995710000000  0.6244690000000  0.4266880000000 1.0
C      1  0.4971800000000  0.4661680000000  0.6124320000000 1.0
C      1  0.5235290000000  0.5034050000000  0.5122770000000 1.0
C      1  0.5081360000000  0.3864680000000  0.5322860000000 1.0
C      1  0.5024960000000  0.4026870000000  0.4835370000000 1.0
C      1  0.6083950000000  0.5623840000000  0.4613510000000 1.0
C      1  0.4475350000000  0.4650340000000  0.6105150000000 1.0
C      1  0.5024820000000  0.4563490000000  0.4760120000000 1.0
C      1  0.5808110000000  0.4458970000000  0.4307700000000 1.0
C      1  0.4528760000000  0.4763880000000  0.5190660000000 1.0
C      1  0.4787750000000  0.5866400000000  0.4781690000000 1.0
C      1  0.4403670000000  0.4338170000000  0.4820610000000 1.0
C      1  0.4811270000000  0.6309660000000  0.5423270000000 1.0
C      1  0.4369060000000  0.5315450000000  0.4584680000000 1.0
C      1  0.4890640000000  0.5593820000000  0.5837180000000 1.0
C      1  0.5202350000000  0.5259030000000  0.4731110000000 1.0
C      1  0.5202950000000  0.4414590000000  0.4593940000000 1.0
C      1  0.4847020000000  0.4416580000000  0.4207090000000 1.0
C      1  0.4910230000000  0.4936410000000  0.4251460000000 1.0
C      1  0.4482640000000  0.5994520000000  0.5236830000000 1.0
C      1  0.5681580000000  0.3821590000000  0.5018590000000 1.0
C      1  0.6224570000000  0.5171550000000  0.4721610000000 1.0
C      1  0.5355240000000  0.4093540000000  0.5656920000000 1.0
C      1  0.5569640000000  0.4072040000000  0.5453910000000 1.0
C      1  0.6417770000000  0.5009830000000  0.4655540000000 1.0
C      1  0.5259370000000  0.4571500000000  0.6021350000000 1.0
C      1  0.4427290000000  0.5698480000000  0.4246660000000 1.0
C      1  0.4982990000000  0.6042370000000  0.4967490000000 1.0
C      1  0.4592600000000  0.6248670000000  0.5275990000000 1.0
C      1  0.4743600000000  0.5072530000000  0.5705240000000 1.0
C      1  0.4999580000000  0.3913840000000  0.5075010000000 1.0
C      1  0.4139470000000  0.4730910000000  0.4171700000000 1.0
C      1  0.5195400000000  0.4945970000000  0.5595340000000 1.0
C      1  0.5236880000000  0.5074650000000  0.5842130000000 1.0
C      1  0.5620180000000  0.3850320000000  0.5280940000000 1.0
C      1  0.4724890000000  0.4951920000000  0.5081210000000 1.0
C      1  0.5313800000000  0.4316880000000  0.5858200000000 1.0
C      1  0.4617530000000  0.5026650000000  0.3874550000000 1.0
C      1  0.6084710000000  0.4494260000000  0.5483840000000 1.0
C      1  0.5350140000000  0.5049120000000  0.5374440000000 1.0
C      1  0.4719360000000  0.5271220000000  0.5518430000000 1.0
C      1  0.5157000000000  0.5534440000000  0.5926570000000 1.0
C      1  0.5440060000000  0.3973230000000  0.4624750000000 1.0
C      1  0.5805310000000  0.4750570000000  0.4370930000000 1.0
C      1  0.4866990000000  0.4902600000000  0.3778490000000 1.0
C      1  0.3934910000000  0.5279420000000  0.4658810000000 1.0
C      1  0.5273840000000  0.6092300000000  0.4951740000000 1.0
C      1  0.5444800000000  0.5446570000000  0.4322050000000 1.0
C      1  0.5951310000000  0.4359790000000  0.5273770000000 1.0
C      1  0.4592770000000  0.4101920000000  0.5792300000000 1.0
C      1  0.5894530000000  0.4342720000000  0.4558880000000 1.0
C      1  0.4900500000000  0.5540910000000  0.4428120000000 1.0
C      1  0.4067350000000  0.4500380000000  0.5420540000000 1.0
C      1  0.5297330000000  0.4555740000000  0.4361860000000 1.0
C      1  0.4743650000000  0.4808540000000  0.5621390000000 1.0
C      1  0.5047670000000  0.5556570000000  0.3970420000000 1.0
C      1  0.4684100000000  0.6039840000000  0.4552300000000 1.0
C      1  0.5379980000000  0.5765420000000  0.5525470000000 1.0
C      1  0.4553570000000  0.5465340000000  0.4116500000000 1.0
C      1  0.4549590000000  0.5676380000000  0.4878230000000 1.0
C      1  0.4858650000000  0.5504320000000  0.5569320000000 1.0
C      1  0.5678880000000  0.4306380000000  0.5345000000000 1.0
C      1  0.5603370000000  0.5332630000000  0.5862130000000 1.0
C      1  0.5794010000000  0.4803230000000  0.4666650000000 1.0
C      1  0.5735160000000  0.5330450000000  0.4711050000000 1.0
C      1  0.4418950000000  0.5442990000000  0.5812710000000 1.0
C      1  0.5640340000000  0.5040660000000  0.4770550000000 1.0
C      1  0.4999040000000  0.4884600000000  0.5095830000000 1.0
C      1  0.5613740000000  0.4357160000000  0.4109370000000 1.0
C      1  0.4539080000000  0.4246460000000  0.5545610000000 1.0
C      1  0.4673210000000  0.4242310000000  0.4345020000000 1.0
C      1  0.5248660000000  0.5266950000000  0.4441180000000 1.0
C      1  0.4846930000000  0.5208280000000  0.6117840000000 1.0
C      1  0.4785600000000  0.4332230000000  0.5423730000000 1.0
C      1  0.4355930000000  0.5816930000000  0.5045300000000 1.0
C      1  0.5693000000000  0.4760460000000  0.5444630000000 1.0
C      1  0.4534210000000  0.4271840000000  0.4576290000000 1.0
C      1  0.5705140000000  0.5879030000000  0.4872510000000 1.0
C      1  0.5142890000000  0.3904840000000  0.5596330000000 1.0
C      1  0.5594720000000  0.5946210000000  0.5374570000000 1.0
C      1  0.5114830000000  0.5263870000000  0.6009270000000 1.0
C      1  0.4163270000000  0.5676000000000  0.4380530000000 1.0
C      1  0.4284300000000  0.5188650000000  0.5754410000000 1.0
C      1  0.5046190000000  0.4436670000000  0.3986680000000 1.0
C      1  0.4225460000000  0.4579440000000  0.3969410000000 1.0
C      1  0.4458590000000  0.4551920000000  0.5005940000000 1.0
C      1  0.4151880000000  0.5145390000000  0.4518950000000 1.0
C      1  0.5623680000000  0.6007020000000  0.4611120000000 1.0
C      1  0.5517150000000  0.4542110000000  0.5337190000000 1.0
C      1  0.5017550000000  0.6194160000000  0.5550900000000 1.0
C      1  0.4123740000000  0.4919730000000  0.4359420000000 1.0
C      1  0.5415140000000  0.5567440000000  0.5780550000000 1.0
C      1  0.4691430000000  0.4250680000000  0.6009300000000 1.0
C      1  0.6170950000000  0.5549330000000  0.5254610000000 1.0
C      1  0.4202090000000  0.4157070000000  0.4894970000000 1.0
C      1  0.3871400000000  0.3557920000000  0.5200070000000 1.0
C      1  0.5165930000000  0.5033180000000  0.4302310000000 1.0
C      1  0.5937650000000  0.4711120000000  0.5591070000000 1.0
C      1  0.4817630000000  0.4702130000000  0.4620400000000 1.0
C      1  0.4264370000000  0.4276550000000  0.5437650000000 1.0
C      1  0.5181020000000  0.5988190000000  0.5601500000000 1.0
C      1  0.5816540000000  0.6034800000000  0.5505460000000 1.0
C      1  0.4989950000000  0.5658990000000  0.4679120000000 1.0
C      1  0.3927200000000  0.4916480000000  0.5064680000000 1.0
C      1  0.5831150000000  0.5200010000000  0.5255280000000 1.0
C      1  0.5034180000000  0.5451500000000  0.4891610000000 1.0
C      1  0.4694730000000  0.3839040000000  0.5788740000000 1.0
C      1  0.4147660000000  0.4026250000000  0.5357860000000 1.0
C      1  0.4837610000000  0.5507720000000  0.4156820000000 1.0
C      1  0.5369860000000  0.5080510000000  0.4878730000000 1.0
C      1  0.4966040000000  0.5990590000000  0.4147770000000 1.0
C      1  0.4670080000000  0.4962130000000  0.4622940000000 1.0
C      1  0.4293970000000  0.4746370000000  0.5931610000000 1.0
C      1  0.5030210000000  0.4481220000000  0.5442860000000 1.0
C      1  0.5324000000000  0.4408690000000  0.4104040000000 1.0
C      1  0.6008490000000  0.5378930000000  0.5113670000000 1.0
C      1  0.3953660000000  0.3740490000000  0.5015530000000 1.0
C      1  0.5268930000000  0.5751200000000  0.4660260000000 1.0
C      1  0.5238920000000  0.4503510000000  0.5242780000000 1.0
C      1  0.3966620000000  0.5554310000000  0.4542620000000 1.0
C      1  0.3870630000000  0.5128330000000  0.4897440000000 1.0
C      1  0.4059260000000  0.3825390000000  0.5538510000000 1.0
C      1  0.5534630000000  0.6011130000000  0.5096050000000 1.0
C      1  0.5489070000000  0.5518500000000  0.5109700000000 1.0
C      1  0.5895650000000  0.4073860000000  0.4640550000000 1.0
C      1  0.5355700000000  0.4831320000000  0.4296350000000 1.0
C      1  0.5898580000000  0.4547880000000  0.4769390000000 1.0
C      1  0.5215960000000  0.4135960000000  0.4658890000000 1.0
C      1  0.5005520000000  0.4726530000000  0.5579190000000 1.0
C      1  0.4837380000000  0.6278460000000  0.4490940000000 1.0
END
