TITL C-627111-6168-1636 5.71555266357297e-07 125000 -513.383570112711 0 0 83 (C1) n - 1
REM
REM in /home/nfs/bkarasulu/CARBON/AIRSS/Generating-Clusters/LCBOP/Only-C1/SD-CG/FIRE-CG
REM
REM
REM
REM
REM
REM ./C.cell (11c1c37f851c82e70ff6c80c92926a4b)
REM AIRSS Version 0.9.1 bugfix July 2018 build 013d7b7c2542+ Fri, 06 Jul 2018 19:26:36 +0100
REM compiler GCC version 9.2.1 20190827 (Red Hat 9.2.1-1)
REM options -cpp -mtune=generic -march=x86-64 -g -O0 -fpre-include=/usr/include/finclude/math-vector-fortran.h
REM seed 796736316 -663313891 1635638335 1287665539 1559401450 -1749580907 -590881071 -979541571 296838546 -2108328025 -901431921 -2111305743 -1039877501 1086350446 -1379938877 -865255480 797140091 923808894 -331321573 1175288004 -780292320 -1860378223 755700800 323606475 -456310011 -642821023 425469343 438860568 -11740976 -238405611 -1791318345 1846610539 1918765043
REM
CELL 1.54180   50.00000   50.00000   50.00000   90.00000   90.00000   90.00000
LATT -1
SFAC C  
C      1  0.4871720000000  0.4741710000000  0.5271480000000 1.0
C      1  0.5050320000000  0.4649770000000  0.4408050000000 1.0
C      1  0.5462410000000  0.5280960000000  0.3567000000000 1.0
C      1  0.4930230000000  0.5381010000000  0.4247610000000 1.0
C      1  0.5005890000000  0.5596890000000  0.4815950000000 1.0
C      1  0.4791990000000  0.5545040000000  0.5493770000000 1.0
C      1  0.4848230000000  0.5684200000000  0.4600640000000 1.0
C      1  0.5662930000000  0.5392020000000  0.5044470000000 1.0
C      1  0.4025560000000  0.4764320000000  0.5691300000000 1.0
C      1  0.5174580000000  0.4896050000000  0.4511200000000 1.0
C      1  0.3545900000000  0.4553900000000  0.5735350000000 1.0
C      1  0.5344050000000  0.5341020000000  0.5910380000000 1.0
C      1  0.5006560000000  0.5021660000000  0.5211840000000 1.0
C      1  0.4860150000000  0.5277850000000  0.3993440000000 1.0
C      1  0.5688930000000  0.5164470000000  0.5541400000000 1.0
C      1  0.5672320000000  0.4827880000000  0.5188810000000 1.0
C      1  0.4649330000000  0.5075500000000  0.3471910000000 1.0
C      1  0.4736910000000  0.5497360000000  0.4420860000000 1.0
C      1  0.4347620000000  0.5437680000000  0.5366960000000 1.0
C      1  0.5572100000000  0.4683450000000  0.5651140000000 1.0
C      1  0.5719900000000  0.5341310000000  0.5318540000000 1.0
C      1  0.5297020000000  0.5307380000000  0.3793860000000 1.0
C      1  0.4189050000000  0.5314000000000  0.4918720000000 1.0
C      1  0.5565810000000  0.5257770000000  0.5779570000000 1.0
C      1  0.4285940000000  0.5363550000000  0.4671750000000 1.0
C      1  0.3783870000000  0.4658190000000  0.5713940000000 1.0
C      1  0.5116920000000  0.4092120000000  0.4631720000000 1.0
C      1  0.4907750000000  0.4200700000000  0.4788490000000 1.0
C      1  0.4391430000000  0.5051300000000  0.5850870000000 1.0
C      1  0.4454640000000  0.5671330000000  0.5219380000000 1.0
C      1  0.4398690000000  0.5010780000000  0.3441810000000 1.0
C      1  0.5405560000000  0.4756780000000  0.5118660000000 1.0
C      1  0.5639080000000  0.4459610000000  0.5818390000000 1.0
C      1  0.5162930000000  0.4198210000000  0.5822870000000 1.0
C      1  0.4810680000000  0.5196800000000  0.5053550000000 1.0
C      1  0.5079550000000  0.4697940000000  0.5755030000000 1.0
C      1  0.5069600000000  0.5379850000000  0.5847640000000 1.0
C      1  0.5058060000000  0.4940560000000  0.4761370000000 1.0
C      1  0.4795260000000  0.4624680000000  0.4562930000000 1.0
C      1  0.4773850000000  0.4845700000000  0.4759740000000 1.0
C      1  0.4477590000000  0.5406100000000  0.4487510000000 1.0
C      1  0.4909980000000  0.4279960000000  0.5752640000000 1.0
C      1  0.4438740000000  0.4825470000000  0.5429280000000 1.0
C      1  0.5288480000000  0.4480750000000  0.4363140000000 1.0
C      1  0.5220300000000  0.5399230000000  0.4293810000000 1.0
C      1  0.4834670000000  0.4550130000000  0.5684320000000 1.0
C      1  0.5271480000000  0.4212630000000  0.4445630000000 1.0
C      1  0.4413360000000  0.4978800000000  0.5178520000000 1.0
C      1  0.5813530000000  0.4947120000000  0.4974440000000 1.0
C      1  0.4277390000000  0.4877270000000  0.5659140000000 1.0
C      1  0.5015480000000  0.5239880000000  0.3761040000000 1.0
C      1  0.4545140000000  0.5421910000000  0.5595980000000 1.0
C      1  0.5066830000000  0.4823970000000  0.6005140000000 1.0
C      1  0.5883640000000  0.4428500000000  0.5934780000000 1.0
C      1  0.5278760000000  0.4574390000000  0.5298060000000 1.0
C      1  0.4684940000000  0.4690110000000  0.5477440000000 1.0
C      1  0.5461800000000  0.4919440000000  0.4484090000000 1.0
C      1  0.5027810000000  0.5414960000000  0.5570560000000 1.0
C      1  0.4953260000000  0.4281120000000  0.5053940000000 1.0
C      1  0.5524820000000  0.4654880000000  0.4381190000000 1.0
C      1  0.4579280000000  0.5261250000000  0.5830720000000 1.0
C      1  0.5368120000000  0.5194160000000  0.3327920000000 1.0
C      1  0.5298270000000  0.4656390000000  0.5574400000000 1.0
C      1  0.4617640000000  0.4988150000000  0.4961040000000 1.0
C      1  0.5424080000000  0.4269310000000  0.5854060000000 1.0
C      1  0.5361210000000  0.5388390000000  0.4544310000000 1.0
C      1  0.4913260000000  0.5018870000000  0.6110020000000 1.0
C      1  0.4838860000000  0.5252280000000  0.5969510000000 1.0
C      1  0.5280710000000  0.5550230000000  0.4768190000000 1.0
C      1  0.4860010000000  0.5478550000000  0.5026690000000 1.0
C      1  0.5701640000000  0.4880790000000  0.5477800000000 1.0
C      1  0.5210090000000  0.4934680000000  0.5003680000000 1.0
C      1  0.5117100000000  0.5198890000000  0.5415500000000 1.0
C      1  0.4743490000000  0.5642690000000  0.5226560000000 1.0
C      1  0.5710070000000  0.5180760000000  0.4848290000000 1.0
C      1  0.5478200000000  0.5588010000000  0.4964420000000 1.0
C      1  0.5370810000000  0.5388880000000  0.4052570000000 1.0
C      1  0.4265740000000  0.5229490000000  0.5182070000000 1.0
C      1  0.4915680000000  0.5146130000000  0.3509610000000 1.0
C      1  0.4724320000000  0.4363720000000  0.4644300000000 1.0
C      1  0.5106260000000  0.5129250000000  0.3299660000000 1.0
C      1  0.5023060000000  0.4503950000000  0.5203700000000 1.0
C      1  0.5550760000000  0.5167240000000  0.4601920000000 1.0
END
