TITL C-627112-676-2119 -1.75537803728105e-06 125000 -454.815034695846 0 0 75 (C1) n - 1
REM
REM in /home/nfs/bkarasulu/CARBON/AIRSS/Generating-Clusters/LCBOP/Only-C1/SD-CG/FIRE-CG
REM
REM
REM
REM
REM
REM ./C.cell (11c1c37f851c82e70ff6c80c92926a4b)
REM AIRSS Version 0.9.1 bugfix July 2018 build 013d7b7c2542+ Fri, 06 Jul 2018 19:26:36 +0100
REM compiler GCC version 9.2.1 20190827 (Red Hat 9.2.1-1)
REM options -cpp -mtune=generic -march=x86-64 -g -O0 -fpre-include=/usr/include/finclude/math-vector-fortran.h
REM seed -200887500 234277306 -1535780265 810678117 14625877 2079758265 -2079801804 -189119006 -1189982361 -820478623 2032432410 -923366965 -508869659 -1039603201 -1799281355 302534924 1730708072 -763045125 106747927 1275885317 767026369 -936164885 -1521613932 1480197217 -506408371 -1173986445 1112827928 -1076228458 -2134243573 -2038721706 1627949161 -224465891 -338396047
REM
CELL 1.54180   50.00000   50.00000   50.00000   90.00000   90.00000   90.00000
LATT -1
SFAC C  
C      1  0.5017800000000  0.3674810000000  0.4683620000000 1.0
C      1  0.5798890000000  0.4656510000000  0.4989710000000 1.0
C      1  0.5437750000000  0.4794240000000  0.5342150000000 1.0
C      1  0.4428890000000  0.4546390000000  0.5426580000000 1.0
C      1  0.5117550000000  0.4052530000000  0.4416250000000 1.0
C      1  0.4836680000000  0.5817560000000  0.5937070000000 1.0
C      1  0.5372970000000  0.4088660000000  0.4538820000000 1.0
C      1  0.4606900000000  0.4051740000000  0.5221800000000 1.0
C      1  0.5108200000000  0.5376120000000  0.4681370000000 1.0
C      1  0.5217940000000  0.5950720000000  0.4868960000000 1.0
C      1  0.4910970000000  0.3882950000000  0.4519730000000 1.0
C      1  0.4645530000000  0.4402860000000  0.5543920000000 1.0
C      1  0.4206280000000  0.3752570000000  0.4590830000000 1.0
C      1  0.4304600000000  0.4158750000000  0.4830840000000 1.0
C      1  0.4640930000000  0.3949590000000  0.4539860000000 1.0
C      1  0.5428150000000  0.5455400000000  0.5388650000000 1.0
C      1  0.5956880000000  0.5837650000000  0.4373640000000 1.0
C      1  0.4914340000000  0.5646160000000  0.5045270000000 1.0
C      1  0.5867800000000  0.4643150000000  0.4717100000000 1.0
C      1  0.4372630000000  0.4164120000000  0.5107010000000 1.0
C      1  0.5788540000000  0.6035340000000  0.4430020000000 1.0
C      1  0.5245710000000  0.5143700000000  0.4612720000000 1.0
C      1  0.4689650000000  0.5167830000000  0.5617790000000 1.0
C      1  0.5047050000000  0.4227470000000  0.5334100000000 1.0
C      1  0.5349160000000  0.5710140000000  0.4987860000000 1.0
C      1  0.5576110000000  0.6144010000000  0.4547420000000 1.0
C      1  0.5137790000000  0.4554290000000  0.4982660000000 1.0
C      1  0.4950060000000  0.4883380000000  0.5307240000000 1.0
C      1  0.4449370000000  0.5678010000000  0.5099760000000 1.0
C      1  0.6107100000000  0.5336960000000  0.4423550000000 1.0
C      1  0.4209910000000  0.5233840000000  0.5226340000000 1.0
C      1  0.6063300000000  0.5594360000000  0.4375570000000 1.0
C      1  0.4703360000000  0.5641310000000  0.5227540000000 1.0
C      1  0.4778320000000  0.4196320000000  0.5399210000000 1.0
C      1  0.4755240000000  0.5647750000000  0.5502590000000 1.0
C      1  0.6018190000000  0.4849860000000  0.4603290000000 1.0
C      1  0.4691820000000  0.5434180000000  0.5690360000000 1.0
C      1  0.5304770000000  0.4884880000000  0.4627800000000 1.0
C      1  0.4881110000000  0.5989470000000  0.6141590000000 1.0
C      1  0.4256350000000  0.4958110000000  0.5207510000000 1.0
C      1  0.4383380000000  0.3952320000000  0.4652460000000 1.0
C      1  0.5289100000000  0.5232420000000  0.5437670000000 1.0
C      1  0.4720760000000  0.5553380000000  0.5950510000000 1.0
C      1  0.4930100000000  0.5905520000000  0.4890620000000 1.0
C      1  0.5216820000000  0.4966760000000  0.5381190000000 1.0
C      1  0.4264490000000  0.4373940000000  0.5270180000000 1.0
C      1  0.4224830000000  0.6000870000000  0.4802930000000 1.0
C      1  0.4927120000000  0.4727700000000  0.5067780000000 1.0
C      1  0.4253550000000  0.5488160000000  0.5160350000000 1.0
C      1  0.4161910000000  0.4383650000000  0.4738740000000 1.0
C      1  0.5123880000000  0.5982380000000  0.5558160000000 1.0
C      1  0.4454590000000  0.4824110000000  0.5367550000000 1.0
C      1  0.5273670000000  0.4653430000000  0.4757450000000 1.0
C      1  0.5142200000000  0.5505080000000  0.4933610000000 1.0
C      1  0.5390780000000  0.3959320000000  0.4797320000000 1.0
C      1  0.5429680000000  0.5708430000000  0.5262430000000 1.0
C      1  0.5255050000000  0.3710130000000  0.4812560000000 1.0
C      1  0.5651200000000  0.4710660000000  0.5205100000000 1.0
C      1  0.4920190000000  0.5496620000000  0.4504240000000 1.0
C      1  0.4092170000000  0.4629240000000  0.4817660000000 1.0
C      1  0.5349040000000  0.5926450000000  0.5423010000000 1.0
C      1  0.5393340000000  0.4132940000000  0.5017000000000 1.0
C      1  0.5760710000000  0.4441430000000  0.4553110000000 1.0
C      1  0.4123900000000  0.4820160000000  0.5000890000000 1.0
C      1  0.4702750000000  0.4955490000000  0.5436620000000 1.0
C      1  0.6092310000000  0.5084300000000  0.4503550000000 1.0
C      1  0.4695150000000  0.5880440000000  0.4724120000000 1.0
C      1  0.4447020000000  0.5857600000000  0.4872290000000 1.0
C      1  0.4892470000000  0.5858000000000  0.5653790000000 1.0
C      1  0.4731160000000  0.4789200000000  0.4877050000000 1.0
C      1  0.5579340000000  0.4264010000000  0.4470350000000 1.0
C      1  0.4745270000000  0.5704180000000  0.4505780000000 1.0
C      1  0.5206310000000  0.4314650000000  0.5120870000000 1.0
C      1  0.4616670000000  0.4870680000000  0.4657330000000 1.0
C      1  0.5364520000000  0.6122660000000  0.4707580000000 1.0
END
