TITL C-627111-6168-1910 0.00196320024805027 125000 -349.420561700468 0 0 59 (C1) n - 1
REM
REM in /home/nfs/bkarasulu/CARBON/AIRSS/Generating-Clusters/LCBOP/Only-C1/SD-CG/FIRE-CG
REM
REM
REM
REM
REM
REM ./C.cell (11c1c37f851c82e70ff6c80c92926a4b)
REM AIRSS Version 0.9.1 bugfix July 2018 build 013d7b7c2542+ Fri, 06 Jul 2018 19:26:36 +0100
REM compiler GCC version 9.2.1 20190827 (Red Hat 9.2.1-1)
REM options -cpp -mtune=generic -march=x86-64 -g -O0 -fpre-include=/usr/include/finclude/math-vector-fortran.h
REM seed -1241380767 -1845879301 -914097555 52531887 -1693428901 2020192024 -204940852 1335107147 -1157208792 2091713299 1880267539 2007120542 1541044349 1694394118 -1764797224 -624342142 -1877242514 -1417552640 401626706 1642495045 -509666422 2101784877 -815868647 331730092 1175603648 -1205555884 81921662 783657654 1734437476 1405802460 -1911798654 -124584433 -1307827695
REM
CELL 1.54180   50.00000   50.00000   50.00000   90.00000   90.00000   90.00000
LATT -1
SFAC C  
C      1  0.5359510000000  0.5540950000000  0.5318420000000 1.0
C      1  0.5258200000000  0.5114050000000  0.5534420000000 1.0
C      1  0.4873330000000  0.5598150000000  0.4846060000000 1.0
C      1  0.4158840000000  0.5298600000000  0.5314670000000 1.0
C      1  0.5186080000000  0.4161310000000  0.4823140000000 1.0
C      1  0.4288900000000  0.5126450000000  0.5493620000000 1.0
C      1  0.5105330000000  0.5622650000000  0.5416720000000 1.0
C      1  0.4770830000000  0.5283020000000  0.4433940000000 1.0
C      1  0.5604850000000  0.4313360000000  0.4969380000000 1.0
C      1  0.5579840000000  0.4404260000000  0.4692900000000 1.0
C      1  0.4990580000000  0.5062380000000  0.5618410000000 1.0
C      1  0.4765270000000  0.4877540000000  0.4156560000000 1.0
C      1  0.4933770000000  0.5460750000000  0.4589550000000 1.0
C      1  0.5537440000000  0.4677790000000  0.4629180000000 1.0
C      1  0.4795890000000  0.5268200000000  0.5552380000000 1.0
C      1  0.4819900000000  0.5423820000000  0.5076480000000 1.0
C      1  0.6343550000000  0.5604280000000  0.4659730000000 1.0
C      1  0.5226410000000  0.5186890000000  0.4837370000000 1.0
C      1  0.4403290000000  0.4664730000000  0.4674400000000 1.0
C      1  0.4405650000000  0.4697350000000  0.5664580000000 1.0
C      1  0.4875670000000  0.5465620000000  0.5356670000000 1.0
C      1  0.4937920000000  0.4297780000000  0.4834340000000 1.0
C      1  0.4513490000000  0.4416490000000  0.4600350000000 1.0
C      1  0.5001340000000  0.5851670000000  0.4884920000000 1.0
C      1  0.4850730000000  0.4663560000000  0.5183650000000 1.0
C      1  0.4256530000000  0.5363040000000  0.5073470000000 1.0
C      1  0.4946310000000  0.4564110000000  0.4937380000000 1.0
C      1  0.5328930000000  0.4042200000000  0.5299680000000 1.0
C      1  0.4325370000000  0.5128690000000  0.4664150000000 1.0
C      1  0.4523410000000  0.5232120000000  0.5613650000000 1.0
C      1  0.4667820000000  0.5018690000000  0.4369620000000 1.0
C      1  0.5364800000000  0.4224690000000  0.4599240000000 1.0
C      1  0.6111690000000  0.5507470000000  0.4728940000000 1.0
C      1  0.4454940000000  0.4914890000000  0.4535630000000 1.0
C      1  0.4273860000000  0.4677100000000  0.4934270000000 1.0
C      1  0.4274370000000  0.4840330000000  0.5457290000000 1.0
C      1  0.4981780000000  0.5034770000000  0.4837350000000 1.0
C      1  0.4708860000000  0.4248210000000  0.4678300000000 1.0
C      1  0.5208140000000  0.5373240000000  0.4625840000000 1.0
C      1  0.5717800000000  0.4891750000000  0.4659690000000 1.0
C      1  0.5462980000000  0.5675530000000  0.5085880000000 1.0
C      1  0.5862260000000  0.5403620000000  0.4803080000000 1.0
C      1  0.4724680000000  0.5143680000000  0.4990300000000 1.0
C      1  0.4652320000000  0.4722610000000  0.5774220000000 1.0
C      1  0.5800800000000  0.5138050000000  0.4725900000000 1.0
C      1  0.5261450000000  0.4735690000000  0.4594260000000 1.0
C      1  0.4691910000000  0.4902640000000  0.5168570000000 1.0
C      1  0.5035340000000  0.4767560000000  0.4759590000000 1.0
C      1  0.5371410000000  0.4161650000000  0.5054120000000 1.0
C      1  0.4899580000000  0.4790440000000  0.5653210000000 1.0
C      1  0.4431370000000  0.5227960000000  0.4900790000000 1.0
C      1  0.5275810000000  0.5843780000000  0.4955940000000 1.0
C      1  0.4964960000000  0.4617990000000  0.5436180000000 1.0
C      1  0.5389500000000  0.5146370000000  0.5062030000000 1.0
C      1  0.4865650000000  0.6086630000000  0.4856180000000 1.0
C      1  0.5687470000000  0.5570730000000  0.4950270000000 1.0
C      1  0.4227480000000  0.4729020000000  0.5196790000000 1.0
C      1  0.5277840000000  0.3939340000000  0.5533600000000 1.0
C      1  0.5385990000000  0.5253780000000  0.5322770000000 1.0
END
