TITL C-627113-6568-2049 1310.28090424411 125000 -1119.00914370982 0 0 184 (C1) n - 1
REM
REM in /home/nfs/bkarasulu/CARBON/AIRSS/Generating-Clusters/LCBOP/Only-C1/SD-CG/FIRE-CG
REM
REM
REM
REM
REM
REM ./C.cell (11c1c37f851c82e70ff6c80c92926a4b)
REM AIRSS Version 0.9.1 bugfix July 2018 build 013d7b7c2542+ Fri, 06 Jul 2018 19:26:36 +0100
REM compiler GCC version 9.2.1 20190827 (Red Hat 9.2.1-1)
REM options -cpp -mtune=generic -march=x86-64 -g -O0 -fpre-include=/usr/include/finclude/math-vector-fortran.h
REM seed -633480924 393912923 1382361172 -784482625 -1771897671 -42549217 736972663 -1853274365 1438915748 -1468272980 -1929923321 625738789 816654538 52939498 1971452910 -1302062361 -1600113948 1554432337 -731628571 -1575026992 -1892006431 230987919 778419610 383186854 -642884707 -932941986 -2131690794 1690046331 -898700824 1875671331 -731466840 -1290062077 1056143806
REM
CELL 1.54180   50.00000   50.00000   50.00000   90.00000   90.00000   90.00000
LATT -1
SFAC C  
C      1  0.4555090000000  0.4493250000000  0.5743810000000 1.0
C      1  0.5594290000000  0.4420390000000  0.4930380000000 1.0
C      1  0.5359590000000  0.5484100000000  0.4879180000000 1.0
C      1  0.5856530000000  0.4011240000000  0.5036130000000 1.0
C      1  0.4614460000000  0.4973210000000  0.3941490000000 1.0
C      1  0.6330770000000  0.4963840000000  0.6076420000000 1.0
C      1  0.4508400000000  0.5152740000000  0.4699330000000 1.0
C      1  0.5392420000000  0.5851220000000  0.4428100000000 1.0
C      1  0.5019450000000  0.5738540000000  0.5408660000000 1.0
C      1  0.4809590000000  0.4235850000000  0.4314710000000 1.0
C      1  0.4635330000000  0.3906920000000  0.5448310000000 1.0
C      1  0.6254130000000  0.4921030000000  0.5803080000000 1.0
C      1  0.5025930000000  0.4896520000000  0.5748210000000 1.0
C      1  0.5718890000000  0.4622900000000  0.4749740000000 1.0
C      1  0.4199550000000  0.4533720000000  0.5317260000000 1.0
C      1  0.5645660000000  0.4306270000000  0.4191620000000 1.0
C      1  0.4920460000000  0.5271120000000  0.5334710000000 1.0
C      1  0.4985640000000  0.4691780000000  0.5551020000000 1.0
C      1  0.4003650000000  0.4505820000000  0.4885860000000 1.0
C      1  0.4025430000000  0.5958760000000  0.4940180000000 1.0
C      1  0.4327310000000  0.5231980000000  0.5810170000000 1.0
C      1  0.4439700000000  0.4763790000000  0.5889730000000 1.0
C      1  0.3876920000000  0.5575590000000  0.5275430000000 1.0
C      1  0.3827500000000  0.4963800000000  0.4743320000000 1.0
C      1  0.5049170000000  0.5438340000000  0.6004180000000 1.0
C      1  0.5625120000000  0.5232450000000  0.4145810000000 1.0
C      1  0.5297810000000  0.4211290000000  0.4557090000000 1.0
C      1  0.5090500000000  0.4009470000000  0.5095380000000 1.0
C      1  0.5162050000000  0.4378870000000  0.4739370000000 1.0
C      1  0.4345010000000  0.4270090000000  0.5700050000000 1.0
C      1  0.4500390000000  0.5779260000000  0.5655740000000 1.0
C      1  0.4551730000000  0.5585480000000  0.4902200000000 1.0
C      1  0.4253860000000  0.4068860000000  0.4810200000000 1.0
C      1  0.4027520000000  0.4870040000000  0.5645070000000 1.0
C      1  0.3917570000000  0.5805470000000  0.5137000000000 1.0
C      1  0.5826630000000  0.5841480000000  0.4201070000000 1.0
C      1  0.5312590000000  0.4840780000000  0.4574890000000 1.0
C      1  0.5612270000000  0.4148040000000  0.5048240000000 1.0
C      1  0.4715760000000  0.5002400000000  0.4245240000000 1.0
C      1  0.5970920000000  0.5868380000000  0.4428810000000 1.0
C      1  0.4462540000000  0.4693060000000  0.4859890000000 1.0
C      1  0.5265550000000  0.5274530000000  0.4473830000000 1.0
C      1  0.4820770000000  0.6146510000000  0.5203340000000 1.0
C      1  0.5147560000000  0.3962950000000  0.5645410000000 1.0
C      1  0.4447900000000  0.5286650000000  0.5524540000000 1.0
C      1  0.5879920000000  0.4629280000000  0.4507780000000 1.0
C      1  0.4409510000000  0.5578270000000  0.5473710000000 1.0
C      1  0.4510560000000  0.6048730000000  0.5581000000000 1.0
C      1  0.4768630000000  0.4388950000000  0.5938140000000 1.0
C      1  0.4057430000000  0.5425410000000  0.4814600000000 1.0
C      1  0.4808730000000  0.5060820000000  0.5790630000000 1.0
C      1  0.5048120000000  0.5926410000000  0.5837910000000 1.0
C      1  0.4519320000000  0.4151560000000  0.4704630000000 1.0
C      1  0.5049270000000  0.5085560000000  0.4917440000000 1.0
C      1  0.5236760000000  0.4692730000000  0.5407320000000 1.0
C      1  0.5852990000000  0.4634010000000  0.5779560000000 1.0
C      1  0.6039930000000  0.5086620000000  0.5374900000000 1.0
C      1  0.4332650000000  0.5875380000000  0.4506620000000 1.0
C      1  0.4902490000000  0.5683980000000  0.5935800000000 1.0
C      1  0.6572190000000  0.5081360000000  0.6147390000000 1.0
C      1  0.5122930000000  0.4752450000000  0.4129760000000 1.0
C      1  0.5966820000000  0.5866110000000  0.5142270000000 1.0
C      1  0.5770590000000  0.4629820000000  0.6049980000000 1.0
C      1  0.4824260000000  0.5231280000000  0.5052910000000 1.0
C      1  0.4897650000000  0.4008290000000  0.5511840000000 1.0
C      1  0.4947860000000  0.4182000000000  0.5284930000000 1.0
C      1  0.4627660000000  0.6206710000000  0.5397310000000 1.0
C      1  0.5281550000000  0.5276200000000  0.5913660000000 1.0
C      1  0.4851610000000  0.4503570000000  0.4406000000000 1.0
C      1  0.6139770000000  0.4876070000000  0.6267310000000 1.0
C      1  0.5437390000000  0.4832650000000  0.5577000000000 1.0
C      1  0.5921980000000  0.5236780000000  0.4729180000000 1.0
C      1  0.3901060000000  0.5221900000000  0.4738720000000 1.0
C      1  0.4874790000000  0.4745010000000  0.4264620000000 1.0
C      1  0.4226460000000  0.4953040000000  0.5827310000000 1.0
C      1  0.5214190000000  0.5305790000000  0.5298730000000 1.0
C      1  0.5402370000000  0.6010540000000  0.4899900000000 1.0
C      1  0.5324050000000  0.4861430000000  0.4283920000000 1.0
C      1  0.5558090000000  0.5966130000000  0.4655050000000 1.0
C      1  0.5726870000000  0.5408290000000  0.5717580000000 1.0
C      1  0.5544910000000  0.5493190000000  0.4032740000000 1.0
C      1  0.4950270000000  0.4471460000000  0.3793900000000 1.0
C      1  0.4965920000000  0.4063600000000  0.4175510000000 1.0
C      1  0.4645100000000  0.4938730000000  0.5985350000000 1.0
C      1  0.4732920000000  0.5689130000000  0.3995890000000 1.0
C      1  0.5264940000000  0.5256450000000  0.5027960000000 1.0
C      1  0.6137450000000  0.4665640000000  0.5750540000000 1.0
C      1  0.5376600000000  0.5137590000000  0.4245900000000 1.0
C      1  0.5459950000000  0.5482660000000  0.5816530000000 1.0
C      1  0.4520570000000  0.4833400000000  0.5348170000000 1.0
C      1  0.5290440000000  0.5008060000000  0.5776560000000 1.0
C      1  0.5432760000000  0.5492140000000  0.5375930000000 1.0
C      1  0.5836390000000  0.5857010000000  0.4678310000000 1.0
C      1  0.6140530000000  0.5135670000000  0.5649340000000 1.0
C      1  0.4324420000000  0.3919420000000  0.5058980000000 1.0
C      1  0.5389250000000  0.5467610000000  0.3795060000000 1.0
C      1  0.4182160000000  0.5992160000000  0.4720390000000 1.0
C      1  0.4249750000000  0.4554650000000  0.5042430000000 1.0
C      1  0.5952770000000  0.5710230000000  0.4904160000000 1.0
C      1  0.5467390000000  0.5360480000000  0.4654650000000 1.0
C      1  0.4843440000000  0.5861070000000  0.4631580000000 1.0
C      1  0.5127560000000  0.5065440000000  0.4634910000000 1.0
C      1  0.5025360000000  0.6298100000000  0.5079070000000 1.0
C      1  0.4242860000000  0.5147930000000  0.4276080000000 1.0
C      1  0.5849150000000  0.5061900000000  0.4240300000000 1.0
C      1  0.5107170000000  0.5843520000000  0.4500200000000 1.0
C      1  0.4612470000000  0.5659950000000  0.5895100000000 1.0
C      1  0.4980320000000  0.4243370000000  0.6011630000000 1.0
C      1  0.4612030000000  0.3836270000000  0.5149630000000 1.0
C      1  0.4746950000000  0.5226670000000  0.5560670000000 1.0
C      1  0.4386220000000  0.4037050000000  0.5535260000000 1.0
C      1  0.5388020000000  0.5739610000000  0.4990750000000 1.0
C      1  0.5311450000000  0.6158120000000  0.5415630000000 1.0
C      1  0.4075350000000  0.4364990000000  0.5734560000000 1.0
C      1  0.5965100000000  0.5416960000000  0.4955340000000 1.0
C      1  0.4744870000000  0.4357440000000  0.5210670000000 1.0
C      1  0.4444980000000  0.5437170000000  0.5984720000000 1.0
C      1  0.3744120000000  0.4619370000000  0.5381310000000 1.0
C      1  0.6012860000000  0.5178540000000  0.4457960000000 1.0
C      1  0.4202080000000  0.5671680000000  0.4352460000000 1.0
C      1  0.5487200000000  0.4184530000000  0.4370220000000 1.0
C      1  0.5559530000000  0.4869680000000  0.4721520000000 1.0
C      1  0.5377630000000  0.4014610000000  0.5176360000000 1.0
C      1  0.5295910000000  0.5617590000000  0.5601880000000 1.0
C      1  0.5314980000000  0.4481560000000  0.4955340000000 1.0
C      1  0.5293860000000  0.6193300000000  0.5113130000000 1.0
C      1  0.4185710000000  0.4426280000000  0.4461600000000 1.0
C      1  0.4876370000000  0.3819190000000  0.5008680000000 1.0
C      1  0.4068710000000  0.4286560000000  0.4700320000000 1.0
C      1  0.4765190000000  0.5777040000000  0.4906020000000 1.0
C      1  0.5182980000000  0.4604780000000  0.3896830000000 1.0
C      1  0.5194140000000  0.6082980000000  0.5658000000000 1.0
C      1  0.4379970000000  0.4975120000000  0.4872240000000 1.0
C      1  0.5652090000000  0.5144610000000  0.4726250000000 1.0
C      1  0.4780410000000  0.5416500000000  0.3988600000000 1.0
C      1  0.4777050000000  0.4677230000000  0.4862200000000 1.0
C      1  0.4023040000000  0.5037510000000  0.5368200000000 1.0
C      1  0.5469740000000  0.4598100000000  0.3863340000000 1.0
C      1  0.4972140000000  0.5199180000000  0.3621710000000 1.0
C      1  0.5982180000000  0.5324530000000  0.5799170000000 1.0
C      1  0.4163160000000  0.5418390000000  0.4271030000000 1.0
C      1  0.4198760000000  0.3981700000000  0.5316520000000 1.0
C      1  0.4693220000000  0.4593700000000  0.5456690000000 1.0
C      1  0.5878100000000  0.4851280000000  0.5357620000000 1.0
C      1  0.3843210000000  0.4748210000000  0.4923470000000 1.0
C      1  0.4485660000000  0.5091310000000  0.4423990000000 1.0
C      1  0.4616530000000  0.5905890000000  0.4448550000000 1.0
C      1  0.4681150000000  0.5883420000000  0.4172780000000 1.0
C      1  0.4641640000000  0.4276890000000  0.4948040000000 1.0
C      1  0.4859060000000  0.5270460000000  0.4222260000000 1.0
C      1  0.5707800000000  0.4751600000000  0.5564070000000 1.0
C      1  0.4384430000000  0.4784170000000  0.3973960000000 1.0
C      1  0.5746980000000  0.5877940000000  0.5299220000000 1.0
C      1  0.5373330000000  0.3948770000000  0.5463660000000 1.0
C      1  0.4918780000000  0.4509710000000  0.4675440000000 1.0
C      1  0.5513830000000  0.5732510000000  0.5235760000000 1.0
C      1  0.6795430000000  0.5199030000000  0.6212470000000 1.0
C      1  0.6085770000000  0.3888240000000  0.5021120000000 1.0
C      1  0.5150990000000  0.4062400000000  0.5908200000000 1.0
C      1  0.5200590000000  0.4665670000000  0.5130670000000 1.0
C      1  0.3990410000000  0.4578460000000  0.5548400000000 1.0
C      1  0.5906140000000  0.4740870000000  0.6256700000000 1.0
C      1  0.5821040000000  0.4756230000000  0.4243920000000 1.0
C      1  0.5700360000000  0.5381060000000  0.5427180000000 1.0
C      1  0.4351470000000  0.4629480000000  0.4582820000000 1.0
C      1  0.4550840000000  0.4168590000000  0.4408600000000 1.0
C      1  0.4869210000000  0.5860430000000  0.5170400000000 1.0
C      1  0.4172910000000  0.4934410000000  0.4098350000000 1.0
C      1  0.4352330000000  0.4324310000000  0.4248030000000 1.0
C      1  0.3903710000000  0.5316900000000  0.5350890000000 1.0
C      1  0.5915980000000  0.5313110000000  0.5237650000000 1.0
C      1  0.4687000000000  0.4423000000000  0.3855600000000 1.0
C      1  0.4986040000000  0.4811510000000  0.5011220000000 1.0
C      1  0.4651280000000  0.5330560000000  0.4861010000000 1.0
C      1  0.4449580000000  0.4496660000000  0.4011190000000 1.0
C      1  0.4270780000000  0.5567740000000  0.4898120000000 1.0
C      1  0.3812150000000  0.4824070000000  0.5195740000000 1.0
C      1  0.5672330000000  0.4564480000000  0.4068820000000 1.0
C      1  0.4338540000000  0.5062660000000  0.5347460000000 1.0
C      1  0.5209040000000  0.5330000000000  0.3648280000000 1.0
C      1  0.4746970000000  0.5197730000000  0.3795110000000 1.0
C      1  0.5559250000000  0.5734440000000  0.4199840000000 1.0
C      1  0.4961670000000  0.3479730000000  0.4598360000000 1.0
C      1  0.4920540000000  0.3635090000000  0.4803470000000 1.0
END
