TITL C-627110-360-2043 2.48445731330155e-07 125000 -368.469673029883 0 0 60 (C1) n - 1
REM
REM in /home/nfs/bkarasulu/CARBON/AIRSS/Generating-Clusters/LCBOP/Only-C1/SD-CG/FIRE-CG
REM
REM
REM
REM
REM
REM ./C.cell (11c1c37f851c82e70ff6c80c92926a4b)
REM AIRSS Version 0.9.1 bugfix July 2018 build 013d7b7c2542+ Fri, 06 Jul 2018 19:26:36 +0100
REM compiler GCC version 9.2.1 20190827 (Red Hat 9.2.1-1)
REM options -cpp -mtune=generic -march=x86-64 -g -O0 -fpre-include=/usr/include/finclude/math-vector-fortran.h
REM seed 2038021177 388391578 -1204754355 645515680 429193245 -74852980 -177481561 1391932165 1798113828 -53951968 -1825525106 1168210755 -368649024 -222644080 1566385184 -31184824 37095310 -1210423165 -1299447643 -1875714994 -1268102526 -998567407 -1819506385 1371332181 -1359039278 805732960 1075685033 1933626846 885715340 -1154801384 113320957 1581289409 738332779
REM
CELL 1.54180   50.00000   50.00000   50.00000   90.00000   90.00000   90.00000
LATT -1
SFAC C  
C      1  0.5607960000000  0.5038400000000  0.5026830000000 1.0
C      1  0.5506250000000  0.5271490000000  0.4909040000000 1.0
C      1  0.4994310000000  0.5697080000000  0.5413440000000 1.0
C      1  0.4770600000000  0.4270240000000  0.4412850000000 1.0
C      1  0.5257990000000  0.5264820000000  0.4772090000000 1.0
C      1  0.4570980000000  0.4790000000000  0.4773050000000 1.0
C      1  0.4941650000000  0.4164690000000  0.4608030000000 1.0
C      1  0.4973110000000  0.4749530000000  0.5513290000000 1.0
C      1  0.4302290000000  0.5209120000000  0.4810770000000 1.0
C      1  0.5011460000000  0.5138420000000  0.4851350000000 1.0
C      1  0.4746690000000  0.4994040000000  0.4243420000000 1.0
C      1  0.4836580000000  0.4431360000000  0.5006320000000 1.0
C      1  0.4514500000000  0.4362840000000  0.4514350000000 1.0
C      1  0.4783110000000  0.5195120000000  0.4678460000000 1.0
C      1  0.4958750000000  0.4925810000000  0.5042800000000 1.0
C      1  0.5670170000000  0.4748280000000  0.4617310000000 1.0
C      1  0.5056450000000  0.5525700000000  0.4088970000000 1.0
C      1  0.4789810000000  0.4707310000000  0.4947250000000 1.0
C      1  0.4694830000000  0.4725560000000  0.4302700000000 1.0
C      1  0.5567710000000  0.4676410000000  0.4382770000000 1.0
C      1  0.5473780000000  0.4564900000000  0.5566590000000 1.0
C      1  0.3736570000000  0.5284290000000  0.5305220000000 1.0
C      1  0.5718930000000  0.5767250000000  0.4922370000000 1.0
C      1  0.5021540000000  0.4269360000000  0.4857640000000 1.0
C      1  0.5047720000000  0.5384330000000  0.4321040000000 1.0
C      1  0.4501210000000  0.4731600000000  0.5779390000000 1.0
C      1  0.5618800000000  0.4417340000000  0.5744050000000 1.0
C      1  0.5377160000000  0.4591950000000  0.4217570000000 1.0
C      1  0.5127230000000  0.4521060000000  0.4159580000000 1.0
C      1  0.3868240000000  0.5323060000000  0.5077830000000 1.0
C      1  0.5574300000000  0.4984840000000  0.5309580000000 1.0
C      1  0.5282800000000  0.4231010000000  0.4947660000000 1.0
C      1  0.5246580000000  0.6102550000000  0.5220860000000 1.0
C      1  0.4071410000000  0.5294160000000  0.4909510000000 1.0
C      1  0.5662020000000  0.4789010000000  0.4891620000000 1.0
C      1  0.5632440000000  0.4577050000000  0.5088020000000 1.0
C      1  0.5650130000000  0.5511120000000  0.4922020000000 1.0
C      1  0.4728140000000  0.4720740000000  0.5642930000000 1.0
C      1  0.5152250000000  0.5188400000000  0.5416620000000 1.0
C      1  0.4014380000000  0.4899410000000  0.5859780000000 1.0
C      1  0.5471270000000  0.6142840000000  0.5084940000000 1.0
C      1  0.4686300000000  0.4309200000000  0.5201180000000 1.0
C      1  0.5023670000000  0.5434640000000  0.5439290000000 1.0
C      1  0.5016250000000  0.4956230000000  0.5320460000000 1.0
C      1  0.5889970000000  0.6213520000000  0.4855860000000 1.0
C      1  0.3715950000000  0.5181580000000  0.5549440000000 1.0
C      1  0.5517020000000  0.4332830000000  0.5021810000000 1.0
C      1  0.5697870000000  0.6045190000000  0.4952170000000 1.0
C      1  0.5593030000000  0.4698090000000  0.5348500000000 1.0
C      1  0.4538540000000  0.5074030000000  0.4759820000000 1.0
C      1  0.5548880000000  0.5293860000000  0.5682970000000 1.0
C      1  0.5430430000000  0.5160830000000  0.5476260000000 1.0
C      1  0.5249710000000  0.5391300000000  0.4517340000000 1.0
C      1  0.4833610000000  0.5214220000000  0.4395730000000 1.0
C      1  0.5072680000000  0.5939400000000  0.5338080000000 1.0
C      1  0.4519980000000  0.4649990000000  0.4531130000000 1.0
C      1  0.4256770000000  0.4791210000000  0.5863480000000 1.0
C      1  0.3817640000000  0.5040480000000  0.5750380000000 1.0
C      1  0.5195490000000  0.4596020000000  0.5589210000000 1.0
C      1  0.4864080000000  0.4494930000000  0.4246960000000 1.0
END
