TITL C-627109-622-1787 9.03398091603619e-08 125000 -924.471691378563 0 0 152 (C1) n - 1
REM
REM in /home/nfs/bkarasulu/CARBON/AIRSS/Generating-Clusters/LCBOP/Only-C1/SD-CG/FIRE-CG
REM
REM
REM
REM
REM
REM ./C.cell (11c1c37f851c82e70ff6c80c92926a4b)
REM AIRSS Version 0.9.1 bugfix July 2018 build 013d7b7c2542+ Fri, 06 Jul 2018 19:26:36 +0100
REM compiler GCC version 9.2.1 20190827 (Red Hat 9.2.1-1)
REM options -cpp -mtune=generic -march=x86-64 -g -O0 -fpre-include=/usr/include/finclude/math-vector-fortran.h
REM seed -1334865528 308111634 -179050876 53819980 169395857 1107880740 574119368 -1126139079 -1778366703 1762871976 -1109525103 520820773 -866144022 -1973625933 1853520141 -1864857073 -1873287642 1560905056 1038003907 1500526448 -1646182606 1299469225 -1832042816 2102203062 506067906 1603227199 -494275863 -315141201 -1629799266 206367874 1709379915 1152063583 -100213516
REM
CELL 1.54180   50.00000   50.00000   50.00000   90.00000   90.00000   90.00000
LATT -1
SFAC C  
C      1  0.4659260000000  0.5302300000000  0.3739420000000 1.0
C      1  0.5770550000000  0.5284620000000  0.4229120000000 1.0
C      1  0.5611790000000  0.5247330000000  0.3986550000000 1.0
C      1  0.6173500000000  0.4373200000000  0.4658070000000 1.0
C      1  0.3908420000000  0.5272340000000  0.5101670000000 1.0
C      1  0.6018380000000  0.4829550000000  0.4419720000000 1.0
C      1  0.5703580000000  0.5402860000000  0.5312060000000 1.0
C      1  0.4915240000000  0.5987220000000  0.4689520000000 1.0
C      1  0.4977100000000  0.5401700000000  0.4505270000000 1.0
C      1  0.4120020000000  0.4326840000000  0.4581750000000 1.0
C      1  0.5494500000000  0.5693650000000  0.4315830000000 1.0
C      1  0.4679680000000  0.5961410000000  0.5673720000000 1.0
C      1  0.4692880000000  0.5100580000000  0.4727600000000 1.0
C      1  0.4017120000000  0.4863920000000  0.4493440000000 1.0
C      1  0.5536040000000  0.4550700000000  0.4722290000000 1.0
C      1  0.5020460000000  0.5863160000000  0.4162580000000 1.0
C      1  0.4873730000000  0.5982640000000  0.4400720000000 1.0
C      1  0.6192600000000  0.4196050000000  0.4877730000000 1.0
C      1  0.5132020000000  0.5887320000000  0.5146800000000 1.0
C      1  0.5188860000000  0.3866590000000  0.4470400000000 1.0
C      1  0.5197400000000  0.5442900000000  0.4922590000000 1.0
C      1  0.5346730000000  0.4575310000000  0.5196610000000 1.0
C      1  0.5032370000000  0.4297080000000  0.5005520000000 1.0
C      1  0.4411950000000  0.5613280000000  0.5833580000000 1.0
C      1  0.4455620000000  0.5881230000000  0.5829280000000 1.0
C      1  0.5513740000000  0.4999890000000  0.5095630000000 1.0
C      1  0.4566740000000  0.4510800000000  0.5080790000000 1.0
C      1  0.4924520000000  0.4038520000000  0.5078360000000 1.0
C      1  0.5579730000000  0.5763180000000  0.4937520000000 1.0
C      1  0.5021130000000  0.5615310000000  0.5859010000000 1.0
C      1  0.4901990000000  0.4959550000000  0.4862700000000 1.0
C      1  0.6105780000000  0.4595790000000  0.4521670000000 1.0
C      1  0.4897210000000  0.4221670000000  0.4500620000000 1.0
C      1  0.5777100000000  0.4782260000000  0.5559120000000 1.0
C      1  0.6126200000000  0.5207760000000  0.5028510000000 1.0
C      1  0.5459320000000  0.5326850000000  0.6320510000000 1.0
C      1  0.3839270000000  0.5173420000000  0.4825880000000 1.0
C      1  0.4621660000000  0.4761120000000  0.5211070000000 1.0
C      1  0.4062150000000  0.4598920000000  0.4516460000000 1.0
C      1  0.5743780000000  0.4720700000000  0.6046720000000 1.0
C      1  0.4547040000000  0.5701660000000  0.4160470000000 1.0
C      1  0.5447980000000  0.4149500000000  0.4920050000000 1.0
C      1  0.5194530000000  0.5442190000000  0.4066220000000 1.0
C      1  0.5553340000000  0.3935870000000  0.5072530000000 1.0
C      1  0.4535800000000  0.4023900000000  0.4770520000000 1.0
C      1  0.4021520000000  0.5427200000000  0.5552350000000 1.0
C      1  0.4906700000000  0.5258970000000  0.3630790000000 1.0
C      1  0.4581630000000  0.5924000000000  0.4342350000000 1.0
C      1  0.3652500000000  0.4704360000000  0.5003410000000 1.0
C      1  0.4531150000000  0.4595060000000  0.5790330000000 1.0
C      1  0.4248850000000  0.5022810000000  0.5836670000000 1.0
C      1  0.4163200000000  0.5703720000000  0.5146360000000 1.0
C      1  0.5338880000000  0.5475580000000  0.6497400000000 1.0
C      1  0.5111580000000  0.4581380000000  0.5992290000000 1.0
C      1  0.4932730000000  0.3766370000000  0.4515680000000 1.0
C      1  0.5033350000000  0.4401160000000  0.5783300000000 1.0
C      1  0.5945900000000  0.5388820000000  0.5458910000000 1.0
C      1  0.4642990000000  0.5938070000000  0.5385480000000 1.0
C      1  0.5728410000000  0.5527110000000  0.4390860000000 1.0
C      1  0.5480220000000  0.4138840000000  0.5492800000000 1.0
C      1  0.5100070000000  0.3882970000000  0.5243530000000 1.0
C      1  0.4554040000000  0.4872580000000  0.4339700000000 1.0
C      1  0.4682280000000  0.5861050000000  0.4798080000000 1.0
C      1  0.5267980000000  0.5709230000000  0.4132830000000 1.0
C      1  0.4927270000000  0.5050170000000  0.4163140000000 1.0
C      1  0.5822560000000  0.3991550000000  0.5140840000000 1.0
C      1  0.5280560000000  0.5301050000000  0.5420160000000 1.0
C      1  0.5358740000000  0.5145010000000  0.4556590000000 1.0
C      1  0.5006710000000  0.5312010000000  0.4233380000000 1.0
C      1  0.5258110000000  0.5128470000000  0.5189180000000 1.0
C      1  0.4052970000000  0.5172970000000  0.5679150000000 1.0
C      1  0.4006000000000  0.5495050000000  0.5271280000000 1.0
C      1  0.5023420000000  0.4834970000000  0.4327720000000 1.0
C      1  0.3954800000000  0.5019520000000  0.5237420000000 1.0
C      1  0.4852100000000  0.4900260000000  0.5318250000000 1.0
C      1  0.3661680000000  0.4939100000000  0.4863750000000 1.0
C      1  0.4642410000000  0.5018720000000  0.4108100000000 1.0
C      1  0.3907740000000  0.4503740000000  0.5417080000000 1.0
C      1  0.5355420000000  0.5687790000000  0.4560350000000 1.0
C      1  0.5251920000000  0.5419640000000  0.4636110000000 1.0
C      1  0.4148120000000  0.5681160000000  0.4860570000000 1.0
C      1  0.4536710000000  0.4474740000000  0.4789590000000 1.0
C      1  0.4562390000000  0.4258670000000  0.5221800000000 1.0
C      1  0.6129530000000  0.4920380000000  0.5057240000000 1.0
C      1  0.5266410000000  0.4258280000000  0.5658530000000 1.0
C      1  0.4158020000000  0.4873490000000  0.5107030000000 1.0
C      1  0.5052450000000  0.5348120000000  0.5829720000000 1.0
C      1  0.5377950000000  0.3921050000000  0.5308470000000 1.0
C      1  0.4282650000000  0.4737550000000  0.5757910000000 1.0
C      1  0.4278110000000  0.5298840000000  0.4500490000000 1.0
C      1  0.4607510000000  0.5399830000000  0.5391670000000 1.0
C      1  0.4739730000000  0.3975220000000  0.4569850000000 1.0
C      1  0.4485480000000  0.5058830000000  0.4544900000000 1.0
C      1  0.5404210000000  0.5751030000000  0.5195530000000 1.0
C      1  0.4793990000000  0.5741440000000  0.4002650000000 1.0
C      1  0.5272500000000  0.4763550000000  0.6105850000000 1.0
C      1  0.4639450000000  0.4035330000000  0.5046600000000 1.0
C      1  0.4651410000000  0.4252060000000  0.5488920000000 1.0
C      1  0.4743540000000  0.4413110000000  0.5703460000000 1.0
C      1  0.6168590000000  0.5342340000000  0.5284020000000 1.0
C      1  0.4787410000000  0.4479750000000  0.4612750000000 1.0
C      1  0.5526760000000  0.4884760000000  0.6120940000000 1.0
C      1  0.5918200000000  0.5350500000000  0.5736420000000 1.0
C      1  0.4924190000000  0.5384150000000  0.5016250000000 1.0
C      1  0.5409690000000  0.4749980000000  0.4943160000000 1.0
C      1  0.4415950000000  0.4946730000000  0.5170850000000 1.0
C      1  0.5131210000000  0.4780220000000  0.4798940000000 1.0
C      1  0.5840220000000  0.4688110000000  0.5799530000000 1.0
C      1  0.4527810000000  0.5444060000000  0.5657580000000 1.0
C      1  0.6021880000000  0.4421300000000  0.5275000000000 1.0
C      1  0.5143180000000  0.5983070000000  0.4864360000000 1.0
C      1  0.3942230000000  0.4963660000000  0.5513100000000 1.0
C      1  0.6017340000000  0.3978040000000  0.4934110000000 1.0
C      1  0.5388710000000  0.5885990000000  0.4752840000000 1.0
C      1  0.5215140000000  0.4895480000000  0.4529710000000 1.0
C      1  0.5920600000000  0.5062910000000  0.4327200000000 1.0
C      1  0.4363260000000  0.4257200000000  0.4709910000000 1.0
C      1  0.4015600000000  0.5141230000000  0.4587270000000 1.0
C      1  0.4924180000000  0.5856300000000  0.5782550000000 1.0
C      1  0.5583040000000  0.5165450000000  0.6129360000000 1.0
C      1  0.4586330000000  0.5604520000000  0.4735350000000 1.0
C      1  0.4808250000000  0.5533800000000  0.5238960000000 1.0
C      1  0.4973110000000  0.5094400000000  0.5113460000000 1.0
C      1  0.4463920000000  0.5207800000000  0.5250620000000 1.0
C      1  0.5134770000000  0.5166980000000  0.5629790000000 1.0
C      1  0.5424020000000  0.4276370000000  0.4659740000000 1.0
C      1  0.4374610000000  0.5868040000000  0.5271420000000 1.0
C      1  0.4873570000000  0.5810820000000  0.5258710000000 1.0
C      1  0.5245360000000  0.4695900000000  0.5438020000000 1.0
C      1  0.6042890000000  0.4697920000000  0.5187260000000 1.0
C      1  0.6251310000000  0.4302450000000  0.5137660000000 1.0
C      1  0.3749110000000  0.4538810000000  0.5196660000000 1.0
C      1  0.5686500000000  0.5243250000000  0.5067340000000 1.0
C      1  0.5176590000000  0.5223010000000  0.3663970000000 1.0
C      1  0.5655830000000  0.4874180000000  0.5341930000000 1.0
C      1  0.5201430000000  0.4159980000000  0.4500400000000 1.0
C      1  0.4776350000000  0.4690510000000  0.4408240000000 1.0
C      1  0.3937100000000  0.4132350000000  0.4520810000000 1.0
C      1  0.5454360000000  0.5525540000000  0.5370770000000 1.0
C      1  0.5053960000000  0.4895780000000  0.5530310000000 1.0
C      1  0.5891250000000  0.5322460000000  0.4884830000000 1.0
C      1  0.4779000000000  0.5387110000000  0.4741930000000 1.0
C      1  0.5771980000000  0.5277840000000  0.5949530000000 1.0
C      1  0.4990890000000  0.4516780000000  0.4824920000000 1.0
C      1  0.5295510000000  0.4322170000000  0.5097590000000 1.0
C      1  0.4039460000000  0.4693640000000  0.5583980000000 1.0
C      1  0.4423450000000  0.5439310000000  0.4183890000000 1.0
C      1  0.4526650000000  0.5247010000000  0.3990040000000 1.0
C      1  0.5789380000000  0.5548530000000  0.4735220000000 1.0
C      1  0.5348440000000  0.5292670000000  0.3882270000000 1.0
C      1  0.4317120000000  0.5539340000000  0.4684250000000 1.0
C      1  0.5806910000000  0.4214830000000  0.5341730000000 1.0
END
