TITL C-627106-156-674 -1.85580385209863e-07 125000 -903.679082855959 0 0 148 (C1) n - 1
REM
REM in /home/nfs/bkarasulu/CARBON/AIRSS/Generating-Clusters/LCBOP/Only-C1/SD-CG/FIRE-CG
REM
REM
REM
REM
REM
REM ./C.cell (11c1c37f851c82e70ff6c80c92926a4b)
REM AIRSS Version 0.9.1 bugfix July 2018 build 013d7b7c2542+ Fri, 06 Jul 2018 19:26:36 +0100
REM compiler GCC version 9.2.1 20190827 (Red Hat 9.2.1-1)
REM options -cpp -mtune=generic -march=x86-64 -g -O0 -fpre-include=/usr/include/finclude/math-vector-fortran.h
REM seed 1525790090 1757808631 -1434667267 -2072844306 1385630328 -9375718 984487212 -1247177295 -1674617079 585536280 1397466374 1995001153 862834822 1264344375 -863828204 -1779153971 387405434 2107533830 -257127734 -684289839 958789448 -716053294 1047730438 35257376 1292661139 -2045084895 1097549269 302767912 -557915229 1297108576 1784151664 591310838 -426695444
REM
CELL 1.54180   50.00000   50.00000   50.00000   90.00000   90.00000   90.00000
LATT -1
SFAC C  
C      1  0.4998280000000  0.4698890000000  0.6054510000000 1.0
C      1  0.5948180000000  0.5193300000000  0.4356620000000 1.0
C      1  0.4937590000000  0.4040330000000  0.5070820000000 1.0
C      1  0.4128800000000  0.4116290000000  0.5144440000000 1.0
C      1  0.4968380000000  0.5018250000000  0.4582940000000 1.0
C      1  0.3884410000000  0.5192770000000  0.5021430000000 1.0
C      1  0.4977650000000  0.4840670000000  0.6522970000000 1.0
C      1  0.5998900000000  0.5306760000000  0.4945940000000 1.0
C      1  0.4440170000000  0.5543320000000  0.4951800000000 1.0
C      1  0.4399110000000  0.5186940000000  0.4481470000000 1.0
C      1  0.5473320000000  0.4390060000000  0.4304310000000 1.0
C      1  0.4413860000000  0.5011750000000  0.6026160000000 1.0
C      1  0.5138270000000  0.4447790000000  0.6028820000000 1.0
C      1  0.5770800000000  0.5435440000000  0.4355710000000 1.0
C      1  0.4787820000000  0.6128450000000  0.5164080000000 1.0
C      1  0.6027910000000  0.4591780000000  0.5563280000000 1.0
C      1  0.5408350000000  0.5488140000000  0.5601730000000 1.0
C      1  0.5902240000000  0.4802580000000  0.5032970000000 1.0
C      1  0.4410720000000  0.5726590000000  0.4259030000000 1.0
C      1  0.4355070000000  0.4079660000000  0.4363270000000 1.0
C      1  0.4934870000000  0.6119050000000  0.4337590000000 1.0
C      1  0.5362730000000  0.4529000000000  0.5605920000000 1.0
C      1  0.5694510000000  0.4136160000000  0.4689960000000 1.0
C      1  0.4121690000000  0.4254960000000  0.4407100000000 1.0
C      1  0.4496240000000  0.5258050000000  0.4951190000000 1.0
C      1  0.5426750000000  0.5091740000000  0.4078820000000 1.0
C      1  0.4955300000000  0.4634180000000  0.5252110000000 1.0
C      1  0.4948680000000  0.5532730000000  0.5787370000000 1.0
C      1  0.4724500000000  0.3842470000000  0.4663350000000 1.0
C      1  0.5483750000000  0.5618890000000  0.4730100000000 1.0
C      1  0.5694940000000  0.5498250000000  0.5654970000000 1.0
C      1  0.4758180000000  0.5212480000000  0.3805890000000 1.0
C      1  0.4949340000000  0.5627420000000  0.4272380000000 1.0
C      1  0.5047150000000  0.5840240000000  0.5457800000000 1.0
C      1  0.4760460000000  0.3833960000000  0.4962260000000 1.0
C      1  0.4892550000000  0.5580170000000  0.4819820000000 1.0
C      1  0.6018140000000  0.5087050000000  0.5732030000000 1.0
C      1  0.5852870000000  0.4519500000000  0.5084240000000 1.0
C      1  0.5528780000000  0.5949270000000  0.5090980000000 1.0
C      1  0.5570290000000  0.4135560000000  0.4428310000000 1.0
C      1  0.5391100000000  0.5011660000000  0.4811810000000 1.0
C      1  0.5049110000000  0.5229240000000  0.5431230000000 1.0
C      1  0.5446260000000  0.4518340000000  0.4786110000000 1.0
C      1  0.4479010000000  0.3985540000000  0.4603640000000 1.0
C      1  0.4996220000000  0.4173050000000  0.5619650000000 1.0
C      1  0.5173880000000  0.4720220000000  0.5130840000000 1.0
C      1  0.3846780000000  0.4958100000000  0.4853540000000 1.0
C      1  0.4887220000000  0.3906930000000  0.4429850000000 1.0
C      1  0.4956520000000  0.4259740000000  0.4885080000000 1.0
C      1  0.4650830000000  0.4647990000000  0.4805520000000 1.0
C      1  0.5868440000000  0.5023910000000  0.4567950000000 1.0
C      1  0.6189260000000  0.5754740000000  0.4934670000000 1.0
C      1  0.4466570000000  0.4200690000000  0.4797450000000 1.0
C      1  0.4540900000000  0.5087730000000  0.5406050000000 1.0
C      1  0.4545110000000  0.5774540000000  0.5399000000000 1.0
C      1  0.5158330000000  0.4550040000000  0.3917480000000 1.0
C      1  0.5025920000000  0.5349960000000  0.4932050000000 1.0
C      1  0.5614060000000  0.5120320000000  0.4679890000000 1.0
C      1  0.5847640000000  0.4581180000000  0.4504030000000 1.0
C      1  0.4793760000000  0.5910280000000  0.5339490000000 1.0
C      1  0.4577520000000  0.5792760000000  0.4494070000000 1.0
C      1  0.4873990000000  0.4843560000000  0.6270040000000 1.0
C      1  0.4800800000000  0.6327220000000  0.4996080000000 1.0
C      1  0.5564040000000  0.4568280000000  0.4511690000000 1.0
C      1  0.4010920000000  0.4227400000000  0.4666100000000 1.0
C      1  0.4288030000000  0.5469090000000  0.5682920000000 1.0
C      1  0.4174140000000  0.4523300000000  0.4295520000000 1.0
C      1  0.4492160000000  0.4545530000000  0.5819810000000 1.0
C      1  0.5368140000000  0.4760340000000  0.4933430000000 1.0
C      1  0.6019430000000  0.5900360000000  0.5617330000000 1.0
C      1  0.5533170000000  0.6110780000000  0.5301360000000 1.0
C      1  0.5831800000000  0.5735760000000  0.5711390000000 1.0
C      1  0.4810800000000  0.4087470000000  0.4232000000000 1.0
C      1  0.5579980000000  0.5338850000000  0.4123910000000 1.0
C      1  0.5458870000000  0.4765070000000  0.5518400000000 1.0
C      1  0.4174610000000  0.5462990000000  0.5388200000000 1.0
C      1  0.4965090000000  0.5020780000000  0.3873530000000 1.0
C      1  0.3901900000000  0.4918850000000  0.4569120000000 1.0
C      1  0.4834830000000  0.5370470000000  0.4297720000000 1.0
C      1  0.6056100000000  0.5550820000000  0.4792760000000 1.0
C      1  0.4360060000000  0.5633500000000  0.5217210000000 1.0
C      1  0.5322540000000  0.5239440000000  0.5477010000000 1.0
C      1  0.4636330000000  0.4995210000000  0.6209590000000 1.0
C      1  0.4715210000000  0.5684330000000  0.5850950000000 1.0
C      1  0.4301520000000  0.3904100000000  0.5226130000000 1.0
C      1  0.4999620000000  0.5145090000000  0.4328790000000 1.0
C      1  0.4925590000000  0.5257260000000  0.5180590000000 1.0
C      1  0.4712920000000  0.4615790000000  0.5385840000000 1.0
C      1  0.4555800000000  0.4214690000000  0.4193810000000 1.0
C      1  0.4078400000000  0.4993410000000  0.5405730000000 1.0
C      1  0.4993920000000  0.4742890000000  0.3814380000000 1.0
C      1  0.5141060000000  0.5095650000000  0.4091690000000 1.0
C      1  0.4193340000000  0.4203100000000  0.4883040000000 1.0
C      1  0.5856730000000  0.5265470000000  0.5581230000000 1.0
C      1  0.5514930000000  0.5882470000000  0.4820430000000 1.0
C      1  0.5182880000000  0.4361020000000  0.5750670000000 1.0
C      1  0.6280100000000  0.4764950000000  0.4623590000000 1.0
C      1  0.3812400000000  0.4512600000000  0.5173880000000 1.0
C      1  0.4562080000000  0.5303800000000  0.4306140000000 1.0
C      1  0.5572530000000  0.5393840000000  0.4590530000000 1.0
C      1  0.5393530000000  0.6254920000000  0.4471930000000 1.0
C      1  0.6170420000000  0.5959310000000  0.5405730000000 1.0
C      1  0.4170190000000  0.4655910000000  0.4904110000000 1.0
C      1  0.4908840000000  0.4784050000000  0.5802080000000 1.0
C      1  0.4029140000000  0.4752010000000  0.4390610000000 1.0
C      1  0.5685670000000  0.4354880000000  0.4901680000000 1.0
C      1  0.6230030000000  0.5901530000000  0.5152710000000 1.0
C      1  0.5224690000000  0.4300650000000  0.6242030000000 1.0
C      1  0.4489900000000  0.5693100000000  0.5675200000000 1.0
C      1  0.4629960000000  0.5177920000000  0.5653300000000 1.0
C      1  0.5151840000000  0.6271740000000  0.4360350000000 1.0
C      1  0.5173130000000  0.5663160000000  0.5648070000000 1.0
C      1  0.4531030000000  0.4266600000000  0.5849130000000 1.0
C      1  0.4617110000000  0.5674410000000  0.4760860000000 1.0
C      1  0.4748040000000  0.4129310000000  0.5758240000000 1.0
C      1  0.4722110000000  0.4898570000000  0.4688730000000 1.0
C      1  0.5524830000000  0.4820840000000  0.4061670000000 1.0
C      1  0.3905340000000  0.4706880000000  0.4989700000000 1.0
C      1  0.4587610000000  0.5422810000000  0.3854880000000 1.0
C      1  0.4653520000000  0.5183410000000  0.5172700000000 1.0
C      1  0.4706330000000  0.4654690000000  0.5662510000000 1.0
C      1  0.5942570000000  0.4453190000000  0.5346450000000 1.0
C      1  0.4406120000000  0.5231790000000  0.5828580000000 1.0
C      1  0.4831960000000  0.5864440000000  0.4371580000000 1.0
C      1  0.5140780000000  0.5141030000000  0.4776010000000 1.0
C      1  0.6064250000000  0.4821050000000  0.5701140000000 1.0
C      1  0.5200690000000  0.4345240000000  0.4781240000000 1.0
C      1  0.5966410000000  0.5616490000000  0.4517970000000 1.0
C      1  0.4014120000000  0.5241320000000  0.5277350000000 1.0
C      1  0.4527510000000  0.3785920000000  0.5127410000000 1.0
C      1  0.5500350000000  0.5028100000000  0.5420130000000 1.0
C      1  0.5757380000000  0.5131030000000  0.5346580000000 1.0
C      1  0.4467290000000  0.4674400000000  0.5262390000000 1.0
C      1  0.4705270000000  0.4369090000000  0.4802240000000 1.0
C      1  0.5519980000000  0.6298580000000  0.5481800000000 1.0
C      1  0.6013310000000  0.4786810000000  0.4576950000000 1.0
C      1  0.4331260000000  0.4746480000000  0.5942890000000 1.0
C      1  0.5396330000000  0.4555570000000  0.4075570000000 1.0
C      1  0.4430360000000  0.4664080000000  0.4988110000000 1.0
C      1  0.5897740000000  0.5082570000000  0.5104220000000 1.0
C      1  0.3923000000000  0.4276570000000  0.5259010000000 1.0
C      1  0.4432140000000  0.4479350000000  0.4154650000000 1.0
C      1  0.5010480000000  0.4077530000000  0.5346920000000 1.0
C      1  0.4888480000000  0.5282240000000  0.5662930000000 1.0
C      1  0.4454750000000  0.5607710000000  0.4011230000000 1.0
C      1  0.4507780000000  0.5095050000000  0.4721170000000 1.0
C      1  0.5527040000000  0.6092390000000  0.4635000000000 1.0
C      1  0.4336670000000  0.4891870000000  0.5387800000000 1.0
END
