TITL C-627112-676-1666 215852.519540999 125000 -1225.8869895203 0 0 200 (C1) n - 1
REM
REM in /home/nfs/bkarasulu/CARBON/AIRSS/Generating-Clusters/LCBOP/Only-C1/SD-CG/FIRE-CG
REM
REM
REM
REM
REM
REM ./C.cell (11c1c37f851c82e70ff6c80c92926a4b)
REM AIRSS Version 0.9.1 bugfix July 2018 build 013d7b7c2542+ Fri, 06 Jul 2018 19:26:36 +0100
REM compiler GCC version 9.2.1 20190827 (Red Hat 9.2.1-1)
REM options -cpp -mtune=generic -march=x86-64 -g -O0 -fpre-include=/usr/include/finclude/math-vector-fortran.h
REM seed 470226336 -1959208768 -163569265 -674269649 -16114570 1290035310 -1133844864 1851425490 1187500350 -1319325996 -717122461 1860354810 -789940263 964505664 -1112640408 637984869 -923951773 -1598233533 860909166 -650959755 434632587 -1025805196 1291972143 966219663 -1420714092 39443919 -611814586 -2089380615 283433765 -947609382 -675833745 1243747369 -2142381756
REM
CELL 1.54180   50.00000   50.00000   50.00000   90.00000   90.00000   90.00000
LATT -1
SFAC C  
C      1  0.5648010000000  0.4889690000000  0.5413660000000 1.0
C      1  0.3995270000000  0.5457170000000  0.5425670000000 1.0
C      1  0.4413730000000  0.6394390000000  0.4726330000000 1.0
C      1  0.4709940000000  0.4590430000000  0.5532260000000 1.0
C      1  0.6151090000000  0.4968280000000  0.4957700000000 1.0
C      1  0.5525950000000  0.4849100000000  0.4662150000000 1.0
C      1  0.4554020000000  0.5637160000000  0.5933320000000 1.0
C      1  0.4288640000000  0.5627900000000  0.5830420000000 1.0
C      1  0.4194110000000  0.5911700000000  0.4330160000000 1.0
C      1  0.5151480000000  0.5303200000000  0.5641510000000 1.0
C      1  0.5256390000000  0.4242390000000  0.5843380000000 1.0
C      1  0.4014330000000  0.4293010000000  0.5707940000000 1.0
C      1  0.4983290000000  0.5374260000000  0.5425200000000 1.0
C      1  0.4725910000000  0.4833380000000  0.5380230000000 1.0
C      1  0.6039570000000  0.4582540000000  0.5331160000000 1.0
C      1  0.5486590000000  0.4240080000000  0.5449310000000 1.0
C      1  0.4252290000000  0.5006340000000  0.5380630000000 1.0
C      1  0.5212240000000  0.5973620000000  0.4515270000000 1.0
C      1  0.5377650000000  0.5620790000000  0.4933580000000 1.0
C      1  0.4060690000000  0.5232580000000  0.4013420000000 1.0
C      1  0.5603730000000  0.5011340000000  0.4010810000000 1.0
C      1  0.5085080000000  0.4766780000000  0.5102420000000 1.0
C      1  0.5542780000000  0.5414490000000  0.5890060000000 1.0
C      1  0.4598780000000  0.4052630000000  0.5241380000000 1.0
C      1  0.4999610000000  0.4864260000000  0.5347050000000 1.0
C      1  0.5161480000000  0.5809680000000  0.5371150000000 1.0
C      1  0.4935580000000  0.5928630000000  0.5253580000000 1.0
C      1  0.3943940000000  0.5515710000000  0.5141220000000 1.0
C      1  0.4041640000000  0.5451370000000  0.4202720000000 1.0
C      1  0.4153490000000  0.4203910000000  0.5950550000000 1.0
C      1  0.4060460000000  0.4252600000000  0.4418600000000 1.0
C      1  0.4353840000000  0.4532130000000  0.4839240000000 1.0
C      1  0.4735450000000  0.5020070000000  0.4688260000000 1.0
C      1  0.5289650000000  0.4584110000000  0.6187470000000 1.0
C      1  0.5685120000000  0.4236850000000  0.5245890000000 1.0
C      1  0.4294240000000  0.4766000000000  0.3924850000000 1.0
C      1  0.3597070000000  0.4951530000000  0.5396410000000 1.0
C      1  0.3850870000000  0.4094730000000  0.6383580000000 1.0
C      1  0.4279190000000  0.4564480000000  0.5480720000000 1.0
C      1  0.4227540000000  0.5682880000000  0.4739520000000 1.0
C      1  0.5529700000000  0.5398840000000  0.4850670000000 1.0
C      1  0.4651710000000  0.4579210000000  0.4485070000000 1.0
C      1  0.4743060000000  0.5416940000000  0.6021970000000 1.0
C      1  0.5590410000000  0.5438960000000  0.4337080000000 1.0
C      1  0.4193940000000  0.4293140000000  0.5483420000000 1.0
C      1  0.4058960000000  0.5185030000000  0.5464680000000 1.0
C      1  0.4359230000000  0.4773960000000  0.4981770000000 1.0
C      1  0.5322290000000  0.3986720000000  0.5445010000000 1.0
C      1  0.5961190000000  0.5458810000000  0.5736560000000 1.0
C      1  0.5502710000000  0.4550150000000  0.3998920000000 1.0
C      1  0.4516840000000  0.5008550000000  0.4889220000000 1.0
C      1  0.5195690000000  0.3959820000000  0.4735470000000 1.0
C      1  0.4524200000000  0.5023330000000  0.5442950000000 1.0
C      1  0.4250570000000  0.4062950000000  0.4418170000000 1.0
C      1  0.4495140000000  0.4509930000000  0.4281100000000 1.0
C      1  0.5148760000000  0.4871660000000  0.3908450000000 1.0
C      1  0.4740570000000  0.5093340000000  0.4113090000000 1.0
C      1  0.4729320000000  0.4640250000000  0.6125430000000 1.0
C      1  0.5817670000000  0.5668200000000  0.3671500000000 1.0
C      1  0.5670430000000  0.5976890000000  0.5159960000000 1.0
C      1  0.6053240000000  0.5198590000000  0.4556260000000 1.0
C      1  0.5954570000000  0.4685570000000  0.4531360000000 1.0
C      1  0.5831420000000  0.5749740000000  0.5072780000000 1.0
C      1  0.5143920000000  0.4021580000000  0.5687390000000 1.0
C      1  0.4474740000000  0.4295120000000  0.4857400000000 1.0
C      1  0.4449510000000  0.4204000000000  0.5987250000000 1.0
C      1  0.3996510000000  0.4125030000000  0.6169590000000 1.0
C      1  0.5693050000000  0.4342090000000  0.6017400000000 1.0
C      1  0.5038380000000  0.4179290000000  0.4059700000000 1.0
C      1  0.4391670000000  0.5243910000000  0.4435840000000 1.0
C      1  0.5661470000000  0.4952510000000  0.4864710000000 1.0
C      1  0.5066330000000  0.5807600000000  0.4313910000000 1.0
C      1  0.4720070000000  0.5873450000000  0.5864860000000 1.0
C      1  0.5929230000000  0.4693250000000  0.4240510000000 1.0
C      1  0.3741480000000  0.4692870000000  0.5437660000000 1.0
C      1  0.5833500000000  0.5540380000000  0.5297370000000 1.0
C      1  0.6079350000000  0.5104780000000  0.5419420000000 1.0
C      1  0.4765670000000  0.4614290000000  0.3920940000000 1.0
C      1  0.5664540000000  0.3876800000000  0.4375160000000 1.0
C      1  0.5815340000000  0.3887690000000  0.4597770000000 1.0
C      1  0.5920440000000  0.4387530000000  0.5152830000000 1.0
C      1  0.4476700000000  0.4635650000000  0.5685100000000 1.0
C      1  0.5210130000000  0.5867500000000  0.5654670000000 1.0
C      1  0.5383170000000  0.4629800000000  0.4568760000000 1.0
C      1  0.3842140000000  0.4943940000000  0.4714490000000 1.0
C      1  0.5725860000000  0.5667700000000  0.4355560000000 1.0
C      1  0.4498080000000  0.4583280000000  0.4010340000000 1.0
C      1  0.4545900000000  0.5639570000000  0.4143420000000 1.0
C      1  0.5460960000000  0.4809580000000  0.6125730000000 1.0
C      1  0.4927810000000  0.4353510000000  0.4982420000000 1.0
C      1  0.5683760000000  0.5198250000000  0.4964190000000 1.0
C      1  0.5115660000000  0.4683130000000  0.4509160000000 1.0
C      1  0.5217230000000  0.4347310000000  0.5014430000000 1.0
C      1  0.5319200000000  0.5060060000000  0.4023640000000 1.0
C      1  0.4860190000000  0.3973410000000  0.5674310000000 1.0
C      1  0.5827060000000  0.4458130000000  0.4667170000000 1.0
C      1  0.5005110000000  0.4625380000000  0.6205080000000 1.0
C      1  0.5735630000000  0.5915310000000  0.3621180000000 1.0
C      1  0.5688210000000  0.4747410000000  0.4091550000000 1.0
C      1  0.5888200000000  0.4413390000000  0.5837850000000 1.0
C      1  0.5213900000000  0.5508190000000  0.6219970000000 1.0
C      1  0.5321650000000  0.5249190000000  0.4706460000000 1.0
C      1  0.4321190000000  0.5449760000000  0.4594360000000 1.0
C      1  0.5720530000000  0.4978340000000  0.5683270000000 1.0
C      1  0.5206010000000  0.6193880000000  0.4936230000000 1.0
C      1  0.5481240000000  0.6083340000000  0.4946050000000 1.0
C      1  0.5195590000000  0.3784060000000  0.4969020000000 1.0
C      1  0.4863350000000  0.4891720000000  0.3947070000000 1.0
C      1  0.3774780000000  0.5326910000000  0.4991270000000 1.0
C      1  0.4841110000000  0.5275670000000  0.4567040000000 1.0
C      1  0.4543020000000  0.6088010000000  0.5469690000000 1.0
C      1  0.4617210000000  0.4829660000000  0.5939010000000 1.0
C      1  0.4661710000000  0.5894940000000  0.5302420000000 1.0
C      1  0.5707890000000  0.5931070000000  0.5513840000000 1.0
C      1  0.5427720000000  0.5378420000000  0.5636240000000 1.0
C      1  0.5536740000000  0.4722590000000  0.5237470000000 1.0
C      1  0.5503780000000  0.5972970000000  0.4657850000000 1.0
C      1  0.3890420000000  0.4743950000000  0.4523770000000 1.0
C      1  0.5200050000000  0.5214720000000  0.4227180000000 1.0
C      1  0.6056690000000  0.5420780000000  0.4753190000000 1.0
C      1  0.4472850000000  0.6131580000000  0.4681750000000 1.0
C      1  0.3830500000000  0.5242200000000  0.4697550000000 1.0
C      1  0.4864800000000  0.5591950000000  0.4158140000000 1.0
C      1  0.4414940000000  0.5506690000000  0.5120700000000 1.0
C      1  0.5389520000000  0.4190790000000  0.4819810000000 1.0
C      1  0.5022560000000  0.6111730000000  0.4716980000000 1.0
C      1  0.4335970000000  0.4103380000000  0.5338050000000 1.0
C      1  0.5947450000000  0.4296490000000  0.4873260000000 1.0
C      1  0.6050820000000  0.5336960000000  0.5248350000000 1.0
C      1  0.5439690000000  0.3936190000000  0.4240380000000 1.0
C      1  0.3909920000000  0.4695970000000  0.5191050000000 1.0
C      1  0.3800590000000  0.4490660000000  0.5641380000000 1.0
C      1  0.6076190000000  0.4917340000000  0.4669260000000 1.0
C      1  0.4737160000000  0.5132810000000  0.5876270000000 1.0
C      1  0.4767430000000  0.3914180000000  0.5414170000000 1.0
C      1  0.4739590000000  0.6023800000000  0.4710740000000 1.0
C      1  0.4849690000000  0.4738560000000  0.4637240000000 1.0
C      1  0.5371270000000  0.5290430000000  0.4430400000000 1.0
C      1  0.4649690000000  0.4040550000000  0.5858870000000 1.0
C      1  0.5365280000000  0.4424310000000  0.5631650000000 1.0
C      1  0.5108030000000  0.5359590000000  0.5178500000000 1.0
C      1  0.4579590000000  0.5624000000000  0.5311320000000 1.0
C      1  0.4493800000000  0.3952560000000  0.4444800000000 1.0
C      1  0.4718480000000  0.5440070000000  0.5475220000000 1.0
C      1  0.5035010000000  0.3960640000000  0.4500410000000 1.0
C      1  0.5141650000000  0.5636490000000  0.4780570000000 1.0
C      1  0.5050100000000  0.5611190000000  0.3623250000000 1.0
C      1  0.4755390000000  0.3922050000000  0.4494950000000 1.0
C      1  0.4894870000000  0.4640410000000  0.4922320000000 1.0
C      1  0.5533580000000  0.4393940000000  0.4636200000000 1.0
C      1  0.3886470000000  0.5385560000000  0.4449720000000 1.0
C      1  0.5236030000000  0.4594980000000  0.3913400000000 1.0
C      1  0.4268660000000  0.5935990000000  0.4604630000000 1.0
C      1  0.5168920000000  0.4018170000000  0.4252420000000 1.0
C      1  0.4198590000000  0.4748040000000  0.5248010000000 1.0
C      1  0.5122350000000  0.4858790000000  0.5605560000000 1.0
C      1  0.5836800000000  0.5418640000000  0.3759220000000 1.0
C      1  0.5006210000000  0.5800210000000  0.5863070000000 1.0
C      1  0.4601060000000  0.6091240000000  0.5733690000000 1.0
C      1  0.4688200000000  0.4204060000000  0.5017620000000 1.0
C      1  0.5620940000000  0.6147920000000  0.3594390000000 1.0
C      1  0.5000000000000  0.5565800000000  0.6049660000000 1.0
C      1  0.4565120000000  0.4407900000000  0.6152260000000 1.0
C      1  0.6011290000000  0.4510210000000  0.5613530000000 1.0
C      1  0.5036560000000  0.5077880000000  0.5775620000000 1.0
C      1  0.6144800000000  0.5273570000000  0.4989880000000 1.0
C      1  0.4477960000000  0.5252910000000  0.5021560000000 1.0
C      1  0.5376150000000  0.3866280000000  0.5182280000000 1.0
C      1  0.5465270000000  0.5452510000000  0.6143630000000 1.0
C      1  0.3792280000000  0.4862080000000  0.4985200000000 1.0
C      1  0.5944200000000  0.5163590000000  0.5671900000000 1.0
C      1  0.5318790000000  0.4602700000000  0.5114350000000 1.0
C      1  0.5906750000000  0.5679630000000  0.4800500000000 1.0
C      1  0.5771360000000  0.5192580000000  0.3881650000000 1.0
C      1  0.5740730000000  0.5811330000000  0.4596180000000 1.0
C      1  0.4178330000000  0.5620650000000  0.5010470000000 1.0
C      1  0.5311060000000  0.5591690000000  0.5215200000000 1.0
C      1  0.5134490000000  0.5205020000000  0.4933190000000 1.0
C      1  0.5478200000000  0.5968100000000  0.5679810000000 1.0
C      1  0.4469380000000  0.5108340000000  0.4198590000000 1.0
C      1  0.5888710000000  0.5693460000000  0.5563650000000 1.0
C      1  0.4958220000000  0.5616260000000  0.3866790000000 1.0
C      1  0.6157730000000  0.4640960000000  0.4095100000000 1.0
C      1  0.4712180000000  0.5740380000000  0.4713330000000 1.0
C      1  0.5338390000000  0.4699990000000  0.5685590000000 1.0
C      1  0.3664940000000  0.5088870000000  0.5140700000000 1.0
C      1  0.3946230000000  0.4494100000000  0.4443790000000 1.0
C      1  0.4098270000000  0.5618940000000  0.5636910000000 1.0
C      1  0.5532520000000  0.5462080000000  0.5376420000000 1.0
C      1  0.4913770000000  0.5292470000000  0.4262370000000 1.0
C      1  0.6114610000000  0.4856400000000  0.5243830000000 1.0
C      1  0.5403440000000  0.4337840000000  0.6072720000000 1.0
C      1  0.4253930000000  0.5669330000000  0.4186510000000 1.0
C      1  0.4259080000000  0.5029980000000  0.4022270000000 1.0
C      1  0.5840330000000  0.4019520000000  0.4846480000000 1.0
C      1  0.4891370000000  0.5529890000000  0.4701990000000 1.0
C      1  0.5589770000000  0.4039740000000  0.5025320000000 1.0
C      1  0.4600090000000  0.5225350000000  0.5614340000000 1.0
C      1  0.5531860000000  0.4845260000000  0.5852700000000 1.0
C      1  0.4998090000000  0.4429860000000  0.3938640000000 1.0
END
