TITL C-627108-131-2027 0.254448282478877 125000 -857.769788560539 0 0 141 (C1) n - 1
REM
REM in /home/nfs/bkarasulu/CARBON/AIRSS/Generating-Clusters/LCBOP/Only-C1/SD-CG/FIRE-CG
REM
REM
REM
REM
REM
REM ./C.cell (11c1c37f851c82e70ff6c80c92926a4b)
REM AIRSS Version 0.9.1 bugfix July 2018 build 013d7b7c2542+ Fri, 06 Jul 2018 19:26:36 +0100
REM compiler GCC version 9.2.1 20190827 (Red Hat 9.2.1-1)
REM options -cpp -mtune=generic -march=x86-64 -g -O0 -fpre-include=/usr/include/finclude/math-vector-fortran.h
REM seed -301600941 797146766 1514952289 1287068330 -1901713255 -1845611033 1100033655 -2115786683 1514073505 896721221 -374464057 -539403030 -1587281150 1379593782 -2060094616 790364159 -804328498 1956828263 1547816099 1666174017 232655617 755575415 1668063217 -1524139932 -1925791817 231970023 -2141241944 1792550403 656219912 -954068329 326789040 -1059515475 732999581
REM
CELL 1.54180   50.00000   50.00000   50.00000   90.00000   90.00000   90.00000
LATT -1
SFAC C  
C      1  0.4788030000000  0.5091370000000  0.6111160000000 1.0
C      1  0.4282670000000  0.4399750000000  0.4569100000000 1.0
C      1  0.5341860000000  0.5458730000000  0.5872160000000 1.0
C      1  0.4911220000000  0.4588260000000  0.3948830000000 1.0
C      1  0.5983170000000  0.4883400000000  0.3868250000000 1.0
C      1  0.4317360000000  0.5381930000000  0.4305450000000 1.0
C      1  0.6253680000000  0.4828000000000  0.5381100000000 1.0
C      1  0.4829450000000  0.5237160000000  0.5149100000000 1.0
C      1  0.5161980000000  0.4225850000000  0.6089560000000 1.0
C      1  0.4352620000000  0.5764730000000  0.4972530000000 1.0
C      1  0.4292040000000  0.4618700000000  0.4129070000000 1.0
C      1  0.5040660000000  0.5382150000000  0.4437240000000 1.0
C      1  0.5130630000000  0.5908290000000  0.5113990000000 1.0
C      1  0.4782200000000  0.4061320000000  0.4634690000000 1.0
C      1  0.4382130000000  0.4284610000000  0.4818790000000 1.0
C      1  0.4854650000000  0.4648020000000  0.4508410000000 1.0
C      1  0.4439940000000  0.4861380000000  0.4990950000000 1.0
C      1  0.5162750000000  0.5498220000000  0.5444960000000 1.0
C      1  0.4831150000000  0.4288440000000  0.5044550000000 1.0
C      1  0.5644900000000  0.5410600000000  0.5164270000000 1.0
C      1  0.4333180000000  0.5170710000000  0.4104240000000 1.0
C      1  0.4983940000000  0.5022400000000  0.5049630000000 1.0
C      1  0.5951470000000  0.4869230000000  0.4352320000000 1.0
C      1  0.4551240000000  0.4687980000000  0.5182520000000 1.0
C      1  0.5399400000000  0.4671810000000  0.5597930000000 1.0
C      1  0.5185870000000  0.4525780000000  0.3972150000000 1.0
C      1  0.4545340000000  0.5211520000000  0.3920330000000 1.0
C      1  0.4202390000000  0.5258110000000  0.5628680000000 1.0
C      1  0.4179180000000  0.4415630000000  0.5342700000000 1.0
C      1  0.4432930000000  0.5830620000000  0.5238100000000 1.0
C      1  0.5789160000000  0.4948280000000  0.5485770000000 1.0
C      1  0.4948960000000  0.5945560000000  0.4878710000000 1.0
C      1  0.5281510000000  0.4352700000000  0.4158010000000 1.0
C      1  0.5329300000000  0.4237250000000  0.5078750000000 1.0
C      1  0.5453900000000  0.5349750000000  0.4020800000000 1.0
C      1  0.4733260000000  0.5400860000000  0.4952650000000 1.0
C      1  0.4188560000000  0.5437940000000  0.5399010000000 1.0
C      1  0.4652870000000  0.4192390000000  0.4846430000000 1.0
C      1  0.5099220000000  0.5016060000000  0.5510010000000 1.0
C      1  0.5491100000000  0.5849440000000  0.5435240000000 1.0
C      1  0.4946650000000  0.6233510000000  0.4838400000000 1.0
C      1  0.5686850000000  0.5139960000000  0.5692600000000 1.0
C      1  0.4791140000000  0.5720990000000  0.4198270000000 1.0
C      1  0.4160980000000  0.4090830000000  0.5769280000000 1.0
C      1  0.4470120000000  0.4904310000000  0.4500200000000 1.0
C      1  0.4560610000000  0.4992850000000  0.4758110000000 1.0
C      1  0.4096290000000  0.5080150000000  0.4762010000000 1.0
C      1  0.4696700000000  0.5201650000000  0.5390600000000 1.0
C      1  0.5522960000000  0.5016080000000  0.5915160000000 1.0
C      1  0.4273240000000  0.5576810000000  0.4771620000000 1.0
C      1  0.5647180000000  0.5166160000000  0.4069010000000 1.0
C      1  0.4405040000000  0.4398710000000  0.4303120000000 1.0
C      1  0.5597280000000  0.5441360000000  0.5707390000000 1.0
C      1  0.4791270000000  0.4825420000000  0.4062130000000 1.0
C      1  0.4687910000000  0.4802820000000  0.4337890000000 1.0
C      1  0.6024910000000  0.4963420000000  0.5316800000000 1.0
C      1  0.4959010000000  0.5101970000000  0.3696440000000 1.0
C      1  0.4884500000000  0.4195780000000  0.4408730000000 1.0
C      1  0.5396490000000  0.4761940000000  0.5875560000000 1.0
C      1  0.6056960000000  0.5335460000000  0.4468930000000 1.0
C      1  0.4239910000000  0.4890100000000  0.4091840000000 1.0
C      1  0.5842050000000  0.5488830000000  0.4538520000000 1.0
C      1  0.4103040000000  0.4202270000000  0.5534060000000 1.0
C      1  0.5268450000000  0.6175950000000  0.5168190000000 1.0
C      1  0.4831140000000  0.5609950000000  0.5769410000000 1.0
C      1  0.4403750000000  0.5634020000000  0.5442360000000 1.0
C      1  0.5379670000000  0.5557100000000  0.4704830000000 1.0
C      1  0.5243290000000  0.5519860000000  0.4002450000000 1.0
C      1  0.4028650000000  0.5357220000000  0.5168720000000 1.0
C      1  0.5926840000000  0.5041620000000  0.4811510000000 1.0
C      1  0.4160940000000  0.4909920000000  0.4994200000000 1.0
C      1  0.5009350000000  0.5650110000000  0.4050460000000 1.0
C      1  0.5143500000000  0.4736050000000  0.5495760000000 1.0
C      1  0.5604850000000  0.4730080000000  0.5407510000000 1.0
C      1  0.6049860000000  0.5060570000000  0.4546630000000 1.0
C      1  0.4771380000000  0.4400250000000  0.5862430000000 1.0
C      1  0.5059490000000  0.5123220000000  0.4407130000000 1.0
C      1  0.5608140000000  0.5393860000000  0.4675380000000 1.0
C      1  0.5621520000000  0.5089830000000  0.4756510000000 1.0
C      1  0.4677330000000  0.5718460000000  0.4467470000000 1.0
C      1  0.4830080000000  0.4570760000000  0.5139040000000 1.0
C      1  0.5448410000000  0.5208580000000  0.5190720000000 1.0
C      1  0.5198020000000  0.4944320000000  0.4559460000000 1.0
C      1  0.4093900000000  0.4619460000000  0.4581790000000 1.0
C      1  0.4427550000000  0.4584670000000  0.5457420000000 1.0
C      1  0.4838570000000  0.5085190000000  0.5585540000000 1.0
C      1  0.6117860000000  0.3877820000000  0.5433940000000 1.0
C      1  0.5081360000000  0.4698970000000  0.4690840000000 1.0
C      1  0.3952280000000  0.4619720000000  0.5304410000000 1.0
C      1  0.4560290000000  0.5560590000000  0.5690880000000 1.0
C      1  0.5320340000000  0.4490470000000  0.4648890000000 1.0
C      1  0.4636670000000  0.5260760000000  0.4748930000000 1.0
C      1  0.5475850000000  0.4931470000000  0.4551630000000 1.0
C      1  0.4990250000000  0.4913270000000  0.6127250000000 1.0
C      1  0.5132950000000  0.6361340000000  0.4997510000000 1.0
C      1  0.4989420000000  0.4753950000000  0.4966780000000 1.0
C      1  0.4582180000000  0.4236560000000  0.5990030000000 1.0
C      1  0.5115800000000  0.5583720000000  0.4613350000000 1.0
C      1  0.5250470000000  0.5727400000000  0.5308060000000 1.0
C      1  0.5147210000000  0.4703080000000  0.6018110000000 1.0
C      1  0.5531460000000  0.4718850000000  0.5117860000000 1.0
C      1  0.4131280000000  0.4987410000000  0.5606290000000 1.0
C      1  0.4774480000000  0.5052920000000  0.3891460000000 1.0
C      1  0.4411470000000  0.5575420000000  0.4507620000000 1.0
C      1  0.6008710000000  0.5125750000000  0.5078650000000 1.0
C      1  0.4350740000000  0.4108320000000  0.5956390000000 1.0
C      1  0.5497640000000  0.4989730000000  0.5015960000000 1.0
C      1  0.5681010000000  0.5685750000000  0.5575620000000 1.0
C      1  0.4520630000000  0.6082150000000  0.5299640000000 1.0
C      1  0.5921530000000  0.4444280000000  0.4647190000000 1.0
C      1  0.3951540000000  0.4872150000000  0.5179940000000 1.0
C      1  0.5026300000000  0.4443560000000  0.5990520000000 1.0
C      1  0.4176850000000  0.4894520000000  0.4547040000000 1.0
C      1  0.5954120000000  0.5710840000000  0.5504220000000 1.0
C      1  0.5171320000000  0.4295980000000  0.4415830000000 1.0
C      1  0.4746700000000  0.4358400000000  0.3966680000000 1.0
C      1  0.5859250000000  0.4974110000000  0.4096380000000 1.0
C      1  0.5491110000000  0.4447870000000  0.4935910000000 1.0
C      1  0.3847500000000  0.5134690000000  0.5230570000000 1.0
C      1  0.4427420000000  0.5323500000000  0.5811560000000 1.0
C      1  0.5480520000000  0.6125040000000  0.5352260000000 1.0
C      1  0.4664110000000  0.4281360000000  0.4227070000000 1.0
C      1  0.4927740000000  0.4569780000000  0.5426790000000 1.0
C      1  0.4896400000000  0.5762060000000  0.4669440000000 1.0
C      1  0.5548700000000  0.4665380000000  0.4491850000000 1.0
C      1  0.5825710000000  0.4630560000000  0.4459560000000 1.0
C      1  0.6069770000000  0.5581410000000  0.5296340000000 1.0
C      1  0.4108840000000  0.5356710000000  0.4874880000000 1.0
C      1  0.4312830000000  0.4780140000000  0.5665510000000 1.0
C      1  0.5243980000000  0.5230310000000  0.5380940000000 1.0
C      1  0.5927650000000  0.5392690000000  0.5144390000000 1.0
C      1  0.5901610000000  0.4169610000000  0.5054040000000 1.0
C      1  0.5074750000000  0.4156260000000  0.5099790000000 1.0
C      1  0.5372440000000  0.5228380000000  0.6042470000000 1.0
C      1  0.6011580000000  0.4020740000000  0.5243580000000 1.0
C      1  0.4442420000000  0.4845170000000  0.5908020000000 1.0
C      1  0.4239240000000  0.4304130000000  0.5064340000000 1.0
C      1  0.5103450000000  0.5538540000000  0.5725430000000 1.0
C      1  0.5780670000000  0.4346990000000  0.4875510000000 1.0
C      1  0.4709340000000  0.4495260000000  0.5600420000000 1.0
C      1  0.4542530000000  0.5106740000000  0.5971720000000 1.0
END
