TITL C-627107-135-1322 -1.39786120208806 125000 -1181.87320420738 0 0 191 (C1) n - 1
REM
REM in /home/nfs/bkarasulu/CARBON/AIRSS/Generating-Clusters/LCBOP/Only-C1/SD-CG/FIRE-CG
REM
REM
REM
REM
REM
REM ./C.cell (11c1c37f851c82e70ff6c80c92926a4b)
REM AIRSS Version 0.9.1 bugfix July 2018 build 013d7b7c2542+ Fri, 06 Jul 2018 19:26:36 +0100
REM compiler GCC version 9.2.1 20190827 (Red Hat 9.2.1-1)
REM options -cpp -mtune=generic -march=x86-64 -g -O0 -fpre-include=/usr/include/finclude/math-vector-fortran.h
REM seed 2031033206 -619266189 -2112091837 771323370 1061084167 693978169 794310126 -1542978729 1498159168 1182688570 -337022314 212883239 -801341045 242032775 2096525205 -1717364294 498337145 -445936070 -1097041027 -1900075902 -1485651117 -604371148 612937473 670272426 -163354978 313867423 -1529396173 1150222360 463832055 -1844882700 -1640067446 919148202 -1708316799
REM
CELL 1.54180   50.00000   50.00000   50.00000   90.00000   90.00000   90.00000
LATT -1
SFAC C  
C      1  0.4838550000000  0.5436570000000  0.5953790000000 1.0
C      1  0.4898940000000  0.4702680000000  0.4285290000000 1.0
C      1  0.4806240000000  0.4961340000000  0.4637650000000 1.0
C      1  0.5996760000000  0.5028270000000  0.5772800000000 1.0
C      1  0.5034010000000  0.4754080000000  0.3758500000000 1.0
C      1  0.6267230000000  0.4819700000000  0.4453610000000 1.0
C      1  0.5667740000000  0.5358230000000  0.4781480000000 1.0
C      1  0.5320090000000  0.5029510000000  0.5116800000000 1.0
C      1  0.4725050000000  0.5927090000000  0.5397430000000 1.0
C      1  0.4112450000000  0.5291090000000  0.5419530000000 1.0
C      1  0.4309140000000  0.5328760000000  0.5650940000000 1.0
C      1  0.4676700000000  0.5366040000000  0.4935380000000 1.0
C      1  0.4749640000000  0.4800140000000  0.3708340000000 1.0
C      1  0.5870510000000  0.4199560000000  0.4630100000000 1.0
C      1  0.5184450000000  0.4416570000000  0.4930960000000 1.0
C      1  0.5666780000000  0.5516010000000  0.4075720000000 1.0
C      1  0.5153250000000  0.6263930000000  0.4720580000000 1.0
C      1  0.4077720000000  0.4518850000000  0.5725540000000 1.0
C      1  0.5675330000000  0.4379780000000  0.4562700000000 1.0
C      1  0.5524390000000  0.6363680000000  0.5042730000000 1.0
C      1  0.5773820000000  0.4394310000000  0.5829120000000 1.0
C      1  0.4344640000000  0.4249570000000  0.5312010000000 1.0
C      1  0.5185810000000  0.5278470000000  0.3921870000000 1.0
C      1  0.4376850000000  0.5552810000000  0.4244220000000 1.0
C      1  0.4710600000000  0.5174420000000  0.4225110000000 1.0
C      1  0.5644100000000  0.5412010000000  0.5056930000000 1.0
C      1  0.4135280000000  0.4235210000000  0.4831370000000 1.0
C      1  0.5051610000000  0.4545740000000  0.5381530000000 1.0
C      1  0.5277640000000  0.4066110000000  0.4484810000000 1.0
C      1  0.5619980000000  0.4798030000000  0.4120910000000 1.0
C      1  0.5237070000000  0.4474670000000  0.5569500000000 1.0
C      1  0.4774420000000  0.4013150000000  0.5533620000000 1.0
C      1  0.3611980000000  0.5342040000000  0.5016940000000 1.0
C      1  0.5171900000000  0.6087730000000  0.5189070000000 1.0
C      1  0.4498420000000  0.5261490000000  0.4718490000000 1.0
C      1  0.5277170000000  0.6634680000000  0.4349580000000 1.0
C      1  0.5021800000000  0.4380020000000  0.5157530000000 1.0
C      1  0.5435780000000  0.4291640000000  0.4429420000000 1.0
C      1  0.5822300000000  0.4768490000000  0.4317330000000 1.0
C      1  0.4768670000000  0.6019410000000  0.4881430000000 1.0
C      1  0.4967910000000  0.4987050000000  0.4234030000000 1.0
C      1  0.5041160000000  0.3944970000000  0.4511650000000 1.0
C      1  0.3364580000000  0.5237760000000  0.5065850000000 1.0
C      1  0.5604910000000  0.4797190000000  0.5548800000000 1.0
C      1  0.5723760000000  0.4986920000000  0.5712360000000 1.0
C      1  0.4843300000000  0.4223700000000  0.5960100000000 1.0
C      1  0.6075470000000  0.6046740000000  0.4971800000000 1.0
C      1  0.5430040000000  0.4285760000000  0.4962700000000 1.0
C      1  0.5278960000000  0.5007070000000  0.3818610000000 1.0
C      1  0.5534490000000  0.4850670000000  0.5039790000000 1.0
C      1  0.4878830000000  0.6016900000000  0.5163220000000 1.0
C      1  0.4466150000000  0.5591960000000  0.5656250000000 1.0
C      1  0.5572420000000  0.5116570000000  0.4657790000000 1.0
C      1  0.4002160000000  0.4912280000000  0.4292030000000 1.0
C      1  0.4875770000000  0.4548050000000  0.4525910000000 1.0
C      1  0.4421730000000  0.4786870000000  0.5473330000000 1.0
C      1  0.4397770000000  0.4888790000000  0.4969360000000 1.0
C      1  0.5441050000000  0.5184610000000  0.4405540000000 1.0
C      1  0.5374200000000  0.5249620000000  0.5609420000000 1.0
C      1  0.4633450000000  0.5255660000000  0.6029330000000 1.0
C      1  0.5134560000000  0.5521400000000  0.5309110000000 1.0
C      1  0.3915370000000  0.4917840000000  0.4571790000000 1.0
C      1  0.5001990000000  0.3672100000000  0.5081870000000 1.0
C      1  0.4306080000000  0.4737360000000  0.6139410000000 1.0
C      1  0.5386510000000  0.5507650000000  0.5157360000000 1.0
C      1  0.4616330000000  0.5448820000000  0.4124460000000 1.0
C      1  0.6131270000000  0.4861320000000  0.5340820000000 1.0
C      1  0.5605660000000  0.4194430000000  0.5650960000000 1.0
C      1  0.5417170000000  0.4636930000000  0.5669930000000 1.0
C      1  0.4066260000000  0.5696640000000  0.4702640000000 1.0
C      1  0.6114380000000  0.4804030000000  0.5633170000000 1.0
C      1  0.4851830000000  0.4881820000000  0.5708630000000 1.0
C      1  0.4025150000000  0.4429730000000  0.4633800000000 1.0
C      1  0.5569540000000  0.5839590000000  0.5575920000000 1.0
C      1  0.4147170000000  0.5394680000000  0.4314270000000 1.0
C      1  0.4965160000000  0.6055440000000  0.4666550000000 1.0
C      1  0.5944200000000  0.5579150000000  0.5388840000000 1.0
C      1  0.3652100000000  0.5617010000000  0.4967480000000 1.0
C      1  0.5815600000000  0.5683610000000  0.5618530000000 1.0
C      1  0.4493950000000  0.5993150000000  0.4797080000000 1.0
C      1  0.5935680000000  0.6148550000000  0.5175630000000 1.0
C      1  0.4417120000000  0.5123640000000  0.5860890000000 1.0
C      1  0.5620550000000  0.4857850000000  0.4765930000000 1.0
C      1  0.4341550000000  0.5689210000000  0.5205460000000 1.0
C      1  0.5323640000000  0.5114580000000  0.5385360000000 1.0
C      1  0.4384440000000  0.5806570000000  0.4367310000000 1.0
C      1  0.4842850000000  0.3708710000000  0.4869980000000 1.0
C      1  0.4509570000000  0.4808190000000  0.3866260000000 1.0
C      1  0.5726930000000  0.4663880000000  0.4573920000000 1.0
C      1  0.5344360000000  0.5712240000000  0.5692580000000 1.0
C      1  0.4299890000000  0.5858140000000  0.4633820000000 1.0
C      1  0.5545200000000  0.4746680000000  0.6169760000000 1.0
C      1  0.4614290000000  0.4095780000000  0.5302410000000 1.0
C      1  0.4384070000000  0.4115180000000  0.5827510000000 1.0
C      1  0.4051630000000  0.5166610000000  0.4180140000000 1.0
C      1  0.5896780000000  0.5752720000000  0.4592430000000 1.0
C      1  0.4610810000000  0.4511000000000  0.5083380000000 1.0
C      1  0.5339280000000  0.4461560000000  0.4226420000000 1.0
C      1  0.5667070000000  0.6201520000000  0.5228940000000 1.0
C      1  0.5979910000000  0.4407020000000  0.5386630000000 1.0
C      1  0.4556660000000  0.4870890000000  0.5730270000000 1.0
C      1  0.3965310000000  0.4795420000000  0.5327550000000 1.0
C      1  0.4292150000000  0.5094670000000  0.4813030000000 1.0
C      1  0.4731640000000  0.5633960000000  0.5778950000000 1.0
C      1  0.5021290000000  0.4872620000000  0.4791280000000 1.0
C      1  0.6110290000000  0.4602120000000  0.5200300000000 1.0
C      1  0.5670250000000  0.4533160000000  0.6058300000000 1.0
C      1  0.4518960000000  0.4649810000000  0.4861440000000 1.0
C      1  0.5880880000000  0.5361990000000  0.5218690000000 1.0
C      1  0.4113950000000  0.4302730000000  0.5117690000000 1.0
C      1  0.4527220000000  0.5608150000000  0.5013310000000 1.0
C      1  0.5248800000000  0.4994640000000  0.4304150000000 1.0
C      1  0.4174710000000  0.4467690000000  0.4388460000000 1.0
C      1  0.5432220000000  0.5009180000000  0.6174340000000 1.0
C      1  0.4228840000000  0.4988690000000  0.6056830000000 1.0
C      1  0.5362230000000  0.5457350000000  0.5840200000000 1.0
C      1  0.5070490000000  0.5615060000000  0.4370030000000 1.0
C      1  0.3950640000000  0.4543530000000  0.5179190000000 1.0
C      1  0.6047060000000  0.5912150000000  0.4743450000000 1.0
C      1  0.4552800000000  0.4153600000000  0.4325630000000 1.0
C      1  0.6208060000000  0.4599920000000  0.4935080000000 1.0
C      1  0.5996860000000  0.4522500000000  0.5667700000000 1.0
C      1  0.4917750000000  0.5328300000000  0.5327760000000 1.0
C      1  0.5278780000000  0.4373830000000  0.3967780000000 1.0
C      1  0.5132960000000  0.5479710000000  0.4111900000000 1.0
C      1  0.5267130000000  0.6265490000000  0.4979250000000 1.0
C      1  0.5652190000000  0.4755050000000  0.5273410000000 1.0
C      1  0.5125020000000  0.5710470000000  0.5522880000000 1.0
C      1  0.5372950000000  0.4740820000000  0.4240900000000 1.0
C      1  0.5279690000000  0.4064330000000  0.5699900000000 1.0
C      1  0.5006430000000  0.4878790000000  0.5953770000000 1.0
C      1  0.3960610000000  0.5079140000000  0.5264240000000 1.0
C      1  0.5114260000000  0.5353220000000  0.5986710000000 1.0
C      1  0.5172060000000  0.5077370000000  0.6062900000000 1.0
C      1  0.5066080000000  0.5460360000000  0.4608910000000 1.0
C      1  0.5068230000000  0.3945490000000  0.5513340000000 1.0
C      1  0.4964900000000  0.4654060000000  0.6117920000000 1.0
C      1  0.6284540000000  0.4705640000000  0.4698750000000 1.0
C      1  0.5215400000000  0.6456660000000  0.4529590000000 1.0
C      1  0.4461720000000  0.4522860000000  0.5328840000000 1.0
C      1  0.4979260000000  0.5339110000000  0.4847800000000 1.0
C      1  0.5003310000000  0.5886010000000  0.4437190000000 1.0
C      1  0.5071780000000  0.4595380000000  0.4739570000000 1.0
C      1  0.4662610000000  0.4085160000000  0.5788140000000 1.0
C      1  0.4681450000000  0.4165020000000  0.4074030000000 1.0
C      1  0.4644830000000  0.5151020000000  0.4511320000000 1.0
C      1  0.4044500000000  0.5427610000000  0.4586100000000 1.0
C      1  0.5826900000000  0.5113650000000  0.3854840000000 1.0
C      1  0.5486160000000  0.6029000000000  0.5368360000000 1.0
C      1  0.4443070000000  0.4400400000000  0.4418690000000 1.0
C      1  0.5744290000000  0.4226920000000  0.5380780000000 1.0
C      1  0.4935880000000  0.4788330000000  0.5455920000000 1.0
C      1  0.4533630000000  0.5008720000000  0.4057710000000 1.0
C      1  0.4119210000000  0.4667650000000  0.4187790000000 1.0
C      1  0.5606260000000  0.4189540000000  0.5139210000000 1.0
C      1  0.5123130000000  0.4152020000000  0.5932540000000 1.0
C      1  0.4272710000000  0.4660810000000  0.3939580000000 1.0
C      1  0.6061020000000  0.5013030000000  0.4000330000000 1.0
C      1  0.4822000000000  0.4303260000000  0.3888120000000 1.0
C      1  0.6048810000000  0.5297460000000  0.5846050000000 1.0
C      1  0.4129680000000  0.4741250000000  0.5555850000000 1.0
C      1  0.6035120000000  0.5116280000000  0.5238260000000 1.0
C      1  0.4324440000000  0.4034180000000  0.4735940000000 1.0
C      1  0.4466430000000  0.5791570000000  0.5433960000000 1.0
C      1  0.4550170000000  0.3977590000000  0.4558830000000 1.0
C      1  0.5052170000000  0.4466630000000  0.3831850000000 1.0
C      1  0.4801460000000  0.3863710000000  0.4639070000000 1.0
C      1  0.4699180000000  0.5555170000000  0.3885690000000 1.0
C      1  0.4600360000000  0.4536090000000  0.4609710000000 1.0
C      1  0.4518600000000  0.4619840000000  0.6001840000000 1.0
C      1  0.3866550000000  0.4660260000000  0.4688130000000 1.0
C      1  0.4767060000000  0.4272180000000  0.5119320000000 1.0
C      1  0.4686420000000  0.5207270000000  0.5203560000000 1.0
C      1  0.5851240000000  0.5509730000000  0.5853410000000 1.0
C      1  0.5715480000000  0.5544640000000  0.4567390000000 1.0
C      1  0.4500860000000  0.4982440000000  0.5232770000000 1.0
C      1  0.5122260000000  0.3764280000000  0.5302790000000 1.0
C      1  0.4755100000000  0.4478260000000  0.6056870000000 1.0
C      1  0.5783660000000  0.5392300000000  0.3867420000000 1.0
C      1  0.3842140000000  0.5770930000000  0.4855280000000 1.0
C      1  0.3846070000000  0.5176120000000  0.5010600000000 1.0
C      1  0.6076280000000  0.4871990000000  0.4251310000000 1.0
C      1  0.4005150000000  0.5157560000000  0.4748280000000 1.0
C      1  0.5602820000000  0.5236710000000  0.6199550000000 1.0
C      1  0.5583970000000  0.5437660000000  0.4331530000000 1.0
C      1  0.4882170000000  0.5808450000000  0.5609040000000 1.0
C      1  0.4172660000000  0.4280750000000  0.5808780000000 1.0
C      1  0.5614700000000  0.5439940000000  0.6001340000000 1.0
C      1  0.5119410000000  0.5093080000000  0.4933630000000 1.0
C      1  0.4115500000000  0.5534960000000  0.5263700000000 1.0
C      1  0.5581180000000  0.4953310000000  0.3879690000000 1.0
END
