TITL C-627111-6168-832 0.00827880697155443 125000 -300.987108285342 0 0 51 (C1) n - 1
REM
REM in /home/nfs/bkarasulu/CARBON/AIRSS/Generating-Clusters/LCBOP/Only-C1/SD-CG/FIRE-CG
REM
REM
REM
REM
REM
REM ./C.cell (11c1c37f851c82e70ff6c80c92926a4b)
REM AIRSS Version 0.9.1 bugfix July 2018 build 013d7b7c2542+ Fri, 06 Jul 2018 19:26:36 +0100
REM compiler GCC version 9.2.1 20190827 (Red Hat 9.2.1-1)
REM options -cpp -mtune=generic -march=x86-64 -g -O0 -fpre-include=/usr/include/finclude/math-vector-fortran.h
REM seed 1465257738 280187930 83144129 -602796386 235630683 1630928535 -556958887 1043881358 829469416 -512880156 -1706911366 -2127553778 -1434587987 386444937 215169323 -1451474722 1522422596 1163040154 -21251267 1750638564 -1092916684 515571854 -1602245009 -497108423 1512923858 -245161344 -1720325349 -899557927 -1971075979 -269900430 469150648 188257804 -2096163185
REM
CELL 1.54180   50.00000   50.00000   50.00000   90.00000   90.00000   90.00000
LATT -1
SFAC C  
C      1  0.4580090000000  0.4721810000000  0.5102890000000 1.0
C      1  0.4360730000000  0.4283150000000  0.5115120000000 1.0
C      1  0.5426970000000  0.5393010000000  0.4388750000000 1.0
C      1  0.4710050000000  0.5155820000000  0.3952290000000 1.0
C      1  0.4446600000000  0.5402070000000  0.4971480000000 1.0
C      1  0.4408520000000  0.4521170000000  0.4990680000000 1.0
C      1  0.5564640000000  0.4737030000000  0.4970830000000 1.0
C      1  0.4938790000000  0.4887260000000  0.4823370000000 1.0
C      1  0.5042510000000  0.5192280000000  0.5182130000000 1.0
C      1  0.4103970000000  0.4801970000000  0.4744410000000 1.0
C      1  0.4857690000000  0.4716280000000  0.5040890000000 1.0
C      1  0.5321520000000  0.4603250000000  0.5018020000000 1.0
C      1  0.5114530000000  0.5759280000000  0.5062330000000 1.0
C      1  0.5518960000000  0.4364920000000  0.5658970000000 1.0
C      1  0.4688900000000  0.4647150000000  0.4442400000000 1.0
C      1  0.5083910000000  0.4450000000000  0.5404510000000 1.0
C      1  0.5496500000000  0.4949710000000  0.4525520000000 1.0
C      1  0.5074530000000  0.4574200000000  0.5154430000000 1.0
C      1  0.5779560000000  0.4662280000000  0.5135020000000 1.0
C      1  0.5543200000000  0.5464560000000  0.5021460000000 1.0
C      1  0.4568640000000  0.5102100000000  0.3740070000000 1.0
C      1  0.5261970000000  0.4375540000000  0.5589170000000 1.0
C      1  0.4679070000000  0.5542740000000  0.4892790000000 1.0
C      1  0.4744310000000  0.5369690000000  0.4389490000000 1.0
C      1  0.4858000000000  0.5204840000000  0.4184160000000 1.0
C      1  0.5371890000000  0.5670290000000  0.5060650000000 1.0
C      1  0.6175840000000  0.4272260000000  0.5952240000000 1.0
C      1  0.4868110000000  0.5620370000000  0.5105250000000 1.0
C      1  0.5374390000000  0.5119500000000  0.4331630000000 1.0
C      1  0.4446850000000  0.4550800000000  0.4507800000000 1.0
C      1  0.5055440000000  0.5133930000000  0.4902620000000 1.0
C      1  0.4839580000000  0.5433530000000  0.5567650000000 1.0
C      1  0.5118710000000  0.5087900000000  0.4210230000000 1.0
C      1  0.5989160000000  0.4342350000000  0.5784430000000 1.0
C      1  0.4719440000000  0.5497000000000  0.6079810000000 1.0
C      1  0.4781970000000  0.5467340000000  0.5823950000000 1.0
C      1  0.4336920000000  0.5148230000000  0.5024460000000 1.0
C      1  0.5281850000000  0.5492240000000  0.4593590000000 1.0
C      1  0.4907260000000  0.5410730000000  0.5300180000000 1.0
C      1  0.4437770000000  0.4997460000000  0.5478040000000 1.0
C      1  0.4458400000000  0.4961120000000  0.5207410000000 1.0
C      1  0.4289940000000  0.4589770000000  0.4738260000000 1.0
C      1  0.4657440000000  0.5525660000000  0.6331400000000 1.0
C      1  0.5573510000000  0.4966750000000  0.4801180000000 1.0
C      1  0.4876150000000  0.4791940000000  0.4567930000000 1.0
C      1  0.5789580000000  0.4417290000000  0.5605010000000 1.0
C      1  0.5612150000000  0.5222290000000  0.4924210000000 1.0
C      1  0.4809130000000  0.5451700000000  0.4651640000000 1.0
C      1  0.4131560000000  0.5042800000000  0.4861840000000 1.0
C      1  0.5070320000000  0.5357010000000  0.4723070000000 1.0
C      1  0.5852460000000  0.4547640000000  0.5364300000000 1.0
END
