TITL C-106852-6409-22 -4.402 3375.00 -762.97412712 0 0 93 (C1) n - 1
REM
REM Run started: at 2020.12.04 22:50:57 in /rds/project/t2_vol4/rds-t2-cs072/BORA/CARBON/AIRSS/Generating-Clusters/Str-Search/Only-C1/C10-100
REM VASP from code version vasp.5.4.4.18Apr17-6-g9f103f2a35 (build Oct 11 2019 16:45:47) gamma-only
REM
REM
REM
REM
REM ./C.cell (67c5d0192afd7a3ce4a0888e5fe73b87)
REM AIRSS Version 0.9.1 bugfix July 2018 build 013d7b7c2542+ Fri, 06 Jul 2018 19:26:36 +0100
REM compiler GCC version 4.8.5 20150623 (Red Hat 4.8.5-39)
REM options -cpp -mtune=generic -march=x86-64 -g -O0
REM seed -502466668 -1670208048 1084068775 631484444 927592146 2102631816 -2024344485 -1634579851 -507855122 565810229 1738113442 -146565715
REM
REM C.POTCAR (d86ddea03c3ceb6dc662c8ad6801f873)
REM 
CELL 1.54180   15.00000   15.00000   15.00000   90.00000   90.00000   90.00000
LATT -1
SFAC C  
C      1  0.4373982890163  0.6790392652677  0.5257090410782 1.0
C      1  0.6293816790079  0.4382319103316  0.2994624114749 1.0
C      1  0.4627653347253  0.4247115853693  0.7353865003660 1.0
C      1  0.4446451055661  0.7443289557290  0.3452020282989 1.0
C      1  0.7073847445557  0.3164930244242  0.5766352346413 1.0
C      1  0.3119906025418  0.6482269747638  0.4055050001999 1.0
C      1  0.3009048545765  0.3808727113339  0.6694806144208 1.0
C      1  0.2476069620156  0.6832322196406  0.6441831335660 1.0
C      1  0.4736106603662  0.2303458400546  0.5570802374797 1.0
C      1  0.2144577085909  0.4085645005205  0.5008582278345 1.0
C      1  0.4879993340206  0.7569219259337  0.5131577309973 1.0
C      1  0.2093292639497  0.6429476524105  0.5685820247242 1.0
C      1  0.5700147852495  0.7936865756070  0.3886131173536 1.0
C      1  0.6086094158359  0.6885990138816  0.2749341070754 1.0
C      1  0.2498582335043  0.4905731614609  0.3619781096730 1.0
C      1  0.2799742737440  0.4742152450360  0.2754377834135 1.0
C      1  0.7026347522289  0.3653603793708  0.6574592792081 1.0
C      1  0.3918625773838  0.5845763799723  0.1807098413981 1.0
C      1  0.7001556257471  0.6448640209470  0.6049570120051 1.0
C      1  0.3180826887635  0.6715026932948  0.7001691873406 1.0
C      1  0.5341335216224  0.4052861339149  0.3193422095549 1.0
C      1  0.7379540866661  0.4562171443716  0.6542787639271 1.0
C      1  0.7355005386189  0.5837896206255  0.5342184403298 1.0
C      1  0.4390024112279  0.5121959148534  0.4045701358623 1.0
C      1  0.7700795219944  0.4740578918929  0.3950905801211 1.0
C      1  0.3876252644927  0.2656895686917  0.5886193090949 1.0
C      1  0.6794819450614  0.3552655129473  0.4302869010468 1.0
C      1  0.6336366733209  0.7610136880800  0.4519949449998 1.0
C      1  0.4176455246835  0.4916685821922  0.1890005419907 1.0
C      1  0.6190517598498  0.6980475640246  0.6054675773028 1.0
C      1  0.3357990659892  0.4538923492879  0.2157972276609 1.0
C      1  0.4266023349994  0.2781996815287  0.2988395769283 1.0
C      1  0.4453099350056  0.5771065508505  0.7586580617433 1.0
C      1  0.5017038944716  0.3817603452181  0.8085610089811 1.0
C      1  0.4681284719339  0.2226778304954  0.4618355270377 1.0
C      1  0.4690977701622  0.4271502318103  0.5680579283206 1.0
C      1  0.4813091491953  0.7900969610332  0.4242945316177 1.0
C      1  0.6535611288934  0.5241144228502  0.5056907281215 1.0
C      1  0.6953445442536  0.6947061440072  0.3213316887201 1.0
C      1  0.7930035067678  0.4411411649312  0.4908720731527 1.0
C      1  0.4996750526140  0.4427995469947  0.4074634168132 1.0
C      1  0.5832227633124  0.6273607060775  0.6830651298793 1.0
C      1  0.7244000178817  0.6082141706872  0.2950385522562 1.0
C      1  0.5952194751475  0.5121424523129  0.2495477939208 1.0
C      1  0.7036169914499  0.4154503000394  0.3539729055276 1.0
C      1  0.4009719504404  0.6150432883070  0.2694184113280 1.0
C      1  0.5374974235473  0.2591048247196  0.4067128399928 1.0
C      1  0.6329170989248  0.4350392767894  0.4860940932360 1.0
C      1  0.6367023838418  0.5955432835886  0.2519056537817 1.0
C      1  0.7055477402637  0.7065127605834  0.4158565999692 1.0
C      1  0.2483941225347  0.4116258571120  0.4184970749649 1.0
C      1  0.6269963909528  0.3445091872637  0.7170789156271 1.0
C      1  0.7480197206460  0.3585283362147  0.5009258394216 1.0
C      1  0.6193925256710  0.2784530428050  0.4507759428321 1.0
C      1  0.1978899169308  0.4796460292421  0.5604695280945 1.0
C      1  0.7778059451363  0.4954124488111  0.5696947828815 1.0
C      1  0.5092458392348  0.3072075234529  0.3238687219128 1.0
C      1  0.5631852361438  0.5448534794529  0.5282829468705 1.0
C      1  0.3640667292988  0.2426494333577  0.3435240218817 1.0
C      1  0.5925313996675  0.4042967520272  0.7837331928261 1.0
C      1  0.4633135099021  0.3230917585406  0.7220902251351 1.0
C      1  0.3752703118591  0.4529727677899  0.5460511435565 1.0
C      1  0.6897919453151  0.5157420801980  0.7151671859658 1.0
C      1  0.1725459158407  0.7236912157409  0.6003995254573 1.0
C      1  0.3748412882031  0.3103387354720  0.6710736422033 1.0
C      1  0.3080734525682  0.3778728444165  0.4961184882865 1.0
C      1  0.6319975837092  0.2638709018800  0.5444824131478 1.0
C      1  0.5836730730466  0.7479710644414  0.5354539096058 1.0
C      1  0.5345483351456  0.5585857357615  0.6220126710337 1.0
C      1  0.4927421494412  0.4733351323363  0.6500729934936 1.0
C      1  0.6109036251983  0.4990358833656  0.7705991535627 1.0
C      1  0.4070117650425  0.4965474020484  0.7092668868044 1.0
C      1  0.5360079045125  0.4397325032832  0.4968237366692 1.0
C      1  0.2122848117547  0.5638635830764  0.5132769826539 1.0
C      1  0.6776281629230  0.6009577000176  0.6823616039043 1.0
C      1  0.5550923212695  0.2483446038536  0.6001932096317 1.0
C      1  0.5428786671702  0.5770655469984  0.7680216818569 1.0
C      1  0.3379249812468  0.4714104837168  0.6415868602794 1.0
C      1  0.3724833693839  0.6847891363383  0.3328510882043 1.0
C      1  0.3748421235534  0.2379542191803  0.4353459328406 1.0
C      1  0.3632721767192  0.6383909043459  0.4854725808131 1.0
C      1  0.5512768590995  0.2942409975209  0.6835959744409 1.0
C      1  0.4426597575502  0.5454016020758  0.3184257114467 1.0
C      1  0.3878448748834  0.6483163242192  0.7400573286609 1.0
C      1  0.2445371771598  0.5726118173499  0.4157970159068 1.0
C      1  0.4791781607500  0.5925344333742  0.5434646148150 1.0
C      1  0.4964692011465  0.4825109389239  0.2560840329522 1.0
C      1  0.4023436276151  0.5429378123755  0.4942088072815 1.0
C      1  0.5398091691477  0.7427823185585  0.3093612074395 1.0
C      1  0.7540259344034  0.6278739428118  0.4458735058138 1.0
C      1  0.3359683485671  0.2838304491684  0.5087292078402 1.0
C      1  0.2430839658637  0.4493138377752  0.6453162248657 1.0
C      1  0.7657389857689  0.5663176842492  0.3721297103500 1.0
END
