TITL C-106852-6409-7 -0.923 3375.00 -137.92628678 0 0 18 (C1) n - 1
REM
REM Run started: at 2020.12.04 17:46:02 in /rds/project/t2_vol4/rds-t2-cs072/BORA/CARBON/AIRSS/Generating-Clusters/Str-Search/Only-C1/C10-100
REM VASP from code version vasp.5.4.4.18Apr17-6-g9f103f2a35 (build Oct 11 2019 16:45:47) gamma-only
REM
REM
REM
REM
REM ./C.cell (67c5d0192afd7a3ce4a0888e5fe73b87)
REM AIRSS Version 0.9.1 bugfix July 2018 build 013d7b7c2542+ Fri, 06 Jul 2018 19:26:36 +0100
REM compiler GCC version 4.8.5 20150623 (Red Hat 4.8.5-39)
REM options -cpp -mtune=generic -march=x86-64 -g -O0
REM seed -846151345 1600519006 176645528 257544243 -270377214 -1763161000 1141412118 -1606540208 -2029899629 -1779074666 376833457 -51514713
REM
REM C.POTCAR (d86ddea03c3ceb6dc662c8ad6801f873)
REM 
CELL 1.54180   15.00000   15.00000   15.00000   90.00000   90.00000   90.00000
LATT -1
SFAC C  
C      1  0.4501465037982  0.4085405571243  0.3676989368044 1.0
C      1  0.4844850488139  0.5276477375352  0.4560548759698 1.0
C      1  0.5184988155630  0.4437346779058  0.4241304810112 1.0
C      1  0.6495764047424  0.5121105292560  0.5834203615661 1.0
C      1  0.6703603776242  0.5946856093161  0.7397739876772 1.0
C      1  0.5034287457823  0.5865093303971  0.5346955624215 1.0
C      1  0.4202938686420  0.6320321451169  0.5445062628816 1.0
C      1  0.3591216241819  0.6056777896917  0.4921393182789 1.0
C      1  0.6433937415944  0.5685635342630  0.6583983397307 1.0
C      1  0.3709739962600  0.4715439255268  0.3700804090494 1.0
C      1  0.3147781050508  0.3236780152831  0.3077496289573 1.0
C      1  0.6010505022881  0.4160435898895  0.4597885388997 1.0
C      1  0.6483247525739  0.4435491281481  0.5223607737327 1.0
C      1  0.3960351430717  0.3320150318470  0.3562050210120 1.0
C      1  0.3102846057811  0.4049810643502  0.3463905323989 1.0
C      1  0.5798188788551  0.5755389600220  0.5860356022534 1.0
C      1  0.6878454533305  0.6111052945292  0.8217950600877 1.0
C      1  0.3915835320468  0.5420430797979  0.4287761072674 1.0
END
