TITL C-109989-2056-19 -3.948 3375.00 -665.50947667 0 0 83 (C1) n - 1
REM
REM Run started: at 2020.12.24 03:06:42 in /rds/project/t2_vol4/rds-t2-cs072/BORA/CARBON/AIRSS/Generating-Clusters/Str-Search/Only-C1/C10-100
REM VASP from code version vasp.5.4.4.18Apr17-6-g9f103f2a35 (build Oct 11 2019 16:45:47) gamma-only
REM
REM
REM
REM
REM ./C.cell (67c5d0192afd7a3ce4a0888e5fe73b87)
REM AIRSS Version 0.9.1 bugfix July 2018 build 013d7b7c2542+ Fri, 06 Jul 2018 19:26:36 +0100
REM compiler GCC version 4.8.5 20150623 (Red Hat 4.8.5-39)
REM options -cpp -mtune=generic -march=x86-64 -g -O0
REM seed 1709469124 1524324025 -1483004862 1945069986 -987026736 -1341090457 -495214089 1552658298 685949162 1669455479 -1659481334 1139464986
REM
REM C.POTCAR (d86ddea03c3ceb6dc662c8ad6801f873)
REM 
CELL 1.54180   15.00000   15.00000   15.00000   90.00000   90.00000   90.00000
LATT -1
SFAC C  
C      1  0.4423570962009  0.6911919360501  0.6801189862482 1.0
C      1  0.2484801122869  0.4851670832194  0.6569371344015 1.0
C      1  0.3809961579291  0.3034832524560  0.3221139076418 1.0
C      1  0.6714232914777  0.6400223695820  0.2087937993418 1.0
C      1  0.6593602532811  0.3155094717864  0.4643934418931 1.0
C      1  0.3022970634794  0.5851856419071  0.3495706411048 1.0
C      1  0.3211475474662  0.4334513680525  0.6961233891706 1.0
C      1  0.3486673168783  0.2483685146604  0.5258355762989 1.0
C      1  0.6503540705276  0.6364262026677  0.3933480397897 1.0
C      1  0.5142793229081  0.7287983095934  0.3425157483261 1.0
C      1  0.6217667354751  0.6605277416772  0.5544657887088 1.0
C      1  0.4490546944213  0.2443953675985  0.2996256403753 1.0
C      1  0.4584019222370  0.5539744135579  0.3622015814107 1.0
C      1  0.6126878528449  0.6493427578095  0.6499477497960 1.0
C      1  0.5845801772657  0.4390808466834  0.4063522444723 1.0
C      1  0.2353326328409  0.5668784574271  0.7014432033519 1.0
C      1  0.2548293422920  0.3954127464943  0.5124422425003 1.0
C      1  0.6108995260183  0.2708640994679  0.5310858127727 1.0
C      1  0.7171031945022  0.4444540836015  0.2989983544247 1.0
C      1  0.3003004585173  0.3190600451793  0.5594349499252 1.0
C      1  0.5813840248415  0.4282107018779  0.7325500968258 1.0
C      1  0.3929106539838  0.5265540921817  0.5642846385667 1.0
C      1  0.5216826944191  0.4143327513753  0.4757614029354 1.0
C      1  0.5703195143751  0.3358945628748  0.2862541616367 1.0
C      1  0.7659189685239  0.4089653630024  0.5677564724450 1.0
C      1  0.6056584860562  0.2923732147635  0.6301408060997 1.0
C      1  0.2823065172753  0.4204852939768  0.4238290245170 1.0
C      1  0.5223337534104  0.5784153655577  0.7525842066196 1.0
C      1  0.2452529760301  0.5522774683622  0.4993126746775 1.0
C      1  0.5312422348922  0.6577630706638  0.6997969624470 1.0
C      1  0.4300463534128  0.7652125268119  0.3631364948245 1.0
C      1  0.4661931349282  0.5700767637851  0.5299614653971 1.0
C      1  0.7479956773710  0.4651702497650  0.3959250579927 1.0
C      1  0.4803738529131  0.4121804163460  0.7186814703564 1.0
C      1  0.4063297612707  0.7658540540533  0.4587230139247 1.0
C      1  0.6809766996770  0.5222483035860  0.2563898601705 1.0
C      1  0.5293512944330  0.2472831355841  0.2757093261557 1.0
C      1  0.2651640998562  0.6503045375572  0.4944978530834 1.0
C      1  0.6392158127370  0.3678286848953  0.6781499918505 1.0
C      1  0.6642231252683  0.4828918100776  0.4508798116387 1.0
C      1  0.5537196085774  0.5400808702686  0.5336725860654 1.0
C      1  0.5982990579895  0.5202527909103  0.7394090028300 1.0
C      1  0.7502222710287  0.5631965330585  0.6515621210740 1.0
C      1  0.4315961882613  0.3971246002402  0.4719193100642 1.0
C      1  0.5220383895206  0.4836511201577  0.3400834483281 1.0
C      1  0.4834967892386  0.4230102051060  0.6191074053766 1.0
C      1  0.2313368547014  0.4755850110233  0.5619448701459 1.0
C      1  0.4285760670402  0.5588412125794  0.7613423771759 1.0
C      1  0.5137600712471  0.2315141758912  0.5419839072852 1.0
C      1  0.7696729573549  0.4750626367527  0.6359436506280 1.0
C      1  0.6656710113891  0.5766984378033  0.6880745005812 1.0
C      1  0.4814464794613  0.7596187835759  0.5280609890437 1.0
C      1  0.7255304259660  0.3932935954811  0.6512062485333 1.0
C      1  0.4226025307335  0.7287457995398  0.5962599786726 1.0
C      1  0.3992210729445  0.4688432159869  0.7440750038846 1.0
C      1  0.5547148651283  0.4469435778899  0.5614985723156 1.0
C      1  0.5156112193872  0.2674537592591  0.6326094319918 1.0
C      1  0.6678031835403  0.3665521582396  0.2931000807426 1.0
C      1  0.2887604054619  0.6641726395761  0.4020610862784 1.0
C      1  0.6284200107869  0.5567354835166  0.1812799726283 1.0
C      1  0.4061938165436  0.3889960164876  0.2993065845061 1.0
C      1  0.4012218473750  0.4295002856655  0.5632810602185 1.0
C      1  0.4977496436901  0.4126619543910  0.2847097994889 1.0
C      1  0.3907010866516  0.6002628732871  0.3046178007549 1.0
C      1  0.3742731145911  0.6691815869973  0.4485815183476 1.0
C      1  0.3542607765341  0.3630604354237  0.6325302571400 1.0
C      1  0.7875028785153  0.5539054605050  0.4085249255422 1.0
C      1  0.4279648848680  0.2192619330848  0.5124824444389 1.0
C      1  0.7551204876568  0.6312168936868  0.4025227868786 1.0
C      1  0.4319158404567  0.6891485973290  0.3032526385742 1.0
C      1  0.4396058718299  0.5982073501374  0.4440183290083 1.0
C      1  0.2691180725501  0.5146831241355  0.4104489069470 1.0
C      1  0.5837330651686  0.7101545389650  0.4054256284753 1.0
C      1  0.6318805401796  0.5747771440945  0.4819929251939 1.0
C      1  0.3685728358555  0.3801999971085  0.3932204374731 1.0
C      1  0.3415838683012  0.7189974840640  0.5325052825549 1.0
C      1  0.3804300998926  0.6384474185893  0.7305869406322 1.0
C      1  0.7222508840177  0.4004595837313  0.4800306776233 1.0
C      1  0.6219567637852  0.3470705705572  0.3764158983567 1.0
C      1  0.2899648142696  0.6270466400812  0.7178103802476 1.0
C      1  0.4510923202129  0.3330642179484  0.6639147439289 1.0
C      1  0.6613914869669  0.6039697787756  0.2985642485105 1.0
C      1  0.5658171358041  0.7224319315289  0.4999882173938 1.0
END
