TITL C-109989-2056-24 -3.519 3375.00 -610.33969007 0 0 75 (C1) n - 1
REM
REM Run started: at 2020.12.24 04:50:02 in /rds/project/t2_vol4/rds-t2-cs072/BORA/CARBON/AIRSS/Generating-Clusters/Str-Search/Only-C1/C10-100
REM VASP from code version vasp.5.4.4.18Apr17-6-g9f103f2a35 (build Oct 11 2019 16:45:47) gamma-only
REM
REM
REM
REM
REM ./C.cell (67c5d0192afd7a3ce4a0888e5fe73b87)
REM AIRSS Version 0.9.1 bugfix July 2018 build 013d7b7c2542+ Fri, 06 Jul 2018 19:26:36 +0100
REM compiler GCC version 4.8.5 20150623 (Red Hat 4.8.5-39)
REM options -cpp -mtune=generic -march=x86-64 -g -O0
REM seed -1947143925 -1579716276 -949284676 311551480 -2147370987 -1713340236 1314515491 944944780 1306244007 875975192 973071109 25334946
REM
REM C.POTCAR (d86ddea03c3ceb6dc662c8ad6801f873)
REM 
CELL 1.54180   15.00000   15.00000   15.00000   90.00000   90.00000   90.00000
LATT -1
SFAC C  
C      1  0.2974439884466  0.6500420160372  0.4405588855537 1.0
C      1  0.6697143120857  0.5175782119014  0.3129477358236 1.0
C      1  0.4344739655268  0.4398028765436  0.5915770837136 1.0
C      1  0.4748501169584  0.2522263440809  0.5915817513147 1.0
C      1  0.5908937187108  0.4202093705846  0.5043430454361 1.0
C      1  0.3892651133414  0.2953107989999  0.5967814723725 1.0
C      1  0.6506514773863  0.4277162112659  0.7329662197077 1.0
C      1  0.5008671878105  0.3785401366649  0.6954793233618 1.0
C      1  0.3151131071629  0.4349040985567  0.6762829909684 1.0
C      1  0.3558848140061  0.3187034562784  0.5033852371149 1.0
C      1  0.2469022817804  0.4489519200838  0.6123555969677 1.0
C      1  0.2853730122777  0.5127585371417  0.4888336961086 1.0
C      1  0.2737872911967  0.6020372632555  0.5164459740159 1.0
C      1  0.3273708888918  0.4917763797773  0.3449316726060 1.0
C      1  0.3084243909885  0.6083202276866  0.6079223784465 1.0
C      1  0.6024922189537  0.4750944273883  0.5919451939151 1.0
C      1  0.3875607602820  0.3348921519671  0.3504132521363 1.0
C      1  0.3942653913254  0.4870571238651  0.1750758981200 1.0
C      1  0.6471598698732  0.3327427812322  0.4973158559799 1.0
C      1  0.6327876603652  0.6895998666485  0.4841324708840 1.0
C      1  0.5276039184756  0.5775082728380  0.3777105100302 1.0
C      1  0.6015055873140  0.4983749918492  0.7781230405224 1.0
C      1  0.6228271616123  0.4351038244876  0.2952492669530 1.0
C      1  0.2901562545768  0.5242682049702  0.6534863528845 1.0
C      1  0.5343767817897  0.6730904443329  0.6002716571483 1.0
C      1  0.6712302341919  0.3681094868427  0.3474680506342 1.0
C      1  0.6793013976600  0.6349202255963  0.4229698191112 1.0
C      1  0.2761154199280  0.3644014609725  0.4626088071715 1.0
C      1  0.5371399537376  0.2834697493876  0.3688376555382 1.0
C      1  0.5644023591151  0.4104670230598  0.7653120623993 1.0
C      1  0.7360744267523  0.3811334372767  0.4891323520217 1.0
C      1  0.5558955561053  0.7458024507966  0.4644814936286 1.0
C      1  0.4827838351114  0.3478744374458  0.3163039022869 1.0
C      1  0.5660605439273  0.7355072366298  0.7503163713739 1.0
C      1  0.3080124060356  0.3902773467159  0.3739856140326 1.0
C      1  0.4628016640815  0.6679231276912  0.6697675266175 1.0
C      1  0.3625604011094  0.7197954177138  0.4535716100537 1.0
C      1  0.4782050009859  0.5247917739833  0.4364440645699 1.0
C      1  0.3692707187110  0.4825267191526  0.2578390879367 1.0
C      1  0.6550805925208  0.5601032237396  0.5823058405685 1.0
C      1  0.2439172738868  0.4359442785872  0.5173065335814 1.0
C      1  0.3923014639116  0.6434739418061  0.3206089333177 1.0
C      1  0.6242042990254  0.3227065674672  0.5979454815084 1.0
C      1  0.5090297395290  0.4400682281414  0.4639496013713 1.0
C      1  0.7402480874207  0.5005113623923  0.3774918703607 1.0
C      1  0.4713085164433  0.5031518916596  0.2455560966614 1.0
C      1  0.6167306005008  0.6415049296044  0.5654131226786 1.0
C      1  0.5421943358824  0.3014676563518  0.6402886598141 1.0
C      1  0.6255679413886  0.6007031213951  0.3467305200850 1.0
C      1  0.7458042141679  0.4367717176980  0.5643868760220 1.0
C      1  0.3779507508046  0.6722718573356  0.6162673294099 1.0
C      1  0.3985134109918  0.2786585692255  0.4254433166063 1.0
C      1  0.6712711421508  0.4088355925940  0.6342299979913 1.0
C      1  0.3777167533034  0.4932943885515  0.4406489071512 1.0
C      1  0.5196223011526  0.7525014086837  0.6560324289343 1.0
C      1  0.6238808013551  0.3056459723070  0.3978818761046 1.0
C      1  0.4757027390880  0.5976873150465  0.2874023086490 1.0
C      1  0.5106186252676  0.2066303869428  0.5163311903096 1.0
C      1  0.4834891899363  0.2391702618412  0.4343894398274 1.0
C      1  0.5832170152181  0.5883506809104  0.7833218226493 1.0
C      1  0.4175661799497  0.7209786444785  0.3748410673906 1.0
C      1  0.5086836965963  0.6528900587040  0.7631052570687 1.0
C      1  0.3997940551450  0.7278208716900  0.5401381098746 1.0
C      1  0.6285759028351  0.6650891704054  0.7491929845462 1.0
C      1  0.5125177304234  0.7297066829466  0.3817097887809 1.0
C      1  0.7362210301082  0.5308640301335  0.5405146895929 1.0
C      1  0.5126945206321  0.4600652324018  0.6313668894836 1.0
C      1  0.4970164988966  0.7495610574571  0.5472569037250 1.0
C      1  0.3161584337795  0.5992833642553  0.3561978014094 1.0
C      1  0.5488122524931  0.6586391517563  0.3202747615577 1.0
C      1  0.3966095804789  0.3757501934428  0.6598289160307 1.0
C      1  0.7382710262780  0.5644575729714  0.4496487490832 1.0
C      1  0.5271653323375  0.4266337320737  0.2773878813984 1.0
C      1  0.4171304640332  0.4167372846614  0.4971483979217 1.0
C      1  0.7428079134770  0.4084596686394  0.3983008690732 1.0
END
