TITL C-109989-2056-17 -1.497 3375.00 -241.69410822 0 0 30 (C1) n - 1
REM
REM Run started: at 2020.12.24 02:30:15 in /rds/project/t2_vol4/rds-t2-cs072/BORA/CARBON/AIRSS/Generating-Clusters/Str-Search/Only-C1/C10-100
REM VASP from code version vasp.5.4.4.18Apr17-6-g9f103f2a35 (build Oct 11 2019 16:45:47) gamma-only
REM
REM
REM
REM
REM ./C.cell (67c5d0192afd7a3ce4a0888e5fe73b87)
REM AIRSS Version 0.9.1 bugfix July 2018 build 013d7b7c2542+ Fri, 06 Jul 2018 19:26:36 +0100
REM compiler GCC version 4.8.5 20150623 (Red Hat 4.8.5-39)
REM options -cpp -mtune=generic -march=x86-64 -g -O0
REM seed 910987282 839465758 829384715 1118313587 -887089152 1250496645 -1087733221 -1230544351 1046511898 1356690626 -1528477687 -1072609304
REM
REM C.POTCAR (d86ddea03c3ceb6dc662c8ad6801f873)
REM 
CELL 1.54180   15.00000   15.00000   15.00000   90.00000   90.00000   90.00000
LATT -1
SFAC C  
C      1  0.3571848807466  0.5741070597641  0.5094309992621 1.0
C      1  0.5604359020766  0.6733317239251  0.4104993012470 1.0
C      1  0.4249296553453  0.6451427894374  0.5082241465228 1.0
C      1  0.5688658383332  0.4912912175567  0.3055380366820 1.0
C      1  0.5790955406629  0.4558099450077  0.5914965975573 1.0
C      1  0.6502046697850  0.4748818449589  0.3548370343901 1.0
C      1  0.4852958797244  0.3302779774304  0.4466695056255 1.0
C      1  0.6363444604667  0.6249284350875  0.3905518640162 1.0
C      1  0.3645436087049  0.4964408937874  0.6562253269120 1.0
C      1  0.4583032627249  0.4985352151107  0.6804903132302 1.0
C      1  0.3510618607203  0.5762349003157  0.6061481091439 1.0
C      1  0.3515894553769  0.4085460670951  0.5178631837808 1.0
C      1  0.4367904442665  0.3616826928833  0.6096421491952 1.0
C      1  0.6320608718307  0.5608487296021  0.3196464305119 1.0
C      1  0.5677162604767  0.3458486700537  0.4817164783186 1.0
C      1  0.6174251315319  0.4183886386794  0.5110654728634 1.0
C      1  0.6632043764760  0.4783030744409  0.4497165630770 1.0
C      1  0.5043122386232  0.4211342088481  0.6434307747791 1.0
C      1  0.5840932586547  0.5528574597429  0.6042963084150 1.0
C      1  0.5006310168592  0.5799921447957  0.6503297838131 1.0
C      1  0.4333744517879  0.6307582742742  0.6065626486201 1.0
C      1  0.6417476788231  0.6049893251145  0.5556427183079 1.0
C      1  0.4861083938690  0.6750820825316  0.4487769592552 1.0
C      1  0.4085987963808  0.4646477362422  0.3840542360641 1.0
C      1  0.3524499531581  0.4137154867163  0.6130662777093 1.0
C      1  0.6656593684825  0.5731507965024  0.4702110197623 1.0
C      1  0.4207554307842  0.3366606907924  0.5163412776183 1.0
C      1  0.4547876184447  0.3826187232007  0.3704055519752 1.0
C      1  0.4835552018923  0.4613743036473  0.3255801723938 1.0
C      1  0.3588746929904  0.4884188924556  0.4615406589506 1.0
END
