TITL C-109989-2056-32 -1.906 3375.00 -309.44171520 0 0 39 (C1) n - 1
REM
REM Run started: at 2020.12.24 07:45:22 in /rds/project/t2_vol4/rds-t2-cs072/BORA/CARBON/AIRSS/Generating-Clusters/Str-Search/Only-C1/C10-100
REM VASP from code version vasp.5.4.4.18Apr17-6-g9f103f2a35 (build Oct 11 2019 16:45:47) gamma-only
REM
REM
REM
REM
REM ./C.cell (67c5d0192afd7a3ce4a0888e5fe73b87)
REM AIRSS Version 0.9.1 bugfix July 2018 build 013d7b7c2542+ Fri, 06 Jul 2018 19:26:36 +0100
REM compiler GCC version 4.8.5 20150623 (Red Hat 4.8.5-39)
REM options -cpp -mtune=generic -march=x86-64 -g -O0
REM seed -1509126514 -1204507794 1064848484 857179065 1617762731 1093424646 1931437995 -81205721 -1274163293 -1015773097 1566418373 -1099605560
REM
REM C.POTCAR (d86ddea03c3ceb6dc662c8ad6801f873)
REM 
CELL 1.54180   15.00000   15.00000   15.00000   90.00000   90.00000   90.00000
LATT -1
SFAC C  
C      1  0.4886752487310  0.3490230760851  0.6280028083214 1.0
C      1  0.5615607097851  0.6231841393303  0.3772814112174 1.0
C      1  0.4698371822835  0.3328862378642  0.3914430457304 1.0
C      1  0.3410832492628  0.3771710785060  0.5720267875095 1.0
C      1  0.4121417574207  0.4861488974522  0.3901011536654 1.0
C      1  0.6078936663078  0.6225256160990  0.5863967965102 1.0
C      1  0.5633233908649  0.4420319604378  0.2626850332287 1.0
C      1  0.6264476876441  0.5569002284306  0.3556917063803 1.0
C      1  0.5696546490701  0.3056692773685  0.4850293259355 1.0
C      1  0.6677537055226  0.5977477048724  0.5182131276437 1.0
C      1  0.4487283070670  0.4926971470295  0.4778041821896 1.0
C      1  0.6268643246836  0.4642118910756  0.3304634949787 1.0
C      1  0.3079314014944  0.6074247023398  0.5300326202929 1.0
C      1  0.5185602318413  0.5782287530622  0.7065804840197 1.0
C      1  0.4716470694874  0.6443181636675  0.3970200273204 1.0
C      1  0.4572340639407  0.6861762773956  0.4861441232795 1.0
C      1  0.4573421063734  0.6270647291913  0.6524279304563 1.0
C      1  0.3170983803987  0.5420094259742  0.5993577755068 1.0
C      1  0.4332080082817  0.4098945371802  0.3414209917419 1.0
C      1  0.6352788929612  0.3923012077311  0.3928481436688 1.0
C      1  0.4586092064282  0.5019769225255  0.7035757554137 1.0
C      1  0.4226203136960  0.3302051786297  0.5642283316765 1.0
C      1  0.5066246889954  0.6388374425258  0.5628498944157 1.0
C      1  0.3863117697839  0.5579123629860  0.6615262369601 1.0
C      1  0.3027842948438  0.4496563397042  0.5827699982036 1.0
C      1  0.4873193884138  0.5463878254558  0.5278358646919 1.0
C      1  0.3936014122807  0.5843799575430  0.3767788083176 1.0
C      1  0.6545817660627  0.4434967788888  0.5606125281257 1.0
C      1  0.6424606055968  0.6135284520351  0.4274003342949 1.0
C      1  0.5125100875149  0.4300109541200  0.6660516265001 1.0
C      1  0.3639745089425  0.6770375228737  0.4988984254442 1.0
C      1  0.4815331157272  0.4273047673657  0.2599046195782 1.0
C      1  0.6012568220652  0.4681592037198  0.6386314583607 1.0
C      1  0.3259954258934  0.6166462608708  0.4358874724556 1.0
C      1  0.6007413046695  0.5624858172843  0.6616187184020 1.0
C      1  0.4686561811245  0.3038680353422  0.4858821832580 1.0
C      1  0.7067949057529  0.5109833423203  0.5205687797109 1.0
C      1  0.6363115440247  0.3748136863536  0.4940476363104 1.0
C      1  0.5650488247620  0.3246942983625  0.3899603582831 1.0
END
