TITL C-109989-2056-26 -2.621 3375.00 -456.49133510 0 0 55 (C1) n - 1
REM
REM Run started: at 2020.12.24 05:31:01 in /rds/project/t2_vol4/rds-t2-cs072/BORA/CARBON/AIRSS/Generating-Clusters/Str-Search/Only-C1/C10-100
REM VASP from code version vasp.5.4.4.18Apr17-6-g9f103f2a35 (build Oct 11 2019 16:45:47) gamma-only
REM
REM
REM
REM
REM ./C.cell (67c5d0192afd7a3ce4a0888e5fe73b87)
REM AIRSS Version 0.9.1 bugfix July 2018 build 013d7b7c2542+ Fri, 06 Jul 2018 19:26:36 +0100
REM compiler GCC version 4.8.5 20150623 (Red Hat 4.8.5-39)
REM options -cpp -mtune=generic -march=x86-64 -g -O0
REM seed 1626938412 587990171 -806466533 768861963 1946886667 -156107292 -1915729315 2098451630 1469823191 -473460259 -794950668 446046290
REM
REM C.POTCAR (d86ddea03c3ceb6dc662c8ad6801f873)
REM 
CELL 1.54180   15.00000   15.00000   15.00000   90.00000   90.00000   90.00000
LATT -1
SFAC C  
C      1  0.7099403201406  0.6664498514771  0.4894148371740 1.0
C      1  0.4834718546926  0.6755574578973  0.4576455679281 1.0
C      1  0.4349998304442  0.5132765127044  0.3400166485996 1.0
C      1  0.6962861009882  0.3742938934481  0.5270319666808 1.0
C      1  0.7331987673605  0.4469625582830  0.5782940200799 1.0
C      1  0.3067570794774  0.3449685545835  0.5444430400311 1.0
C      1  0.4783314266527  0.5983059234167  0.3142884920058 1.0
C      1  0.4352910113771  0.3191011494709  0.4536650343463 1.0
C      1  0.4290703448053  0.6088723915398  0.5066166717124 1.0
C      1  0.5546065103628  0.7032448717920  0.5146851331878 1.0
C      1  0.3228382200965  0.4226946185689  0.6828858798818 1.0
C      1  0.3424272694230  0.4824394822354  0.3533331290496 1.0
C      1  0.7659702355871  0.5299130055124  0.4443927651333 1.0
C      1  0.7060786975566  0.6100347381147  0.5666593992524 1.0
C      1  0.6111732765254  0.5146765112408  0.6640043623720 1.0
C      1  0.7449480561932  0.6170643560120  0.4136026126034 1.0
C      1  0.3933378796634  0.3621927572230  0.6720153404620 1.0
C      1  0.5022640210814  0.3755486303440  0.4029657377781 1.0
C      1  0.4661498142241  0.4771883356364  0.5922351337697 1.0
C      1  0.2681960176516  0.4184877262966  0.5976203956424 1.0
C      1  0.6255061013029  0.6035095668891  0.6224160014049 1.0
C      1  0.5201144204233  0.4878408869610  0.6808884474271 1.0
C      1  0.2112943866104  0.4333663395352  0.3763249505741 1.0
C      1  0.7180700841925  0.4655308437715  0.3916082878906 1.0
C      1  0.4401694749602  0.5428067546594  0.6663488669057 1.0
C      1  0.2653129270258  0.5546656109587  0.4913734230513 1.0
C      1  0.5151138994315  0.6644953325366  0.3686272690195 1.0
C      1  0.3405676317477  0.3418370650366  0.4530392232658 1.0
C      1  0.7551230610380  0.5283585145905  0.5401909794549 1.0
C      1  0.6251181485762  0.3579768650552  0.5939390522566 1.0
C      1  0.4600310265339  0.2970326854368  0.5436376736555 1.0
C      1  0.5871217613272  0.4732573903231  0.2856490467054 1.0
C      1  0.3385135041403  0.6427781151424  0.6036971692284 1.0
C      1  0.3473843212634  0.5145276202958  0.6916066415441 1.0
C      1  0.3793307064934  0.3065773765900  0.5965079459611 1.0
C      1  0.6823162397642  0.3870496439693  0.4343690490554 1.0
C      1  0.5072330118214  0.5245761916491  0.2700044428704 1.0
C      1  0.5639293199135  0.3845906034454  0.3198860631770 1.0
C      1  0.4607981654062  0.5117651038336  0.5032459673854 1.0
C      1  0.2475409159546  0.5110630527580  0.5754210779638 1.0
C      1  0.5365179961774  0.3344232606201  0.5963555363885 1.0
C      1  0.6620693097265  0.4402340977619  0.6418517619358 1.0
C      1  0.6635878533834  0.5150950942005  0.3246911151396 1.0
C      1  0.6022098058251  0.3546155642217  0.3951515858313 1.0
C      1  0.4474275035073  0.6282924880424  0.6115203991438 1.0
C      1  0.5475837850255  0.6596711775347  0.6003535636229 1.0
C      1  0.4849153986071  0.3974986844798  0.6545686767603 1.0
C      1  0.2889108873480  0.5717060334450  0.6448566598346 1.0
C      1  0.6768492730386  0.6123883880557  0.3458277747779 1.0
C      1  0.4718053009005  0.4693215631343  0.4231055567978 1.0
C      1  0.3032933159005  0.4007078684520  0.3872608834525 1.0
C      1  0.6106646224941  0.6789097532977  0.3703018122167 1.0
C      1  0.6319316648428  0.7112605307897  0.4602739157187 1.0
C      1  0.3290634667442  0.6234647632315  0.5114539633298 1.0
C      1  0.2672437742488  0.5075321434987  0.4078292485623 1.0
END
