TITL C-103417-1724-5 -5.767 3375.00 -996.04244705 0 0 122 (C1) n - 1
REM
REM Run started: at 2021.01.20 19:00:23 in /rds/project/t2_vol4/rds-t2-cs072/BORA/CARBON/AIRSS/Generating-Clusters/Str-Search/Only-C1/C100-200
REM VASP from code version vasp.5.4.4.18Apr17-6-g9f103f2a35 (build Oct 11 2019 16:45:47) gamma-only
REM
REM
REM
REM
REM ./C.cell (efaf0b2bf1589a83377268d7ebe2c73f)
REM AIRSS Version 0.9.1 bugfix July 2018 build 013d7b7c2542+ Fri, 06 Jul 2018 19:26:36 +0100
REM compiler GCC version 4.8.5 20150623 (Red Hat 4.8.5-39)
REM options -cpp -mtune=generic -march=x86-64 -g -O0
REM seed 38886215 -1609841550 -1769636027 -1955752469 576795997 -1836884102 939796374 -522524061 1102678081 1163631386 -2028282031 -917839646
REM
REM C.POTCAR (d86ddea03c3ceb6dc662c8ad6801f873)
REM 
CELL 1.54180   15.00000   15.00000   15.00000   90.00000   90.00000   90.00000
LATT -1
SFAC C  
C      1  0.2469857424619  0.6767848736532  0.5601562904766 1.0
C      1  0.5022607076976  0.5575613156775  0.1839286877928 1.0
C      1  0.3172907303587  0.4157183481613  0.7396162469642 1.0
C      1  0.4295070895299  0.7798701134636  0.3426396128547 1.0
C      1  0.7045570502659  0.6758609001318  0.2808787739853 1.0
C      1  0.4108491496524  0.8086672409687  0.4377426657415 1.0
C      1  0.6698135747525  0.2988194012324  0.5430515010090 1.0
C      1  0.6721098727497  0.4384078534325  0.4466271922445 1.0
C      1  0.4751300654107  0.3744272094643  0.8139984893255 1.0
C      1  0.7065484157584  0.4458409556522  0.2909392181277 1.0
C      1  0.3274164152490  0.8110493172194  0.4858255125910 1.0
C      1  0.6167441239892  0.5281759606775  0.4459060219797 1.0
C      1  0.3188536407940  0.6111196999758  0.5311119461724 1.0
C      1  0.3472979562550  0.6867540545202  0.2339090958415 1.0
C      1  0.1389836666443  0.6131569231317  0.6486804040098 1.0
C      1  0.7574468576897  0.6349199498268  0.6156250343884 1.0
C      1  0.5675585239737  0.2456079090111  0.7169338715748 1.0
C      1  0.4531238621834  0.7175923518584  0.4595844242915 1.0
C      1  0.6578608800935  0.7701792125530  0.4581847453905 1.0
C      1  0.4880528780739  0.4962537611380  0.6843927946881 1.0
C      1  0.5851721439031  0.5630042631514  0.3586122559072 1.0
C      1  0.4729018718769  0.4911328111539  0.5254660710006 1.0
C      1  0.6368148974303  0.5143778866221  0.2959904398889 1.0
C      1  0.2873596329406  0.5530084179643  0.4511175119854 1.0
C      1  0.3906736982307  0.1559850012774  0.6464319746521 1.0
C      1  0.7987296252918  0.5505737217586  0.6360838246261 1.0
C      1  0.7115941389826  0.3761248962946  0.3655465470739 1.0
C      1  0.1655465342044  0.6395254289619  0.4998995196858 1.0
C      1  0.5500985570061  0.6350906009085  0.2242007589793 1.0
C      1  0.5044471967679  0.6789752830070  0.6794588004044 1.0
C      1  0.4087722080489  0.2596345821186  0.2532075317221 1.0
C      1  0.7998671072195  0.5643603614636  0.4846592545164 1.0
C      1  0.4948287036464  0.2818693512805  0.7674811898385 1.0
C      1  0.3499045720018  0.2269562262042  0.3039137214308 1.0
C      1  0.3333679220732  0.5446464096215  0.6094486124751 1.0
C      1  0.2123051964789  0.3873992931143  0.3042565822981 1.0
C      1  0.2972095868397  0.2922945481848  0.6275910994737 1.0
C      1  0.3728638607090  0.3412602057039  0.4945344395382 1.0
C      1  0.7386294386529  0.2854404166608  0.4770743789535 1.0
C      1  0.3089116906328  0.2700861530196  0.5318299815227 1.0
C      1  0.1094276038382  0.6118365323694  0.5657644320199 1.0
C      1  0.5890024494302  0.2729460714466  0.3865674658229 1.0
C      1  0.8076198007029  0.3581938574227  0.4823354069499 1.0
C      1  0.3102802746833  0.3889687650295  0.4302571267716 1.0
C      1  0.4144275979623  0.6419823572836  0.5101352268158 1.0
C      1  0.6481199275945  0.8259099359724  0.5407136127900 1.0
C      1  0.7596163637694  0.4898581473955  0.6979235020772 1.0
C      1  0.3474957201716  0.2341180898131  0.6822565842709 1.0
C      1  0.5298528640415  0.3274090334841  0.3250319236638 1.0
C      1  0.6128812474079  0.4436093625552  0.7674686574774 1.0
C      1  0.6072136536835  0.6838462390531  0.6193843293801 1.0
C      1  0.5896603760086  0.2417435417651  0.5496716368839 1.0
C      1  0.6886737586953  0.8835703937949  0.5938420486772 1.0
C      1  0.7138055700987  0.5250270669018  0.4493472112339 1.0
C      1  0.4364289045881  0.5329417278528  0.6111127820168 1.0
C      1  0.3430022020154  0.4342541112772  0.2686837313743 1.0
C      1  0.5023006733064  0.8055683749142  0.4859693802818 1.0
C      1  0.5382344797500  0.6366230948924  0.3238150610807 1.0
C      1  0.5410811392630  0.2585072108688  0.4656777543962 1.0
C      1  0.4669809884466  0.3248037577142  0.4622773701760 1.0
C      1  0.6071596039313  0.4517800704541  0.5881875600931 1.0
C      1  0.3027442190679  0.5840173373215  0.6978649869834 1.0
C      1  0.8010446491476  0.4766672945610  0.3339442246870 1.0
C      1  0.4667571042080  0.3732185309379  0.3769990058593 1.0
C      1  0.2030033357620  0.6021796973040  0.4151771289064 1.0
C      1  0.3798703298047  0.4301053232010  0.3633375057847 1.0
C      1  0.2796047906990  0.7646214452341  0.5338912359892 1.0
C      1  0.2852402310008  0.2171528756494  0.4639255074481 1.0
C      1  0.8179365033910  0.4091304125286  0.5665942433307 1.0
C      1  0.5743622295088  0.7756627175223  0.4208073450082 1.0
C      1  0.6820594109559  0.5171665369580  0.7502784868605 1.0
C      1  0.6834377382060  0.6549514266574  0.6680784316676 1.0
C      1  0.2251238378651  0.6411103575896  0.6611036214458 1.0
C      1  0.7465243500102  0.6552021329499  0.3605930630472 1.0
C      1  0.5444249217620  0.6188445702705  0.7515919996886 1.0
C      1  0.4480453525367  0.3936749105503  0.5294819684785 1.0
C      1  0.6348571607098  0.4685353862699  0.2198629357407 1.0
C      1  0.5612089417206  0.6188869828150  0.5684351706438 1.0
C      1  0.8044892388659  0.3991160963515  0.3916151059354 1.0
C      1  0.4831471157145  0.3173664561753  0.2378507061744 1.0
C      1  0.3985905599431  0.2747321123464  0.7512222980401 1.0
C      1  0.6525331892830  0.3942473905397  0.5350185780782 1.0
C      1  0.5231826343959  0.4532078477826  0.8186450669572 1.0
C      1  0.5655946747115  0.4480208725310  0.6745407424522 1.0
C      1  0.2494357376218  0.4622586925731  0.2695790080169 1.0
C      1  0.5086501026922  0.7178494505124  0.3715970140291 1.0
C      1  0.7310869030264  0.3361414966760  0.7114253527037 1.0
C      1  0.2874055252860  0.2412493632219  0.3745726106151 1.0
C      1  0.2895113814365  0.3859605020153  0.6510768744805 1.0
C      1  0.3960935033018  0.4463217003481  0.1927282836373 1.0
C      1  0.4672855187838  0.6280108588955  0.5965724690150 1.0
C      1  0.2845392740644  0.4585854757767  0.5841726368469 1.0
C      1  0.8302356457918  0.5046519748782  0.5589928259151 1.0
C      1  0.6535855687690  0.2798383351943  0.7381380838615 1.0
C      1  0.6857933048527  0.2852921358051  0.3932970012459 1.0
C      1  0.4051122636661  0.5429313190899  0.1873196045417 1.0
C      1  0.5498525128136  0.8149303231899  0.5726558842028 1.0
C      1  0.5482057231609  0.7600226953004  0.6468741718027 1.0
C      1  0.5508421348135  0.2062882542282  0.6261859792794 1.0
C      1  0.3782270258162  0.5669234742079  0.7778216990958 1.0
C      1  0.3753107060200  0.7537879118640  0.2764275593592 1.0
C      1  0.3802969211072  0.3608044695291  0.7842846754612 1.0
C      1  0.3113873406002  0.5091726246671  0.7619230416743 1.0
C      1  0.4344482112754  0.5541231763496  0.4598854938059 1.0
C      1  0.5461300430117  0.4693799596035  0.1806782814839 1.0
C      1  0.2731929865376  0.4607720320886  0.4916665467044 1.0
C      1  0.6423615490941  0.6039413286104  0.7404613757657 1.0
C      1  0.6376423079218  0.6670538412431  0.2276412945685 1.0
C      1  0.5719591456313  0.5259152732131  0.5335244541087 1.0
C      1  0.7288141035473  0.7018888904930  0.4465466758857 1.0
C      1  0.4693452150048  0.1606171954977  0.6218640841004 1.0
C      1  0.2009418046717  0.6007578141069  0.3264869289404 1.0
C      1  0.4796155593601  0.3998725873812  0.1874228238105 1.0
C      1  0.2460422383693  0.5593556434522  0.2586682012270 1.0
C      1  0.7797649739166  0.3982420831781  0.6608792111878 1.0
C      1  0.2515615047915  0.3343900565323  0.3666528364809 1.0
C      1  0.3293053788880  0.5998481738328  0.2167192160076 1.0
C      1  0.7660680281265  0.6517648494100  0.5187663589469 1.0
C      1  0.4791728377787  0.5404878645540  0.7746416271364 1.0
C      1  0.6661333807903  0.3616316842559  0.7744233782382 1.0
C      1  0.7861359586056  0.5622908415002  0.3843649205893 1.0
C      1  0.3730703738741  0.5268161801961  0.3992425263450 1.0
END
