TITL C-106852-6409-6 -2.211 3375.00 -364.95669684 0 0 46 (C1) n - 1
REM
REM Run started: at 2020.12.04 17:31:13 in /rds/project/t2_vol4/rds-t2-cs072/BORA/CARBON/AIRSS/Generating-Clusters/Str-Search/Only-C1/C10-100
REM VASP from code version vasp.5.4.4.18Apr17-6-g9f103f2a35 (build Oct 11 2019 16:45:47) gamma-only
REM
REM
REM
REM
REM ./C.cell (67c5d0192afd7a3ce4a0888e5fe73b87)
REM AIRSS Version 0.9.1 bugfix July 2018 build 013d7b7c2542+ Fri, 06 Jul 2018 19:26:36 +0100
REM compiler GCC version 4.8.5 20150623 (Red Hat 4.8.5-39)
REM options -cpp -mtune=generic -march=x86-64 -g -O0
REM seed 1198451071 2133673498 277761023 26013827 -742830788 -1202184126 -2013814340 -139115185 -987751855 -1932166747 2008291609 -135965140
REM
REM C.POTCAR (d86ddea03c3ceb6dc662c8ad6801f873)
REM 
CELL 1.54180   15.00000   15.00000   15.00000   90.00000   90.00000   90.00000
LATT -1
SFAC C  
C      1  0.5143434041346  0.3474121633370  0.4749057120286 1.0
C      1  0.6369730327573  0.4095802315162  0.5095541013272 1.0
C      1  0.5152272336220  0.3658604792066  0.6466503433256 1.0
C      1  0.5015555591228  0.5687970506918  0.2969244492634 1.0
C      1  0.4100785003259  0.3492863097023  0.3561563506774 1.0
C      1  0.5751704103234  0.2823870612443  0.4312458723827 1.0
C      1  0.4254974843994  0.3376321685420  0.5147930401730 1.0
C      1  0.6016769394983  0.6633524581601  0.6406341766528 1.0
C      1  0.6748605353617  0.5046050483953  0.6253151886957 1.0
C      1  0.4250945131733  0.3568609875847  0.6064874099094 1.0
C      1  0.6710206476446  0.5390390033548  0.3715746942327 1.0
C      1  0.3131231729298  0.4893967778382  0.6092212226902 1.0
C      1  0.3328602473379  0.6124626957887  0.5139321434386 1.0
C      1  0.3699025569797  0.4202829922326  0.6481071902289 1.0
C      1  0.6054245783777  0.3125593032300  0.5205198171892 1.0
C      1  0.5033181097106  0.6515596490501  0.3368275681535 1.0
C      1  0.4882929360104  0.7306263166248  0.6242762585421 1.0
C      1  0.5594734972443  0.4390797989712  0.4687522766245 1.0
C      1  0.3373553760983  0.4611268201540  0.4473930348297 1.0
C      1  0.3493870079283  0.6863628542817  0.4349724168195 1.0
C      1  0.3580490801382  0.5579126770899  0.6580582062583 1.0
C      1  0.5716252925344  0.7466031379377  0.6756349029336 1.0
C      1  0.5313569271850  0.6536129199357  0.5739455352452 1.0
C      1  0.5042578703956  0.5957696461315  0.5096581254465 1.0
C      1  0.5839648820672  0.3196801208616  0.3390095173061 1.0
C      1  0.4022552273277  0.7163037905715  0.6223846773087 1.0
C      1  0.4363049594752  0.4106515187181  0.2913348227118 1.0
C      1  0.4241167716193  0.4854173744339  0.6932164408155 1.0
C      1  0.3024429129664  0.5139786881455  0.5189673869306 1.0
C      1  0.5173097839672  0.4529006315943  0.6920248677601 1.0
C      1  0.6418590237209  0.5813713845337  0.6700299780807 1.0
C      1  0.5668854276690  0.5405169967556  0.4576705178593 1.0
C      1  0.4181918859356  0.5966986727907  0.4552782588399 1.0
C      1  0.6968997396940  0.4788959619400  0.5383636576179 1.0
C      1  0.3906893752341  0.5196707647070  0.3948333427175 1.0
C      1  0.3705203515277  0.3679603453947  0.4410922710122 1.0
C      1  0.4333139849661  0.5034331740619  0.3123023993246 1.0
C      1  0.4268060412051  0.6783277092047  0.3922067283046 1.0
C      1  0.3548430777881  0.6400089252517  0.6073011861020 1.0
C      1  0.6873352348206  0.4586016496046  0.3245324563891 1.0
C      1  0.5750663595052  0.5781581975917  0.3609735597961 1.0
C      1  0.4945367069453  0.3371932316929  0.3100971649772 1.0
C      1  0.6704292897469  0.5446429858336  0.4660451205439 1.0
C      1  0.6017571465269  0.4988348588023  0.6878802601267 1.0
C      1  0.5808781506131  0.3094549246631  0.6125340745516 1.0
C      1  0.6476687534444  0.3851295418459  0.3163813738558 1.0
END
