TITL C-106852-6409-4 -4.392 3375.00 -750.50862180 0 0 92 (C1) n - 1
REM
REM Run started: at 2020.12.04 17:02:54 in /rds/project/t2_vol4/rds-t2-cs072/BORA/CARBON/AIRSS/Generating-Clusters/Str-Search/Only-C1/C10-100
REM VASP from code version vasp.5.4.4.18Apr17-6-g9f103f2a35 (build Oct 11 2019 16:45:47) gamma-only
REM
REM
REM
REM
REM ./C.cell (67c5d0192afd7a3ce4a0888e5fe73b87)
REM AIRSS Version 0.9.1 bugfix July 2018 build 013d7b7c2542+ Fri, 06 Jul 2018 19:26:36 +0100
REM compiler GCC version 4.8.5 20150623 (Red Hat 4.8.5-39)
REM options -cpp -mtune=generic -march=x86-64 -g -O0
REM seed 203698476 572897588 -1414667056 -383299752 1014607564 -417890162 -1177275970 547769643 1311362962 795374060 -303090319 -1399744732
REM
REM C.POTCAR (d86ddea03c3ceb6dc662c8ad6801f873)
REM 
CELL 1.54180   15.00000   15.00000   15.00000   90.00000   90.00000   90.00000
LATT -1
SFAC C  
C      1  0.4824780851726  0.7578171277863  0.3529595852061 1.0
C      1  0.6776715339485  0.5209297880392  0.7488619809605 1.0
C      1  0.2181206982098  0.4351834252382  0.5088317179050 1.0
C      1  0.2956592302738  0.3234014661641  0.5807252377204 1.0
C      1  0.5896021629712  0.6876618659625  0.2451607592349 1.0
C      1  0.6906535131713  0.5773687847393  0.2994779485128 1.0
C      1  0.3754845858433  0.4934949134111  0.4158167424054 1.0
C      1  0.3279624463367  0.6551223909784  0.5672413301111 1.0
C      1  0.3612331274569  0.3911451553322  0.7062570039281 1.0
C      1  0.5229317527739  0.7386173297862  0.6446146152172 1.0
C      1  0.5604097316656  0.4086131718288  0.6457605595149 1.0
C      1  0.4131487336439  0.7789229263265  0.5069134712795 1.0
C      1  0.4277776466023  0.4142170705702  0.3871467796179 1.0
C      1  0.3803881612473  0.5812685543576  0.5606556478172 1.0
C      1  0.6726541801412  0.6992766631682  0.4478879006994 1.0
C      1  0.5498610345388  0.7969500354754  0.5042249629807 1.0
C      1  0.7501524982808  0.5744072831027  0.5430791381795 1.0
C      1  0.4322705257882  0.6093461635471  0.7818136165753 1.0
C      1  0.4860826527820  0.4704331343394  0.5155206961030 1.0
C      1  0.6543381790667  0.7296640445874  0.3598157489725 1.0
C      1  0.1832652586741  0.6237421463977  0.5943497572857 1.0
C      1  0.8091677605679  0.3358744145598  0.5338305573403 1.0
C      1  0.6055826562557  0.5522981803768  0.3542573611838 1.0
C      1  0.2151421874517  0.5237887107335  0.4709199159330 1.0
C      1  0.7090763808575  0.6007094246977  0.4579491615686 1.0
C      1  0.2759567292401  0.5154947480457  0.3889974652057 1.0
C      1  0.3432375709821  0.7168105595967  0.4903079450762 1.0
C      1  0.3607675717172  0.2459485970291  0.4534940723336 1.0
C      1  0.7436538374643  0.4403375955198  0.3865589696283 1.0
C      1  0.7481320635856  0.5146928808935  0.6893692784583 1.0
C      1  0.6471227455704  0.3250418178749  0.4220188369875 1.0
C      1  0.3521746975960  0.3561074910154  0.2505409380901 1.0
C      1  0.4285499880861  0.4413338978601  0.7490727295552 1.0
C      1  0.7334616663762  0.5975661256701  0.6330693010003 1.0
C      1  0.1744772495284  0.5908272722897  0.5156155562418 1.0
C      1  0.6103222762569  0.5357249469518  0.2556114651258 1.0
C      1  0.2929428518374  0.5530274226676  0.6976121775899 1.0
C      1  0.3908387136334  0.6159500079863  0.2871195492094 1.0
C      1  0.2801849969714  0.3798703718835  0.2836157416674 1.0
C      1  0.2979230309355  0.4569460695013  0.6615355280583 1.0
C      1  0.6181600118805  0.5457558584624  0.4425454289276 1.0
C      1  0.5710232689834  0.4506693215573  0.2391504937619 1.0
C      1  0.5264986508781  0.4329535866691  0.7395240613100 1.0
C      1  0.5960796278427  0.4730759467473  0.5041306559929 1.0
C      1  0.6012451346908  0.3720765522411  0.2837993260036 1.0
C      1  0.6668991575548  0.6560345454188  0.6696927048954 1.0
C      1  0.3395453162182  0.6830049537749  0.3993219987606 1.0
C      1  0.5450167620802  0.6068770775233  0.2307798626381 1.0
C      1  0.5513238085904  0.4837579735671  0.5895230529768 1.0
C      1  0.5677488596653  0.7511300148413  0.3151889500887 1.0
C      1  0.4920764060074  0.6290069837141  0.8364240433051 1.0
C      1  0.7887227328410  0.4485709323274  0.6338976609723 1.0
C      1  0.3579008593805  0.3097086598102  0.6556066681689 1.0
C      1  0.2617011467206  0.6334957911797  0.6410025533961 1.0
C      1  0.4831325839941  0.7853890418015  0.5773332461269 1.0
C      1  0.3702658057983  0.5297233839259  0.6403574913807 1.0
C      1  0.5902898761921  0.3321251618475  0.5811662665268 1.0
C      1  0.5721162052503  0.5897573980413  0.8070310565735 1.0
C      1  0.2455933280198  0.4169672245987  0.3593315789455 1.0
C      1  0.5198989838962  0.3194580249152  0.2945354741346 1.0
C      1  0.4464154852690  0.2261222570449  0.5015356832810 1.0
C      1  0.6542822139318  0.3821088012740  0.5040766411643 1.0
C      1  0.6243308487344  0.7383766849089  0.5215433577836 1.0
C      1  0.3140880244241  0.5999543889630  0.3478756535981 1.0
C      1  0.4578704420277  0.5640465529220  0.2428641555011 1.0
C      1  0.6441416606194  0.6138612649707  0.7531521294311 1.0
C      1  0.4327679456106  0.2146901380876  0.4046305583106 1.0
C      1  0.7549904492653  0.4122462132278  0.4850764506701 1.0
C      1  0.5126920955799  0.2202721461134  0.6547390987443 1.0
C      1  0.4181954657692  0.2365879678192  0.6593271668731 1.0
C      1  0.5115009506896  0.2500737898431  0.3570250334294 1.0
C      1  0.8077971755804  0.3567324298560  0.6165837831191 1.0
C      1  0.6110974113806  0.7131380151731  0.6169605028187 1.0
C      1  0.6763865060994  0.3737277695328  0.3461803819901 1.0
C      1  0.5760144810606  0.2692365731856  0.4256821234671 1.0
C      1  0.4195062663477  0.5336852468554  0.4874591651059 1.0
C      1  0.4753760951894  0.3879482832656  0.4644112677418 1.0
C      1  0.4488075169859  0.1824340273190  0.5899698104782 1.0
C      1  0.4401817489642  0.3837445665782  0.2861142957438 1.0
C      1  0.4802139235693  0.7960717986571  0.4395894789758 1.0
C      1  0.5181729870421  0.3046950124477  0.5004170440218 1.0
C      1  0.2896198258062  0.2970806201003  0.4864042823269 1.0
C      1  0.4785468518715  0.4666274025986  0.2410288860182 1.0
C      1  0.6778167229471  0.6730922466653  0.2840077729892 1.0
C      1  0.2384368525780  0.3700165917167  0.4419359414441 1.0
C      1  0.7417842636728  0.5344852376878  0.3737713961546 1.0
C      1  0.4070110049765  0.7023713125608  0.3329317875606 1.0
C      1  0.7792578747686  0.4860235358756  0.5466978248701 1.0
C      1  0.5889832183043  0.4927815128650  0.7807443491088 1.0
C      1  0.5943835496203  0.2536334182103  0.6399662562127 1.0
C      1  0.2531719023912  0.4092858303840  0.5906032148239 1.0
C      1  0.3900592989359  0.5393762540345  0.7377400808754 1.0
END
