TITL C-106852-6409-27 -2.85 3375.00 -484.29974030 0 0 61 (C1) n - 1
REM
REM Run started: at 2020.12.05 00:01:06 in /rds/project/t2_vol4/rds-t2-cs072/BORA/CARBON/AIRSS/Generating-Clusters/Str-Search/Only-C1/C10-100
REM VASP from code version vasp.5.4.4.18Apr17-6-g9f103f2a35 (build Oct 11 2019 16:45:47) gamma-only
REM
REM
REM
REM
REM ./C.cell (67c5d0192afd7a3ce4a0888e5fe73b87)
REM AIRSS Version 0.9.1 bugfix July 2018 build 013d7b7c2542+ Fri, 06 Jul 2018 19:26:36 +0100
REM compiler GCC version 4.8.5 20150623 (Red Hat 4.8.5-39)
REM options -cpp -mtune=generic -march=x86-64 -g -O0
REM seed -465596914 -2090083317 -1886048840 668790576 1825092804 -932100043 -383538638 -1637156529 419348078 2142748920 -1062594260 -1437212152
REM
REM C.POTCAR (d86ddea03c3ceb6dc662c8ad6801f873)
REM 
CELL 1.54180   15.00000   15.00000   15.00000   90.00000   90.00000   90.00000
LATT -1
SFAC C  
C      1  0.6826460889230  0.5708356497173  0.4195224831572 1.0
C      1  0.3968573665748  0.4653557617202  0.5168784601209 1.0
C      1  0.5596846083077  0.4882178368338  0.3362798043130 1.0
C      1  0.5516546236546  0.4485226442538  0.7289598743735 1.0
C      1  0.5313204016655  0.3876564161696  0.3288029745585 1.0
C      1  0.7232068508976  0.4830799159531  0.3968007691184 1.0
C      1  0.6631633761776  0.5142994713358  0.3283254287652 1.0
C      1  0.3719340712591  0.5555315152271  0.5320405091507 1.0
C      1  0.5918065616952  0.6050163182078  0.2353737133392 1.0
C      1  0.5560350481450  0.7128571208545  0.4982652738868 1.0
C      1  0.2775019307248  0.4458030517067  0.6558642846299 1.0
C      1  0.6300534226071  0.7696646538336  0.5506184939599 1.0
C      1  0.4389277784834  0.2906584822274  0.5505291827383 1.0
C      1  0.5921426969821  0.5304622020827  0.6892873965487 1.0
C      1  0.4343404203467  0.6025090098043  0.3045844402125 1.0
C      1  0.7082690806729  0.4164081152268  0.4599325880932 1.0
C      1  0.4915237031385  0.4590105847938  0.4990787605953 1.0
C      1  0.2564566291110  0.4633008434094  0.4103355312669 1.0
C      1  0.3829267819363  0.6803785588923  0.4447475785592 1.0
C      1  0.4977719911416  0.4123078627465  0.6538335626658 1.0
C      1  0.4271411414642  0.3355586269578  0.6454583210673 1.0
C      1  0.6802398740108  0.5429587177821  0.6712128523265 1.0
C      1  0.5977441254189  0.5642618813035  0.4716485224003 1.0
C      1  0.2948659795055  0.5487462756335  0.3903871418051 1.0
C      1  0.5845236086826  0.3297357674437  0.3774576083212 1.0
C      1  0.5392298072872  0.5078878287868  0.4316472956923 1.0
C      1  0.3643041034367  0.5390429825227  0.3209135761660 1.0
C      1  0.4387276897024  0.3760851276635  0.3195512621080 1.0
C      1  0.3776476064579  0.5617342623953  0.7079316584039 1.0
C      1  0.7265947550929  0.5311100986206  0.5910490699111 1.0
C      1  0.5911770604373  0.3677115203251  0.6867737258786 1.0
C      1  0.6339335150906  0.3884509863549  0.5912019203190 1.0
C      1  0.3726839964164  0.3310125215311  0.3834913281595 1.0
C      1  0.3442942534139  0.4746583977684  0.7140563192145 1.0
C      1  0.4487472837485  0.6091592564549  0.6678280337262 1.0
C      1  0.3149850427284  0.6108761762003  0.4674486643252 1.0
C      1  0.6638338034070  0.6784260671373  0.5778840685066 1.0
C      1  0.5199461189792  0.5673867286476  0.2779105563691 1.0
C      1  0.6572279929176  0.7262846788283  0.4703401680773 1.0
C      1  0.5260748197247  0.2961911766381  0.6638059916015 1.0
C      1  0.6715308102306  0.5731344521662  0.2502660732795 1.0
C      1  0.6108751476587  0.3111809755717  0.5305849465365 1.0
C      1  0.4715707988520  0.7139473889364  0.4449340376195 1.0
C      1  0.2400451145949  0.4923526708738  0.5778856184016 1.0
C      1  0.5342123779621  0.5948168647320  0.6382321425016 1.0
C      1  0.3477788458381  0.3848151954621  0.6837470958210 1.0
C      1  0.5769968811352  0.6270885821823  0.5526010665487 1.0
C      1  0.7092803425405  0.4419767005498  0.5526952344330 1.0
C      1  0.5323999838000  0.2693758394869  0.5692137296600 1.0
C      1  0.5410397660897  0.4355828283063  0.5709609319605 1.0
C      1  0.2788722686618  0.5873548720060  0.5623692659598 1.0
C      1  0.6456392577938  0.3387085231693  0.4448565512899 1.0
C      1  0.3074798345130  0.3994702274376  0.3579805657491 1.0
C      1  0.3714315502804  0.4454852217942  0.3025164856203 1.0
C      1  0.7215706520319  0.6494565953190  0.4613095237264 1.0
C      1  0.3347823901999  0.3956287683682  0.5107731674974 1.0
C      1  0.2438264691531  0.4358126374969  0.5023257969904 1.0
C      1  0.7420807434069  0.6220773972235  0.5512511701500 1.0
C      1  0.4357936691801  0.6728036607871  0.3669041757835 1.0
C      1  0.3598073270786  0.6054901494661  0.6209934203208 1.0
C      1  0.3808399586316  0.3142854546726  0.4795400057183 1.0
END
