TITL C-109989-2056-10 -1.902 3375.00 -301.84797172 0 0 38 (C1) n - 1
REM
REM Run started: at 2020.12.24 00:10:46 in /rds/project/t2_vol4/rds-t2-cs072/BORA/CARBON/AIRSS/Generating-Clusters/Str-Search/Only-C1/C10-100
REM VASP from code version vasp.5.4.4.18Apr17-6-g9f103f2a35 (build Oct 11 2019 16:45:47) gamma-only
REM
REM
REM
REM
REM ./C.cell (67c5d0192afd7a3ce4a0888e5fe73b87)
REM AIRSS Version 0.9.1 bugfix July 2018 build 013d7b7c2542+ Fri, 06 Jul 2018 19:26:36 +0100
REM compiler GCC version 4.8.5 20150623 (Red Hat 4.8.5-39)
REM options -cpp -mtune=generic -march=x86-64 -g -O0
REM seed 1974290795 -761947711 -1680092391 -973869318 -1197362804 1883247929 177391000 2116654885 -363993881 1980413211 1804268511 1318020947
REM
REM C.POTCAR (d86ddea03c3ceb6dc662c8ad6801f873)
REM 
CELL 1.54180   15.00000   15.00000   15.00000   90.00000   90.00000   90.00000
LATT -1
SFAC C  
C      1  0.6919637040637  0.6511438412980  0.4960263907831 1.0
C      1  0.5441024812939  0.3275634657481  0.5783121356362 1.0
C      1  0.5795027501845  0.3967193442371  0.4359754382296 1.0
C      1  0.6734235164271  0.5279992803387  0.6115699558633 1.0
C      1  0.4644409568787  0.4834903065931  0.3239946900497 1.0
C      1  0.4548914835453  0.6352307739941  0.6519677839274 1.0
C      1  0.4253082618526  0.4653019989360  0.5446172886847 1.0
C      1  0.6156462535080  0.5456792014996  0.3879930216078 1.0
C      1  0.4012658509510  0.6321112603810  0.2664875574227 1.0
C      1  0.4005579993353  0.5587307268205  0.6685772041137 1.0
C      1  0.4409576461450  0.4762895849319  0.6431680411365 1.0
C      1  0.6594567822142  0.4391660405690  0.5739477852337 1.0
C      1  0.3866870826302  0.2644675626791  0.6015398754518 1.0
C      1  0.3907835323373  0.4317204038431  0.3515515325053 1.0
C      1  0.4883792986984  0.5175613152725  0.4888069528155 1.0
C      1  0.3036212910400  0.6964286631482  0.4750874921637 1.0
C      1  0.5858178599964  0.3981875949040  0.6219383734014 1.0
C      1  0.6943538378127  0.5190880800915  0.3320398165576 1.0
C      1  0.3593513270030  0.4052414070313  0.5104765936636 1.0
C      1  0.6623672194567  0.4273808219308  0.4780459703561 1.0
C      1  0.5371713008797  0.5952886530941  0.5157182278302 1.0
C      1  0.4435791036434  0.5595001860451  0.2789619680861 1.0
C      1  0.5157939704589  0.2279322644415  0.4856105048397 1.0
C      1  0.6114990789681  0.6118313877249  0.4573622883046 1.0
C      1  0.5339167754819  0.4810579551431  0.3984506107567 1.0
C      1  0.3509221185067  0.4005132199811  0.4165724699995 1.0
C      1  0.3500511399409  0.6801219895698  0.3196974008513 1.0
C      1  0.3480205906273  0.3297828788471  0.5650447028757 1.0
C      1  0.3166042121129  0.6707395899449  0.5543412083159 1.0
C      1  0.4751776379903  0.2612116005929  0.5703406603810 1.0
C      1  0.3649971887755  0.6351772331865  0.6202171837175 1.0
C      1  0.5481742623533  0.3193968450905  0.4809218895645 1.0
C      1  0.5388353864925  0.6217452920665  0.6134179934559 1.0
C      1  0.5886783383402  0.5492198532352  0.6557286178944 1.0
C      1  0.7064828685923  0.5968136478738  0.5589192191330 1.0
C      1  0.7026771691561  0.4825616354846  0.4112399312984 1.0
C      1  0.5349078787420  0.4687718934459  0.6669732047783 1.0
C      1  0.3096319435641  0.7088319999850  0.3883578183141 1.0
END
