TITL C-110299-7004-6 -5.599 3375.00 -935.20513649 0 0 117 (C1) n - 1
REM
REM Run started: at 2021.01.08 13:47:19 in /rds/project/t2_vol4/rds-t2-cs072/BORA/CARBON/AIRSS/Generating-Clusters/Str-Search/Only-C1/C100-200
REM VASP from code version vasp.5.4.4.18Apr17-6-g9f103f2a35 (build Oct 11 2019 16:45:47) gamma-only
REM
REM
REM
REM
REM ./C.cell (efaf0b2bf1589a83377268d7ebe2c73f)
REM AIRSS Version 0.9.1 bugfix July 2018 build 013d7b7c2542+ Fri, 06 Jul 2018 19:26:36 +0100
REM compiler GCC version 4.8.5 20150623 (Red Hat 4.8.5-39)
REM options -cpp -mtune=generic -march=x86-64 -g -O0
REM seed 604442943 -465719352 -185402129 -125090128 1073956565 2133866908 -1981123363 1258027078 468722997 1487245191 2027190533 1951496736
REM
REM C.POTCAR (d86ddea03c3ceb6dc662c8ad6801f873)
REM 
CELL 1.54180   15.00000   15.00000   15.00000   90.00000   90.00000   90.00000
LATT -1
SFAC C  
C      1  0.4878531356968  0.5255611263997  0.8248209905414 1.0
C      1  0.2495191028784  0.5390399953953  0.2572733434125 1.0
C      1  0.8358376214365  0.5177632049793  0.7468986821330 1.0
C      1  0.8062442171239  0.3999302571768  0.4479561427259 1.0
C      1  0.6007969758367  0.4321384200912  0.4961652601897 1.0
C      1  0.4271321364398  0.3228220516928  0.6128352255673 1.0
C      1  0.5969140306133  0.7395019227360  0.6938837356786 1.0
C      1  0.6106289213070  0.6274235460987  0.3736439874195 1.0
C      1  0.4301831337822  0.3567648134792  0.2164064350954 1.0
C      1  0.4683271030851  0.3356736169700  0.4615049633581 1.0
C      1  0.5519164536925  0.7612804391558  0.6134646401884 1.0
C      1  0.5658674004800  0.7126704694690  0.3433965060158 1.0
C      1  0.1701823686139  0.3318678765997  0.5429527775574 1.0
C      1  0.7608905205753  0.6483713573888  0.4037033353698 1.0
C      1  0.7591726440282  0.3528426689818  0.7388709729183 1.0
C      1  0.7852498729321  0.6005412645525  0.5747198797503 1.0
C      1  0.4069206133083  0.7427318460534  0.3164764940060 1.0
C      1  0.1763083929287  0.5408838016967  0.5730663767344 1.0
C      1  0.4929253619406  0.1732500909324  0.5255445780754 1.0
C      1  0.8171030275672  0.3611654462255  0.5820486637225 1.0
C      1  0.4443521215565  0.2688792348497  0.2656174956053 1.0
C      1  0.4839589878440  0.2304991851573  0.4451325636270 1.0
C      1  0.4846276112563  0.7884120843418  0.4649628694077 1.0
C      1  0.1122539784552  0.4529947122744  0.4483709141689 1.0
C      1  0.7308634938086  0.6442425270500  0.6521243205778 1.0
C      1  0.7469742029296  0.5070273544538  0.7632226320832 1.0
C      1  0.4023595865610  0.1728761457090  0.5009323819065 1.0
C      1  0.7057868944203  0.4922130362591  0.3314718095529 1.0
C      1  0.4100698784508  0.7658665860010  0.4111032046115 1.0
C      1  0.1507889999455  0.4518652312852  0.6062588326793 1.0
C      1  0.5211275939501  0.3935149916491  0.2251346031474 1.0
C      1  0.3680073016353  0.6187844041940  0.3873060288030 1.0
C      1  0.6496522117401  0.7667302688942  0.4749791589757 1.0
C      1  0.1243735228035  0.4387671441437  0.3528615925105 1.0
C      1  0.8283465647414  0.4533162968710  0.5396805216981 1.0
C      1  0.7478266898802  0.5114293390453  0.5469006190221 1.0
C      1  0.7031268651961  0.4202147167759  0.7693146760610 1.0
C      1  0.3741539609639  0.2512359893743  0.3317391264972 1.0
C      1  0.3293461085224  0.4922063635974  0.2293022527470 1.0
C      1  0.3418631155056  0.5843459325286  0.7063375605778 1.0
C      1  0.2030061365571  0.7007549040862  0.4433531238608 1.0
C      1  0.5574552531261  0.5345441401384  0.6146912064083 1.0
C      1  0.9377467444477  0.2974617563162  0.1966103702191 1.0
C      1  0.5876985176438  0.3170148254787  0.7426155266812 1.0
C      1  0.5258768334900  0.3099318800436  0.5976656132052 1.0
C      1  0.4994767524915  0.5393051142895  0.1985026531909 1.0
C      1  0.5680161498186  0.4712344811789  0.2100272320707 1.0
C      1  0.8022904291034  0.3396162641299  0.6684071318634 1.0
C      1  0.6486152552368  0.5000895802248  0.2528648175679 1.0
C      1  0.2098252598000  0.6484697654751  0.3654640653509 1.0
C      1  0.3377723410401  0.6703829299441  0.3081208965311 1.0
C      1  0.4040838644682  0.1993791923890  0.4040616006869 1.0
C      1  0.6063348950808  0.4032393118215  0.7671841296013 1.0
C      1  0.4620126026625  0.5691630561751  0.3724634800561 1.0
C      1  0.4142062221487  0.4839275185031  0.3974013205711 1.0
C      1  0.3972406104428  0.3516415373564  0.5319824064891 1.0
C      1  0.2814247840870  0.3534284211887  0.6742510990187 1.0
C      1  0.6079287564536  0.5414014040809  0.6928226285518 1.0
C      1  0.7292644043396  0.7216553235430  0.4526610375036 1.0
C      1  0.5975643216950  0.7076695234254  0.7801176378087 1.0
C      1  0.3492708659277  0.4013972441110  0.2511488332964 1.0
C      1  0.2155174996484  0.5545882840884  0.4005536339621 1.0
C      1  0.4174797223473  0.6584432229681  0.5348551399464 1.0
C      1  0.3188727680155  0.5381499910921  0.4103055598819 1.0
C      1  0.7853322633897  0.3234696168172  0.4995204382020 1.0
C      1  0.7011560442579  0.1585259923014  0.4757983405418 1.0
C      1  0.2839742225411  0.3595778133390  0.4272540022284 1.0
C      1  0.4955705835241  0.3434037953385  0.3016382180979 1.0
C      1  0.4838283522932  0.4999839622244  0.6691711917856 1.0
C      1  0.2710044766822  0.6510599043700  0.6798693211085 1.0
C      1  0.4398107812119  0.3853079806034  0.3789475124638 1.0
C      1  0.5488638638067  0.5824252073103  0.4281056049381 1.0
C      1  0.3627320666631  0.5028556139443  0.4896612052918 1.0
C      1  0.8700907166583  0.5360279311726  0.5890488447243 1.0
C      1  0.2025461470484  0.3738386802767  0.6297361132397 1.0
C      1  0.2513728878762  0.6236764146016  0.7858736366183 1.0
C      1  0.7242938991998  0.2480710847859  0.5000056393447 1.0
C      1  0.4642891269571  0.7527914057714  0.5661997724917 1.0
C      1  0.8842652215647  0.5260338479608  0.6777771524566 1.0
C      1  0.4149834160593  0.5589945741267  0.8444625776114 1.0
C      1  0.4104496132424  0.5473201076621  0.2069962702442 1.0
C      1  0.4008498916992  0.5371763566970  0.6510156233463 1.0
C      1  0.5443537248167  0.3640238836185  0.5167349419839 1.0
C      1  0.6516013477276  0.6463308792796  0.8008945254767 1.0
C      1  0.8799854124520  0.3384400768131  0.2467613020534 1.0
C      1  0.5686172615878  0.7729566007555  0.4218274770250 1.0
C      1  0.4721330481763  0.6000012907223  0.2713003253433 1.0
C      1  0.2195635736975  0.3108452847593  0.4677224863748 1.0
C      1  0.3944892382063  0.5698954224206  0.5583657546279 1.0
C      1  0.6810135932792  0.7199649804794  0.6405954189869 1.0
C      1  0.5436840599686  0.4861682155945  0.7541595784781 1.0
C      1  0.6985025343260  0.5793844040578  0.2464512904685 1.0
C      1  0.3593562744432  0.3236584780688  0.6805759873138 1.0
C      1  0.5768298005633  0.5337244670735  0.5130125671377 1.0
C      1  0.3396133775637  0.5945083519826  0.7999889685415 1.0
C      1  0.7774844888573  0.4275754344002  0.3575242597496 1.0
C      1  0.6499430806602  0.2094505628291  0.5378560197305 1.0
C      1  0.2531767700420  0.6345910225727  0.2776530220566 1.0
C      1  0.6655665077303  0.4907328599698  0.5187316519376 1.0
C      1  0.7857812719169  0.6581106573648  0.4932931271741 1.0
C      1  0.2142005063224  0.6265969997606  0.5995176937032 1.0
C      1  0.3216390615356  0.7335877496833  0.6607183297378 1.0
C      1  0.5631154456063  0.2098275013510  0.5883578843557 1.0
C      1  0.6353049226054  0.7635405646343  0.5659081566697 1.0
C      1  0.2071643677985  0.6857184529769  0.5262782676075 1.0
C      1  0.1604429659663  0.5287416877787  0.4784387428370 1.0
C      1  0.3384415212982  0.3453580723656  0.3435063979484 1.0
C      1  0.1849938407582  0.4975796362334  0.3205334677450 1.0
C      1  0.5714412642068  0.2681575252633  0.6721275377385 1.0
C      1  0.3284666301858  0.4095550585870  0.5022218028408 1.0
C      1  0.4895414289688  0.7003576431150  0.2896855603501 1.0
C      1  0.6905211231416  0.5841901796477  0.7310055837970 1.0
C      1  0.1078323002820  0.4030979591295  0.5289919658726 1.0
C      1  0.3817964628852  0.7727159660346  0.6199871935582 1.0
C      1  0.3804576446412  0.6873205831135  0.4537103241300 1.0
C      1  0.7021543874111  0.5911889013364  0.3487795957942 1.0
C      1  0.8265634711912  0.3810267243458  0.2991839270760 1.0
END
