TITL C-114142-480-4 -8.996 3375.00 -1550.87900975 0 0 186 (C1) n - 1
REM
REM Run started: at 2021.01.08 14:55:15 in /rds/project/t2_vol4/rds-t2-cs072/BORA/CARBON/AIRSS/Generating-Clusters/Str-Search/Only-C1/C100-200
REM VASP from code version vasp.5.4.4.18Apr17-6-g9f103f2a35 (build Oct 11 2019 16:45:47) gamma-only
REM
REM
REM
REM
REM ./C.cell (efaf0b2bf1589a83377268d7ebe2c73f)
REM AIRSS Version 0.9.1 bugfix July 2018 build 013d7b7c2542+ Fri, 06 Jul 2018 19:26:36 +0100
REM compiler GCC version 4.8.5 20150623 (Red Hat 4.8.5-39)
REM options -cpp -mtune=generic -march=x86-64 -g -O0
REM seed -1313921993 294755295 -508886056 -368348972 870187214 618524620 -1606930661 -2085796188 91237895 1402155441 -807565684 -1451658177
REM
REM C.POTCAR (d86ddea03c3ceb6dc662c8ad6801f873)
REM 
CELL 1.54180   15.00000   15.00000   15.00000   90.00000   90.00000   90.00000
LATT -1
SFAC C  
C      1  0.8237989438138  0.5888093816499  0.3065943201487 1.0
C      1  0.5537362517601  0.6538350737230  0.7987263635879 1.0
C      1  0.5880479561103  0.2433955915646  0.7817656664462 1.0
C      1  0.5317759048605  0.4914580805536  0.5460222632544 1.0
C      1  0.6352538980036  0.5158542791985  0.4271787138604 1.0
C      1  0.4839241762224  0.6927385595663  0.4437584144381 1.0
C      1  0.6466560826286  0.4128144503254  0.9229876590696 1.0
C      1  0.3307148453286  0.8083579794114  0.4048708035411 1.0
C      1  0.2960531683207  0.5799163548050  0.5132291236707 1.0
C      1  0.3935390693949  0.1489235783477  0.5815332415030 1.0
C      1  0.8852558340073  0.5098632713020  0.7007910632667 1.0
C      1  0.6285505478197  0.3474468965873  0.3102816980350 1.0
C      1  0.3891461849027  0.0798399562265  0.3327522677372 1.0
C      1  0.2936950365739  0.4133439859666  0.3489318065311 1.0
C      1  0.4704756323033  0.7954206279120  0.3984646502490 1.0
C      1  0.1720198327711  0.5569875894819  0.2372187408937 1.0
C      1  0.7912608775937  0.4305238692701  0.2774609037439 1.0
C      1  0.8911036548143  0.4576434531153  0.3888487676754 1.0
C      1  0.0943799402518  0.5304426341127  0.4531084581098 1.0
C      1  0.7896191420651  0.3170719903134  0.6499734462194 1.0
C      1  0.2873505099271  0.4898367288663  0.4895077556143 1.0
C      1  0.4314438841924  0.6132630942228  0.4032321661467 1.0
C      1  0.2816695579140  0.4058373473277  0.5338665800465 1.0
C      1  0.5467876201505  0.3339633276661  0.3532939150302 1.0
C      1  0.4512294384643  0.1523082854994  0.6601958533989 1.0
C      1  0.4891831469825  0.7152025014548  0.7754274380459 1.0
C      1  0.5324324932107  0.5677639304830  0.7560929530921 1.0
C      1  0.2551834050870  0.6760319083449  0.7223260913514 1.0
C      1  0.3127976340920  0.2058915532444  0.5749880321247 1.0
C      1  0.6024474040370  0.8754034869779  0.4640859759710 1.0
C      1  0.5482021998110  0.1800443702934  0.4028169222682 1.0
C      1  0.5323603060403  0.3479087906536  0.4945020066473 1.0
C      1  0.3356785444657  0.4849288924965  0.1306618123542 1.0
C      1  0.3735559024225  0.3774591748815  0.8156411202195 1.0
C      1  0.4997658166802  0.8756550950510  0.6002187851386 1.0
C      1  0.2643436922049  0.7840704177290  0.5770993267960 1.0
C      1  0.4041568755654  0.8414842772401  0.4596026416759 1.0
C      1  0.7683792398922  0.7277509931025  0.5086124915907 1.0
C      1  0.4634981957966  0.5881813928386  0.6823349184297 1.0
C      1  0.2443750478672  0.6136826481997  0.2095012397061 1.0
C      1  0.6631272567016  0.4348225066874  0.5765320360303 1.0
C      1  0.1394876509574  0.4300183934740  0.3311389043974 1.0
C      1  0.5562557614187  0.6119965460154  0.1656348638644 1.0
C      1  0.6868027308247  0.3909983546963  0.8442680245405 1.0
C      1  0.5281709922517  0.1282077783663  0.4849479615815 1.0
C      1  0.6096655321543  0.3680360910088  0.1435317334660 1.0
C      1  0.5925393631643  0.5572208680379  0.2442776254997 1.0
C      1  0.3760649660576  0.1118623301681  0.4228423488559 1.0
C      1  0.5510017707649  0.4664035177943  0.2384893548671 1.0
C      1  0.3460873649354  0.5848668424052  0.4251247324530 1.0
C      1  0.5922285485923  0.4253669659639  0.7188104332578 1.0
C      1  0.3554919590659  0.3396730286205  0.4839969133905 1.0
C      1  0.8888359437633  0.5985388508214  0.6915518411138 1.0
C      1  0.8439845850889  0.6668052944004  0.6721945607607 1.0
C      1  0.6666411053740  0.3052286199038  0.7908068240820 1.0
C      1  0.6922242395996  0.5597878978703  0.7825232743058 1.0
C      1  0.3849117291895  0.7234145719979  0.6286866795236 1.0
C      1  0.7503833696227  0.6194297970837  0.2531212794713 1.0
C      1  0.5052725942847  0.6309742454056  0.6018702682234 1.0
C      1  0.4650147866106  0.3448459799450  0.8106102721008 1.0
C      1  0.4329880391878  0.1149815190356  0.5007289912922 1.0
C      1  0.6051112801563  0.1778104645506  0.7125490330130 1.0
C      1  0.0986565373939  0.5548109546178  0.6462650083096 1.0
C      1  0.7073288741065  0.7048440489014  0.2755269707540 1.0
C      1  0.6167914824587  0.7453667263588  0.2513883566847 1.0
C      1  0.1451687586886  0.6842593940596  0.5241524148749 1.0
C      1  0.7882885158994  0.3547482053833  0.3405027118954 1.0
C      1  0.7163267445958  0.7763027356406  0.3500310655164 1.0
C      1  0.5482665404800  0.2827944019554  0.1660783968155 1.0
C      1  0.2996563888422  0.5694968735218  0.1477333444461 1.0
C      1  0.2437928998928  0.7696570562052  0.4157330649467 1.0
C      1  0.6354161876084  0.4045962364542  0.2345361569253 1.0
C      1  0.5881162236774  0.4524912044743  0.9792657171805 1.0
C      1  0.3868484635544  0.3327234335951  0.2036596115379 1.0
C      1  0.5135912814179  0.4941702174402  0.9273104755429 1.0
C      1  0.5925714828289  0.4561587190888  0.0824342490711 1.0
C      1  0.6311505368447  0.5525561251599  0.1193297511515 1.0
C      1  0.9076399019270  0.5004752265732  0.4716565594384 1.0
C      1  0.5099977591424  0.4986936180286  0.8259416822883 1.0
C      1  0.8522323389003  0.3706328772773  0.4069955883652 1.0
C      1  0.5253401734099  0.4132558680897  0.7858683000703 1.0
C      1  0.6231331486725  0.6012042264416  0.4831296964312 1.0
C      1  0.4132197786896  0.6689476146339  0.7197843757777 1.0
C      1  0.3195263795208  0.5297639289700  0.7731002985024 1.0
C      1  0.2800394299238  0.4122529730799  0.6356263750800 1.0
C      1  0.3406382585586  0.2366095656739  0.7365988599867 1.0
C      1  0.3592209705195  0.4741029815485  0.8363371555911 1.0
C      1  0.7446092546579  0.4695689316786  0.8037431642698 1.0
C      1  0.3067703687369  0.4989603902844  0.3998157637902 1.0
C      1  0.4927369307235  0.2563067559042  0.7896431017663 1.0
C      1  0.4644219639447  0.3835173342954  0.3469467642588 1.0
C      1  0.1177051890510  0.4588148614517  0.5173338819814 1.0
C      1  0.4526405455588  0.4557560629852  0.5755724268612 1.0
C      1  0.6464916008311  0.6431164909718  0.8283833099969 1.0
C      1  0.8983217445512  0.4387672100259  0.6361972985526 1.0
C      1  0.7170242875580  0.2471770799008  0.5148776187791 1.0
C      1  0.5448858394711  0.7071738424589  0.2020795421832 1.0
C      1  0.7171277186920  0.4585312937022  0.2330530484195 1.0
C      1  0.4819333107976  0.4666473560575  0.3094806372022 1.0
C      1  0.6958685610814  0.8568637536835  0.4826646500095 1.0
C      1  0.4717730149800  0.3361283371699  0.1607205044204 1.0
C      1  0.5692962392374  0.2773049978145  0.4309864369184 1.0
C      1  0.3312761629491  0.4060762178366  0.1852241776109 1.0
C      1  0.4946815945271  0.8558838558931  0.6920503353596 1.0
C      1  0.2657872192867  0.3365496310699  0.6854224477904 1.0
C      1  0.1650465474671  0.6513542811656  0.7098909466213 1.0
C      1  0.5582445257720  0.8451795091410  0.3883081686767 1.0
C      1  0.1881135543138  0.3863005878968  0.4907264081909 1.0
C      1  0.3132694630815  0.3217077385328  0.7711885960278 1.0
C      1  0.5480310078178  0.1743036938012  0.3079532361158 1.0
C      1  0.1409164508249  0.6542072579250  0.3627279572620 1.0
C      1  0.3215049471399  0.1866459028736  0.4104296419606 1.0
C      1  0.5778784300435  0.5729581091133  0.3508570326056 1.0
C      1  0.2565635929619  0.6215106427963  0.5828342790452 1.0
C      1  0.4276358449222  0.2034076982176  0.7389195637198 1.0
C      1  0.8216202904596  0.4527653857674  0.7536332533894 1.0
C      1  0.5940386935089  0.4347277477540  0.4985577310201 1.0
C      1  0.1165939563882  0.5824359055927  0.3072373465012 1.0
C      1  0.7925679021364  0.6359841638993  0.4735390889377 1.0
C      1  0.7930383996691  0.2997859518131  0.5537941828388 1.0
C      1  0.2870454083944  0.7020649095052  0.6289907748953 1.0
C      1  0.3896985696189  0.7811971721901  0.3344734929891 1.0
C      1  0.4324720198280  0.5040147734365  0.8933155052270 1.0
C      1  0.3446719876246  0.1154160776482  0.2692605196499 1.0
C      1  0.3262386143488  0.6302127886780  0.7611616817970 1.0
C      1  0.2687874082398  0.4224430472403  0.2526234154721 1.0
C      1  0.2041289018011  0.7614008321549  0.5039337123756 1.0
C      1  0.4568718425998  0.6893412655027  0.5549446088118 1.0
C      1  0.4825824772665  0.5514680374803  0.3536932692011 1.0
C      1  0.7286293232349  0.7531595648739  0.5943387713867 1.0
C      1  0.3276415032228  0.2039768151203  0.3125442653865 1.0
C      1  0.7026389577615  0.2967673080240  0.6935592038566 1.0
C      1  0.5830291644142  0.1422573462522  0.5607037640817 1.0
C      1  0.6415172139338  0.3763079213227  0.6556107490698 1.0
C      1  0.6753002250115  0.8341078093948  0.5753143510349 1.0
C      1  0.5433384328815  0.1395872167152  0.6489325030020 1.0
C      1  0.4452910306089  0.3673292121247  0.5263804349391 1.0
C      1  0.1152458364599  0.6292935696597  0.4539547306382 1.0
C      1  0.6240910309150  0.8115663393580  0.3241866548920 1.0
C      1  0.8438445868096  0.3799597428939  0.6886495233893 1.0
C      1  0.4097373409508  0.5072018755103  0.6450033949209 1.0
C      1  0.0942730071370  0.5059561087809  0.3631197534896 1.0
C      1  0.8520466993088  0.4966928658269  0.3109539760698 1.0
C      1  0.2005555871622  0.2948805741217  0.4532004802687 1.0
C      1  0.2875108636052  0.2438594188861  0.6553100754233 1.0
C      1  0.2935276692270  0.2499471764037  0.4822361163218 1.0
C      1  0.6716689545603  0.2742722881978  0.4357676402984 1.0
C      1  0.8474102963238  0.6308747863725  0.3893870422839 1.0
C      1  0.8823412949648  0.5921512180524  0.4639425086779 1.0
C      1  0.5744112091975  0.5778864919680  0.5650244908423 1.0
C      1  0.3898921616091  0.5633337714259  0.1248160492694 1.0
C      1  0.8947938042810  0.4337952950806  0.5427399361269 1.0
C      1  0.6373399696155  0.7142831414842  0.3544527876760 1.0
C      1  0.1840089975123  0.4599863954342  0.2511098750756 1.0
C      1  0.5202120300455  0.4252975980326  0.1462384136259 1.0
C      1  0.7197456386166  0.5140931659331  0.5711922198824 1.0
C      1  0.4971855459487  0.8074473812940  0.7586840341537 1.0
C      1  0.5840077769026  0.8704063498881  0.5603131920161 1.0
C      1  0.3607736120545  0.2855897222715  0.2913890961303 1.0
C      1  0.7602506315052  0.7012797259851  0.6722920461659 1.0
C      1  0.6441254246665  0.5405950110764  0.6252862295422 1.0
C      1  0.2018639270407  0.3741181352029  0.3890247419814 1.0
C      1  0.3259548462784  0.4870037730438  0.6803230161621 1.0
C      1  0.6928698689907  0.5497238272441  0.2075342420475 1.0
C      1  0.5590302341218  0.2163416117201  0.2341533385570 1.0
C      1  0.7147680758190  0.5669460210883  0.4846795191654 1.0
C      1  0.6773382406048  0.2066605954941  0.6635364409762 1.0
C      1  0.7297187869312  0.6568407627450  0.7594866483483 1.0
C      1  0.7176015115565  0.7065341623325  0.8407975647608 1.0
C      1  0.1595886851227  0.6290752833530  0.6098983288413 1.0
C      1  0.6687139277381  0.1889073484961  0.5716543904442 1.0
C      1  0.8513451182447  0.3559111245640  0.5027156119855 1.0
C      1  0.0980945373149  0.5919793865617  0.7364428685936 1.0
C      1  0.7490570784031  0.7926960832293  0.4410385429312 1.0
C      1  0.2749030296016  0.6899108492867  0.2640136693225 1.0
C      1  0.6170051089072  0.5239602845007  0.7180312030960 1.0
C      1  0.4483043787879  0.6973057332325  0.2038872798433 1.0
C      1  0.0992999053064  0.4764606374528  0.6034409596860 1.0
C      1  0.3700162252182  0.7267443051173  0.2606708438059 1.0
C      1  0.4168486091189  0.8682139242051  0.5486676900113 1.0
C      1  0.7032962887818  0.3178495905340  0.3590881318692 1.0
C      1  0.3492342736184  0.8173452686657  0.5950882560962 1.0
C      1  0.2168637821245  0.7108823578689  0.3424866058111 1.0
C      1  0.4578345009453  0.6151658379197  0.1531263172931 1.0
C      1  0.5825559521910  0.6580879317164  0.4115438966068 1.0
C      1  0.3714958822495  0.3536526759180  0.3731164174204 1.0
END
