TITL C-111765-2497-2 -5.072 3375.00 -904.88524216 0 0 110 (C1) n - 1
REM
REM Run started: at 2021.01.17 08:54:43 in /rds/project/t2_vol4/rds-t2-cs072/BORA/CARBON/AIRSS/Generating-Clusters/Str-Search/Only-C1/C100-200
REM VASP from code version vasp.5.4.4.18Apr17-6-g9f103f2a35 (build Oct 11 2019 16:45:47) gamma-only
REM
REM
REM
REM
REM ./C.cell (efaf0b2bf1589a83377268d7ebe2c73f)
REM AIRSS Version 0.9.1 bugfix July 2018 build 013d7b7c2542+ Fri, 06 Jul 2018 19:26:36 +0100
REM compiler GCC version 4.8.5 20150623 (Red Hat 4.8.5-39)
REM options -cpp -mtune=generic -march=x86-64 -g -O0
REM seed 1126541282 -1913743283 1910104961 -691930353 -671804349 -629731428 -609420544 514875333 -765033859 1007279211 -853291064 -842747122
REM
REM C.POTCAR (d86ddea03c3ceb6dc662c8ad6801f873)
REM 
CELL 1.54180   15.00000   15.00000   15.00000   90.00000   90.00000   90.00000
LATT -1
SFAC C  
C      1  0.4172446899002  0.3989407737910  0.7472804864655 1.0
C      1  0.5765521121491  0.5763865944091  0.6138697627138 1.0
C      1  0.6952723771076  0.6558085454468  0.6756083836369 1.0
C      1  0.2340916128913  0.5928072887359  0.5768655855009 1.0
C      1  0.5518011497241  0.2387877484021  0.6610298562780 1.0
C      1  0.5929376481236  0.7429973374269  0.6287090601735 1.0
C      1  0.4937246530464  0.2751711602518  0.2282249114549 1.0
C      1  0.2519838366723  0.3819380324860  0.6591262493846 1.0
C      1  0.6389645509027  0.5440635695123  0.3540427088212 1.0
C      1  0.6867044122506  0.3273053260150  0.6513742678885 1.0
C      1  0.2842584608549  0.6907110009404  0.3692676941726 1.0
C      1  0.3086707949416  0.7705128845908  0.4153245198525 1.0
C      1  0.6562783756117  0.3368816946203  0.5555502376760 1.0
C      1  0.4421301356267  0.4969748524865  0.3718337382934 1.0
C      1  0.5569357098801  0.7795191664170  0.4734998931319 1.0
C      1  0.5124843548814  0.4738922732766  0.3032948013635 1.0
C      1  0.4161516736892  0.4047814386717  0.4006774149098 1.0
C      1  0.4687576556953  0.5704547172891  0.7935303442785 1.0
C      1  0.7468450434050  0.4015524922388  0.6597591696281 1.0
C      1  0.2161732913213  0.5473108412893  0.4227851815636 1.0
C      1  0.4894665708951  0.4068148673533  0.5892619436196 1.0
C      1  0.2718333702898  0.4633396548829  0.7035393102937 1.0
C      1  0.6837438189053  0.7279203195399  0.6080550686369 1.0
C      1  0.3571448057561  0.5455565519052  0.3342999798116 1.0
C      1  0.8282226780543  0.4898869658643  0.5422597537251 1.0
C      1  0.2921032854922  0.4511671132566  0.5050699546977 1.0
C      1  0.5820201792081  0.3676143522923  0.7645811767562 1.0
C      1  0.7468500438075  0.3149039873172  0.4208538987884 1.0
C      1  0.2337499892946  0.6778826757206  0.5177597661650 1.0
C      1  0.6096899638822  0.4842696281933  0.6452416884382 1.0
C      1  0.5931606181453  0.4423427305502  0.2022797935957 1.0
C      1  0.3290385426570  0.2411707410247  0.5927462305749 1.0
C      1  0.5914953587565  0.5300291116229  0.2676601577065 1.0
C      1  0.5674849602758  0.5880009059860  0.4350729222244 1.0
C      1  0.7868540761285  0.5001572538078  0.4512348943886 1.0
C      1  0.4803568853418  0.5728234061409  0.5985939739892 1.0
C      1  0.3414188791509  0.7034181634954  0.7265133831034 1.0
C      1  0.3970318023628  0.8025494984568  0.4384550732864 1.0
C      1  0.6464363211881  0.7454643242454  0.4489748515380 1.0
C      1  0.4962339441829  0.5201723910502  0.4549861838830 1.0
C      1  0.5461976502458  0.6203004076341  0.7647630945966 1.0
C      1  0.3118483891852  0.4090767475227  0.4157415862075 1.0
C      1  0.4257019291395  0.6803416636065  0.2765676435719 1.0
C      1  0.4296674213964  0.5307900842166  0.1913340876237 1.0
C      1  0.5264418899080  0.2635596129499  0.4325634173538 1.0
C      1  0.7123762942967  0.7239826473375  0.5180999605356 1.0
C      1  0.5771208665443  0.6923034551777  0.3027332700510 1.0
C      1  0.6408707323821  0.4531225002202  0.4022007828610 1.0
C      1  0.7948348074965  0.4108311954169  0.5763060358679 1.0
C      1  0.2817600021056  0.7606769795910  0.5088345739858 1.0
C      1  0.4935538479968  0.3746737539058  0.7877747657278 1.0
C      1  0.4941261826149  0.3526348192606  0.4024029309895 1.0
C      1  0.3763643098818  0.5532139539979  0.7854759610085 1.0
C      1  0.5877587800391  0.4170069786744  0.5688353284985 1.0
C      1  0.4458312850538  0.3514656200912  0.2044619265618 1.0
C      1  0.3308405664183  0.5726588875486  0.5957019793543 1.0
C      1  0.6139113410679  0.4636968675897  0.7461696837587 1.0
C      1  0.4105799677004  0.6268893522757  0.6142886771184 1.0
C      1  0.4850738891162  0.4455878532857  0.2061311641600 1.0
C      1  0.3426294707438  0.2640624279616  0.3261990632148 1.0
C      1  0.4835296241385  0.7821549466869  0.4062969201774 1.0
C      1  0.3469882518703  0.4630346970158  0.7612186906692 1.0
C      1  0.7912769126751  0.5754290887784  0.5818006231267 1.0
C      1  0.2268765121240  0.6418802629909  0.4277907001976 1.0
C      1  0.5586683215996  0.5338733583051  0.7894682300103 1.0
C      1  0.5913569129641  0.4764774399743  0.4859338925803 1.0
C      1  0.4028535739067  0.2834047071057  0.2577721439801 1.0
C      1  0.3148472115600  0.6166438132223  0.7424475367641 1.0
C      1  0.3343108608349  0.2413077514194  0.4218615553050 1.0
C      1  0.4927610542093  0.7338826229911  0.3234822882943 1.0
C      1  0.4587445730091  0.2596620947239  0.6760373487103 1.0
C      1  0.4352184189336  0.7807029833170  0.5953055509077 1.0
C      1  0.7030815454529  0.4858341481639  0.6940102520414 1.0
C      1  0.3852894356249  0.2125935828464  0.6598528811828 1.0
C      1  0.4533874994706  0.4920750673121  0.5478054852842 1.0
C      1  0.3721658844898  0.7997853531034  0.5317187240929 1.0
C      1  0.5940974977096  0.6568292906091  0.6846403880905 1.0
C      1  0.3578088320116  0.4943356581627  0.5485718867484 1.0
C      1  0.5689201063783  0.4025988820047  0.3497167510258 1.0
C      1  0.2164556239063  0.5148722249683  0.5096229579663 1.0
C      1  0.7074917177248  0.6173686629185  0.3585617216732 1.0
C      1  0.5492812435065  0.2159046181153  0.5662767970986 1.0
C      1  0.7322935792198  0.4181110156889  0.4224237054514 1.0
C      1  0.3497649372589  0.6447204511389  0.3219417848401 1.0
C      1  0.5815057275592  0.2715553664546  0.2667733773315 1.0
C      1  0.6125380654175  0.2632862939417  0.5025281067392 1.0
C      1  0.5962546674489  0.2369898163234  0.3567661720159 1.0
C      1  0.4473452654388  0.3601748335004  0.6592984280098 1.0
C      1  0.2906407185262  0.3150076133721  0.3872082389619 1.0
C      1  0.3760709564127  0.2245697597364  0.5049777660916 1.0
C      1  0.2742335673149  0.4916763137703  0.3595031540578 1.0
C      1  0.3999587721840  0.7137703306089  0.6588349219372 1.0
C      1  0.7408150998377  0.3606364035967  0.5076920905194 1.0
C      1  0.4698090109048  0.6158195447654  0.2179292215715 1.0
C      1  0.3455590124196  0.5139746383379  0.2327977595572 1.0
C      1  0.6529255263309  0.6970574197723  0.3630665458440 1.0
C      1  0.6688981759851  0.2585616642616  0.4148053173507 1.0
C      1  0.2684019757151  0.3083450837148  0.6221181928006 1.0
C      1  0.7179513146645  0.5676766991113  0.5124986735187 1.0
C      1  0.4728957873012  0.2161080845090  0.5053791461664 1.0
C      1  0.2613022277299  0.5618395267957  0.6749857776169 1.0
C      1  0.7728507933873  0.5951748590701  0.4245084471098 1.0
C      1  0.7795208061377  0.6502772770719  0.5076237994592 1.0
C      1  0.6214184465085  0.5696045386976  0.5179369945757 1.0
C      1  0.5619168877166  0.6201934832107  0.2391988585414 1.0
C      1  0.6154136159162  0.2976811302315  0.7053907666039 1.0
C      1  0.7438654144898  0.5782812622369  0.6703106926660 1.0
C      1  0.5292371796166  0.7772120280472  0.5673495206386 1.0
C      1  0.6041206704033  0.3647255574076  0.2631545765089 1.0
C      1  0.2672919282705  0.4771596606229  0.2571240321302 1.0
END
