TITL C-111197-3880-3 -5.509 3375.00 -939.58401327 0 0 116 (C1) n - 1
REM
REM Run started: at 2020.12.23 23:41:40 in /rds/project/t2_vol4/rds-t2-cs072/BORA/CARBON/AIRSS/Generating-Clusters/Str-Search/Only-C1/C100-200
REM VASP from code version vasp.5.4.4.18Apr17-6-g9f103f2a35 (build Oct 11 2019 16:45:47) gamma-only
REM
REM
REM
REM
REM ./C.cell (efaf0b2bf1589a83377268d7ebe2c73f)
REM AIRSS Version 0.9.1 bugfix July 2018 build 013d7b7c2542+ Fri, 06 Jul 2018 19:26:36 +0100
REM compiler GCC version 4.8.5 20150623 (Red Hat 4.8.5-39)
REM options -cpp -mtune=generic -march=x86-64 -g -O0
REM seed 1970935015 1506397000 -543606245 1102494673 -1559019542 1180081507 -1610240521 1168805393 2064151563 -365037952 -1560052853 -748835503
REM
REM C.POTCAR (d86ddea03c3ceb6dc662c8ad6801f873)
REM 
CELL 1.54180   15.00000   15.00000   15.00000   90.00000   90.00000   90.00000
LATT -1
SFAC C  
C      1  0.3830006362502  0.4081835493877  0.7607414247118 1.0
C      1  0.6331399123802  0.5649758190661  0.2333450166926 1.0
C      1  0.4527142568818  0.6555671656221  0.8311775555829 1.0
C      1  0.2942349255300  0.6080605072960  0.3235283437514 1.0
C      1  0.3900362565615  0.1777923534663  0.5545833879609 1.0
C      1  0.4242349524105  0.6270504495075  0.6600876985196 1.0
C      1  0.4227507226385  0.5272009610682  0.1855104601354 1.0
C      1  0.5306096531391  0.5902434167212  0.5457819929347 1.0
C      1  0.3529382104787  0.7625083066012  0.5470286886246 1.0
C      1  0.4400583308374  0.4526276799889  0.3826557614486 1.0
C      1  0.3436880847162  0.3918647166235  0.2393604399997 1.0
C      1  0.7253652329145  0.5519010355002  0.7160721848115 1.0
C      1  0.5691850034830  0.6479987339821  0.3742499580013 1.0
C      1  0.4087418400751  0.3248211162548  0.2106399359457 1.0
C      1  0.5465301445477  0.8504563513338  0.4817630147574 1.0
C      1  0.7704009242622  0.3165709585366  0.4329528006891 1.0
C      1  0.6359666947314  0.6988528807451  0.6981549656935 1.0
C      1  0.8015324165310  0.3402679685150  0.5215057676285 1.0
C      1  0.3407452602384  0.5001434438815  0.7631027915884 1.0
C      1  0.6164296504044  0.5534977604398  0.5106027365676 1.0
C      1  0.4501451763530  0.7978168551118  0.3485478680462 1.0
C      1  0.2705433150708  0.5189237021023  0.2880462403225 1.0
C      1  0.3451700122590  0.4877764951827  0.2303807715303 1.0
C      1  0.7450004179547  0.6238796529396  0.3347804582799 1.0
C      1  0.3214579282013  0.3395875973487  0.7328389080066 1.0
C      1  0.5713216806263  0.5459053772431  0.7143778496738 1.0
C      1  0.5032563616304  0.7654203696813  0.6290176446372 1.0
C      1  0.6087823164780  0.4539009136601  0.7203472787704 1.0
C      1  0.4188098971088  0.8154349005553  0.5959283459955 1.0
C      1  0.5655350747947  0.2724117398142  0.7054609087004 1.0
C      1  0.7683129992662  0.3197437389627  0.6097066927974 1.0
C      1  0.8061077505823  0.4360847764678  0.5059021380595 1.0
C      1  0.7431403447380  0.4577654144044  0.3120142124277 1.0
C      1  0.4350610751389  0.5608068327470  0.8101801729726 1.0
C      1  0.0995375738126  0.4219791124151  0.5502194390655 1.0
C      1  0.2552937979032  0.5900304556746  0.6681562346006 1.0
C      1  0.7156479351547  0.2441288774988  0.4060906600387 1.0
C      1  0.3906548100213  0.4435705884299  0.3107340061914 1.0
C      1  0.6763853160568  0.1854831651733  0.5591994684214 1.0
C      1  0.5229194559410  0.2855018799804  0.4558806674176 1.0
C      1  0.6398589375183  0.4143540770398  0.1898084941033 1.0
C      1  0.7178660614985  0.7177498183775  0.3159036425950 1.0
C      1  0.5004959891819  0.7072229765125  0.7848089299971 1.0
C      1  0.4789332556373  0.6690326915199  0.5852194122530 1.0
C      1  0.6733441433614  0.7836796242292  0.5603639200650 1.0
C      1  0.3878045479476  0.6241679061233  0.4504036639829 1.0
C      1  0.5516814244594  0.7429285679043  0.7152165598215 1.0
C      1  0.1164448324632  0.4170598391990  0.4642968167434 1.0
C      1  0.4963324697616  0.4693450919009  0.1716295741658 1.0
C      1  0.5528775882065  0.4219495592071  0.7989960334681 1.0
C      1  0.6365714315972  0.8289392945290  0.5007774281080 1.0
C      1  0.7409001831222  0.6391050006943  0.5848152726683 1.0
C      1  0.6600203519307  0.4166184490129  0.4398859403516 1.0
C      1  0.4629479576127  0.4037094646665  0.8160685107901 1.0
C      1  0.2250685292798  0.4403673740939  0.3257618082478 1.0
C      1  0.3497930010167  0.2485581140967  0.5937805353812 1.0
C      1  0.1892938447122  0.4424130875565  0.4177107820921 1.0
C      1  0.5443191614598  0.5848113097162  0.4424542908362 1.0
C      1  0.1222037021998  0.4398074313623  0.6299665975142 1.0
C      1  0.3332028590130  0.6497228054100  0.6667776446153 1.0
C      1  0.3616121412807  0.6576888144429  0.2743306215052 1.0
C      1  0.4094895206135  0.6884700357265  0.5120321650901 1.0
C      1  0.6075864805395  0.3122336637391  0.6251932820125 1.0
C      1  0.1926710548351  0.4388738928700  0.6884722258433 1.0
C      1  0.7858812269334  0.4797357777757  0.5876244014984 1.0
C      1  0.4894909589733  0.4847869780734  0.8498898170233 1.0
C      1  0.4515059205242  0.5383507235832  0.4392474977198 1.0
C      1  0.2979564603128  0.2901590472040  0.6574588204044 1.0
C      1  0.3107736553945  0.4597362745000  0.5432151784875 1.0
C      1  0.4984034736062  0.8389681288646  0.4035386137004 1.0
C      1  0.4973249947156  0.2276998218805  0.6861831139027 1.0
C      1  0.5221010125375  0.4168661848894  0.5181453669828 1.0
C      1  0.2379116175351  0.3545562287735  0.6975156004708 1.0
C      1  0.4281673309820  0.7282933633519  0.2936817684672 1.0
C      1  0.3856033638594  0.4785306565073  0.5892961552979 1.0
C      1  0.7108390590432  0.4614612322799  0.7308721413204 1.0
C      1  0.6421949823545  0.6056278258266  0.7249221538430 1.0
C      1  0.4233051209326  0.6184645210715  0.2071453190038 1.0
C      1  0.2642451156237  0.3594674918331  0.2873304384257 1.0
C      1  0.6285623543498  0.7021638977418  0.3388057598329 1.0
C      1  0.4063262959309  0.4767692173769  0.6860494087843 1.0
C      1  0.5975733465750  0.3887017790444  0.3783484177449 1.0
C      1  0.2493589461240  0.4868564374022  0.4849801468416 1.0
C      1  0.2963027009384  0.7041322991390  0.5951561687589 1.0
C      1  0.5823448650836  0.2213867894912  0.4188341495399 1.0
C      1  0.7492886079867  0.6146492193359  0.4234001725075 1.0
C      1  0.6586847200958  0.1910223906786  0.4728741109438 1.0
C      1  0.7179481370500  0.5473350126808  0.2820196853757 1.0
C      1  0.2381840513834  0.6283336585149  0.5754252987387 1.0
C      1  0.7053488968124  0.6077920350372  0.4990380660589 1.0
C      1  0.5922599312582  0.4962752405659  0.1826355768748 1.0
C      1  0.6182905977033  0.4495704527264  0.5278383483545 1.0
C      1  0.4910589874422  0.3692045022175  0.1882030912551 1.0
C      1  0.7565254619403  0.4204987010174  0.4112309427876 1.0
C      1  0.4663440472717  0.5018087298277  0.5343924306902 1.0
C      1  0.5787268653943  0.6421872114552  0.2698691690356 1.0
C      1  0.2955030435828  0.6222688753062  0.4176573878135 1.0
C      1  0.4508773252246  0.2484314319462  0.6030121220427 1.0
C      1  0.6438570795463  0.2486177498348  0.3456543485881 1.0
C      1  0.7437168062918  0.4109244140320  0.6474171923523 1.0
C      1  0.7010036698771  0.3938224138938  0.2598668986393 1.0
C      1  0.4704570572579  0.5525018459472  0.7118508239396 1.0
C      1  0.6289010575403  0.3306870957551  0.2962731414942 1.0
C      1  0.2885793866421  0.2676571372889  0.2880785068354 1.0
C      1  0.5792200501793  0.3428165987231  0.2068724877316 1.0
C      1  0.7716101121619  0.5657366409015  0.6312053999047 1.0
C      1  0.6929041127425  0.7157606582929  0.6207807162823 1.0
C      1  0.5210058328344  0.3135740524624  0.5534237896620 1.0
C      1  0.2415233691438  0.5864941923877  0.4919237247735 1.0
C      1  0.6954564273618  0.2597629191141  0.6067796589588 1.0
C      1  0.6394171303361  0.4098253354631  0.6251236845215 1.0
C      1  0.3637509677929  0.2500997866498  0.2484261832089 1.0
C      1  0.4982380249549  0.8408882148521  0.5651701127291 1.0
C      1  0.5076496111816  0.3838292894141  0.4208237380534 1.0
C      1  0.2482084123737  0.5155550614048  0.7206528715916 1.0
C      1  0.4925816989539  0.6738081458016  0.2385107359536 1.0
END
