TITL C-110299-7004-3 -8.395 3375.00 -1470.80193223 0 0 177 (C1) n - 1
REM
REM Run started: at 2021.01.08 10:41:27 in /rds/project/t2_vol4/rds-t2-cs072/BORA/CARBON/AIRSS/Generating-Clusters/Str-Search/Only-C1/C100-200
REM VASP from code version vasp.5.4.4.18Apr17-6-g9f103f2a35 (build Oct 11 2019 16:45:47) gamma-only
REM
REM
REM
REM
REM ./C.cell (efaf0b2bf1589a83377268d7ebe2c73f)
REM AIRSS Version 0.9.1 bugfix July 2018 build 013d7b7c2542+ Fri, 06 Jul 2018 19:26:36 +0100
REM compiler GCC version 4.8.5 20150623 (Red Hat 4.8.5-39)
REM options -cpp -mtune=generic -march=x86-64 -g -O0
REM seed 1685664660 1239292172 1880976091 15791840 669705313 -461405170 -1564327955 -820394216 1269369604 -27075531 -1118919894 1086207741
REM
REM C.POTCAR (d86ddea03c3ceb6dc662c8ad6801f873)
REM 
CELL 1.54180   15.00000   15.00000   15.00000   90.00000   90.00000   90.00000
LATT -1
SFAC C  
C      1  0.3353339238454  0.1328586358027  0.5632622100579 1.0
C      1  0.5525663639691  0.4796458263425  0.4417327799303 1.0
C      1  0.3860068839777  0.5204561602068  0.8464693766708 1.0
C      1  0.2654338225924  0.2784670430303  0.3131653036370 1.0
C      1  0.7697707826014  0.7052493034868  0.4811442208866 1.0
C      1  0.7504045006779  0.5187875945692  0.7995516148517 1.0
C      1  0.5982033195945  0.3454887943532  0.5165450431271 1.0
C      1  0.2400067547202  0.3505922145575  0.4684526345766 1.0
C      1  0.5034552072822  0.2111300918702  0.7747751029268 1.0
C      1  0.3981389010929  0.7708539707565  0.4608650995922 1.0
C      1  0.7101757388213  0.2672518982612  0.6372616632188 1.0
C      1  0.8666286073159  0.4052014615948  0.5293058846613 1.0
C      1  0.5314156088568  0.8115851598119  0.6771032758361 1.0
C      1  0.5155265300823  0.5026976677295  0.7645485958827 1.0
C      1  0.2259208155848  0.6115543808957  0.7169453288219 1.0
C      1  0.4072624183249  0.7967568012733  0.1898793517901 1.0
C      1  0.8006456282658  0.4570916831167  0.4277828998717 1.0
C      1  0.5406277252370  0.4641617596622  0.6748174576136 1.0
C      1  0.7452006510818  0.4360428324079  0.6218245920784 1.0
C      1  0.8014665195423  0.2833684678411  0.4070836180979 1.0
C      1  0.5463716377745  0.0936686021936  0.5689502963496 1.0
C      1  0.1409772803815  0.5306404569738  0.4948801766293 1.0
C      1  0.6159266360860  0.8267266470891  0.6309575215395 1.0
C      1  0.2522327564544  0.4290673916785  0.8165885958572 1.0
C      1  0.2913880897393  0.5146385943651  0.8414586786654 1.0
C      1  0.5471177515119  0.5490310214429  0.2615502868366 1.0
C      1  0.6960488220517  0.5039946840557  0.5920765839694 1.0
C      1  0.7356366450392  0.6859533333989  0.6869549074076 1.0
C      1  0.8653936723887  0.4998466244058  0.6716652043663 1.0
C      1  0.4922420495520  0.4212190149084  0.1877055633501 1.0
C      1  0.2144757483442  0.7321981956483  0.6142351653214 1.0
C      1  0.2282014823124  0.6290062430161  0.2353513663929 1.0
C      1  0.7057804137536  0.1566126868179  0.4799869464324 1.0
C      1  0.4517962088435  0.1201034421754  0.4397105961424 1.0
C      1  0.4418033499257  0.7131871451087  0.1463002984648 1.0
C      1  0.1744220840285  0.6550210161441  0.5735270804434 1.0
C      1  0.7084042854888  0.5916494803351  0.2745256844116 1.0
C      1  0.5208645793787  0.3230060320626  0.3775653070528 1.0
C      1  0.4175844787980  0.3575473520105  0.1886879585107 1.0
C      1  0.7287123391452  0.2288495088685  0.5454835724564 1.0
C      1  0.1747684866022  0.6307423568323  0.3207392534074 1.0
C      1  0.6335544075210  0.1658479041089  0.3465911823654 1.0
C      1  0.6695785411350  0.5660737419446  0.7948320944066 1.0
C      1  0.7269639310368  0.4284774296532  0.8265526998937 1.0
C      1  0.5224942161878  0.7043084820432  0.1095098516820 1.0
C      1  0.6642122941686  0.2993287048558  0.5536013569711 1.0
C      1  0.3123231806582  0.4884336287076  0.1700335960675 1.0
C      1  0.8171571869209  0.5462037652400  0.7401948904199 1.0
C      1  0.4527126195446  0.8000082237612  0.6256893471710 1.0
C      1  0.8097660685787  0.6288345267479  0.6838505775168 1.0
C      1  0.5117074014287  0.3522961840928  0.5594859398784 1.0
C      1  0.8565312093251  0.4999131693885  0.2323701762793 1.0
C      1  0.4462378129313  0.5964476511971  0.5865308605139 1.0
C      1  0.4066267392729  0.3593621534907  0.6753651358607 1.0
C      1  0.7944520090703  0.6283239546335  0.3093949778618 1.0
C      1  0.5382456297772  0.1076424899187  0.4760069755121 1.0
C      1  0.6146328100590  0.8734078021603  0.5510803981503 1.0
C      1  0.4574018865725  0.2799443515458  0.4281990886437 1.0
C      1  0.4131784983673  0.6116200995860  0.8135508273972 1.0
C      1  0.7646716037215  0.2858311626508  0.3140538905789 1.0
C      1  0.5819198434411  0.3807057301421  0.4253112648870 1.0
C      1  0.2952040908649  0.6874942865764  0.1963780374387 1.0
C      1  0.2896186268539  0.2174992377972  0.7069695636243 1.0
C      1  0.1800156621567  0.4868618213872  0.2623809200813 1.0
C      1  0.7637998016201  0.3541898121595  0.6738771917650 1.0
C      1  0.3201911416953  0.1878337234986  0.4102592475252 1.0
C      1  0.3117856497537  0.7820924638689  0.2073625884415 1.0
C      1  0.8117386804976  0.6739492521087  0.3922498909933 1.0
C      1  0.6538265828320  0.2341966855882  0.7138071864330 1.0
C      1  0.5988984285547  0.5062008588422  0.8185849895688 1.0
C      1  0.3255144137427  0.4911338140174  0.3387882905204 1.0
C      1  0.5885176108829  0.3376937290465  0.8268615506086 1.0
C      1  0.5051289270647  0.6029964755955  0.5049681907854 1.0
C      1  0.4249230687161  0.1995151221340  0.3834223390640 1.0
C      1  0.6946495469359  0.2204714371264  0.2975495228725 1.0
C      1  0.6632257781197  0.2946809452051  0.7825578224275 1.0
C      1  0.3202693338153  0.7356705074816  0.7331566515580 1.0
C      1  0.2443696066375  0.4301630865261  0.3105680877726 1.0
C      1  0.3744436418316  0.6466585723334  0.1659948049865 1.0
C      1  0.3384221703326  0.6673511516432  0.7989435119911 1.0
C      1  0.4862230871935  0.5157993722008  0.1849839104757 1.0
C      1  0.3084150775854  0.3597574992150  0.6354048785483 1.0
C      1  0.3842430760304  0.5427271456715  0.2922243122624 1.0
C      1  0.8720192054804  0.4902115408257  0.4870775612470 1.0
C      1  0.6826408214177  0.5542972537527  0.4983540229124 1.0
C      1  0.6014164959680  0.7090939327582  0.0752695341642 1.0
C      1  0.3216616779984  0.4863625367577  0.5205267117172 1.0
C      1  0.4741459220084  0.7889850183319  0.5250318064812 1.0
C      1  0.8416979028221  0.4114185701767  0.6264477808288 1.0
C      1  0.2376960593789  0.7564423939344  0.4187067990272 1.0
C      1  0.4475045212356  0.2798475697002  0.2372957773555 1.0
C      1  0.1904030166697  0.5712900209206  0.6305062602744 1.0
C      1  0.1466253308199  0.4901685123329  0.4132095748857 1.0
C      1  0.6892245879458  0.8468977513856  0.4952180704404 1.0
C      1  0.7798836328014  0.4429006849393  0.2372092991604 1.0
C      1  0.3915577344245  0.5500427696441  0.1877389507105 1.0
C      1  0.2587845556497  0.8312753702089  0.2648691074632 1.0
C      1  0.1753063619707  0.4887954454345  0.5762288511289 1.0
C      1  0.6027042306037  0.5195872539318  0.6189178563206 1.0
C      1  0.6325772382560  0.8147195103688  0.4214220269142 1.0
C      1  0.3276550512478  0.3926587989840  0.1874276051979 1.0
C      1  0.3104229566387  0.7723083286802  0.4874521156728 1.0
C      1  0.2730635408191  0.3071940029470  0.7184032941737 1.0
C      1  0.4851332565229  0.5461328930183  0.4231839896531 1.0
C      1  0.8519734243401  0.6522730116594  0.4715222485562 1.0
C      1  0.6942424693086  0.7553573664138  0.6201489981826 1.0
C      1  0.3404097457573  0.1727682440073  0.7727741779959 1.0
C      1  0.3132356982737  0.1957977975347  0.3073815561929 1.0
C      1  0.4573581849960  0.8389882002065  0.2517940199205 1.0
C      1  0.1013412920586  0.4276549485425  0.7230324537258 1.0
C      1  0.7446047417179  0.7859916889565  0.5349864672911 1.0
C      1  0.5474796966687  0.7030055173544  0.5076574177069 1.0
C      1  0.4401219555706  0.7510010704605  0.3746080530833 1.0
C      1  0.2663156576636  0.5975261056956  0.8050405110765 1.0
C      1  0.8603706606091  0.5752327803528  0.2675013560295 1.0
C      1  0.5647357579497  0.3890294604632  0.2376848568894 1.0
C      1  0.2320165634465  0.5368147406727  0.2014800303235 1.0
C      1  0.1433726512775  0.5396482091339  0.3307599151272 1.0
C      1  0.7372637071257  0.3562004289221  0.7708217473051 1.0
C      1  0.6239980602658  0.1328876903437  0.4326196334170 1.0
C      1  0.2738716368192  0.3535244146258  0.2604161610466 1.0
C      1  0.3075986219418  0.4804140435175  0.4303077376705 1.0
C      1  0.6829108416307  0.6557075989423  0.4921747841671 1.0
C      1  0.6173540480001  0.6218461674265  0.2828011910610 1.0
C      1  0.6046913089982  0.7185480633888  0.7846066641936 1.0
C      1  0.4121841446449  0.3623758782636  0.7845172356137 1.0
C      1  0.6124092294608  0.4664576659911  0.2794255075898 1.0
C      1  0.3608789691770  0.1246415100634  0.4777820360093 1.0
C      1  0.5832825408463  0.5336448682677  0.5196010379539 1.0
C      1  0.7142773456720  0.4911764215825  0.4254270197452 1.0
C      1  0.3075349419785  0.3558438274607  0.7983510989085 1.0
C      1  0.4664591974464  0.5782307434600  0.3340618015081 1.0
C      1  0.5949181233944  0.6217678393394  0.6495478005125 1.0
C      1  0.5743473509331  0.1813379811999  0.7158526744396 1.0
C      1  0.7804738415843  0.2086509509360  0.4645751478737 1.0
C      1  0.7712074459403  0.3552227557136  0.2579948733056 1.0
C      1  0.5385164786564  0.3016928730508  0.2781319990988 1.0
C      1  0.2180628938627  0.4236650909055  0.4069051840926 1.0
C      1  0.2435542035771  0.8073389610961  0.3441250673096 1.0
C      1  0.4944176865292  0.6240059874482  0.6609258404082 1.0
C      1  0.4876615950163  0.8327167675165  0.3348130870062 1.0
C      1  0.4909009347631  0.3966373153903  0.6397170901985 1.0
C      1  0.5578704264911  0.1215503430096  0.6455067445811 1.0
C      1  0.1664634102887  0.4256785482388  0.7763424117551 1.0
C      1  0.4390636544857  0.4557909373066  0.8091515487819 1.0
C      1  0.2336360397457  0.7094277448676  0.7019255961167 1.0
C      1  0.3739401558629  0.2897637901133  0.5987043270684 1.0
C      1  0.6329294913715  0.4533407006521  0.3814121947520 1.0
C      1  0.1536636323466  0.6281944580424  0.4879441169425 1.0
C      1  0.8238082289880  0.3628849103284  0.4480842954042 1.0
C      1  0.4419163419187  0.3045624949065  0.5228651427608 1.0
C      1  0.4831433525887  0.6761624897915  0.3420989738963 1.0
C      1  0.5015461246094  0.3027005773687  0.8088411877638 1.0
C      1  0.6148633182665  0.7135815779044  0.4272518335672 1.0
C      1  0.5800945111110  0.6815190631728  0.3395541180250 1.0
C      1  0.6301600935938  0.4244093066282  0.8490021905745 1.0
C      1  0.1827362168382  0.6757927751814  0.4072024806773 1.0
C      1  0.3559114140968  0.5559337164984  0.5847451893166 1.0
C      1  0.4224264601088  0.1653386938046  0.7820286572954 1.0
C      1  0.6812910772107  0.7175544661906  0.0419315940992 1.0
C      1  0.5500104531001  0.7764510184750  0.7632696000522 1.0
C      1  0.5539640286239  0.8676204683375  0.3966078554764 1.0
C      1  0.3285531203284  0.2014367920711  0.6177628505754 1.0
C      1  0.4756544006997  0.5949838723766  0.7502613710797 1.0
C      1  0.2890339513839  0.5780264915853  0.6426822623397 1.0
C      1  0.4043771915731  0.2122363330532  0.2850245125046 1.0
C      1  0.2650722841501  0.2756047449561  0.4170374299085 1.0
C      1  0.2944949153565  0.7746618514835  0.5820518310890 1.0
C      1  0.8700834314958  0.5813077911671  0.6183646528706 1.0
C      1  0.6263666699367  0.6858350948343  0.5743232282052 1.0
C      1  0.2571402111440  0.4144490121977  0.5618324421800 1.0
C      1  0.7025101968142  0.5015114991378  0.2457756352472 1.0
C      1  0.8778444531718  0.5786797749934  0.5248895298627 1.0
C      1  0.3618343276067  0.7788037550974  0.6523022746901 1.0
C      1  0.6050752185577  0.2272986688705  0.2806969485337 1.0
C      1  0.6544573123880  0.6468690342683  0.7377943887236 1.0
C      1  0.5374550406623  0.8638826247564  0.4914442850805 1.0
END
