TITL C-111988-9027-4 -8.948 3375.00 -1543.39076291 0 0 187 (C1) n - 1
REM
REM Run started: at 2021.01.08 17:31:13 in /rds/project/t2_vol4/rds-t2-cs072/BORA/CARBON/AIRSS/Generating-Clusters/Str-Search/Only-C1/C100-200
REM VASP from code version vasp.5.4.4.18Apr17-6-g9f103f2a35 (build Oct 11 2019 16:45:47) gamma-only
REM
REM
REM
REM
REM ./C.cell (efaf0b2bf1589a83377268d7ebe2c73f)
REM AIRSS Version 0.9.1 bugfix July 2018 build 013d7b7c2542+ Fri, 06 Jul 2018 19:26:36 +0100
REM compiler GCC version 4.8.5 20150623 (Red Hat 4.8.5-39)
REM options -cpp -mtune=generic -march=x86-64 -g -O0
REM seed 1473722903 1217162807 334399397 989193516 1939363845 -1336351061 -1136819272 1996622667 -1866617250 68019860 -1201271734 -1285826759
REM
REM C.POTCAR (d86ddea03c3ceb6dc662c8ad6801f873)
REM 
CELL 1.54180   15.00000   15.00000   15.00000   90.00000   90.00000   90.00000
LATT -1
SFAC C  
C      1  0.2756785737596  0.6147892986876  0.3217892960001 1.0
C      1  0.6294733963869  0.7014628798255  0.7123753073251 1.0
C      1  0.3687584185320  0.4324519121363  0.8433141889190 1.0
C      1  0.6168819901420  0.4044216508374  0.4240236665136 1.0
C      1  0.2791629439748  0.7163540246455  0.7073159544023 1.0
C      1  0.5598887457740  0.7533255952678  0.3717188916386 1.0
C      1  0.5104408514857  0.5250186081643  0.1207323252506 1.0
C      1  0.5044182005240  0.6204523806109  0.6269495815245 1.0
C      1  0.6777109356954  0.3338757112826  0.4724073246188 1.0
C      1  0.5644954133178  0.3735190872583  0.1879451053567 1.0
C      1  0.9564399901047  0.4151239623398  0.5543408571966 1.0
C      1  0.2734004535930  0.7028754742939  0.4641769766650 1.0
C      1  0.3816313122525  0.2924876572074  0.4697640760588 1.0
C      1  0.3705225305517  0.3264240377834  0.5604528312046 1.0
C      1  0.6571683937879  0.7531448737759  0.3688432210901 1.0
C      1  0.6896062676072  0.8533972760990  0.2464975583341 1.0
C      1  0.2236889960274  0.2923540311921  0.4293892008690 1.0
C      1  0.5209904099507  0.6992245519273  0.6945020618654 1.0
C      1  0.6624763799956  0.6403674671996  0.6341202630938 1.0
C      1  0.6349852348122  0.4678362402723  0.7589404923034 1.0
C      1  0.2858375586709  0.1534617903509  0.4987292047413 1.0
C      1  0.4865123987770  0.2604999303823  0.8362789642407 1.0
C      1  0.4508993657159  0.4773180433990  0.4385568035547 1.0
C      1  0.4383229222464  0.5785731796952  0.0692178624497 1.0
C      1  0.4837079429793  0.5239417717970  0.6548807795606 1.0
C      1  0.2063565224198  0.2607245308859  0.6719983449405 1.0
C      1  0.2626013707583  0.3302705927226  0.7948360568732 1.0
C      1  0.6004300009219  0.9159710061196  0.5962905727509 1.0
C      1  0.1872068072883  0.3219778754634  0.3514694586859 1.0
C      1  0.6038226177071  0.2001189686083  0.6825789598406 1.0
C      1  0.6055257286068  0.6239257581815  0.4346364545387 1.0
C      1  0.5717550993587  0.9819652786145  0.5383947115874 1.0
C      1  0.4613015629224  0.5668475564701  0.8520045694874 1.0
C      1  0.4169148345498  0.4016929954801  0.1362488895229 1.0
C      1  0.6043709430102  0.4246747151453  0.5887303480219 1.0
C      1  0.5358219589264  0.1854218858574  0.8062281414172 1.0
C      1  0.7753102722877  0.6200554908499  0.4227006009979 1.0
C      1  0.5406404982444  0.4619997477338  0.8901978344269 1.0
C      1  0.3470972523787  0.5508687711984  0.0931604771704 1.0
C      1  0.6444654878592  0.5276328994574  0.1656798264415 1.0
C      1  0.3116053130212  0.4793994399866  0.7819661510638 1.0
C      1  0.5899308995029  0.7593039941838  0.1458423408869 1.0
C      1  0.6169669985724  0.3539173876287  0.2652968869052 1.0
C      1  0.8173743060046  0.3057052949272  0.6790084049605 1.0
C      1  0.8129851457202  0.2252528658479  0.5405872985787 1.0
C      1  0.3266654775442  0.7965032879450  0.4566555397255 1.0
C      1  0.3363865225195  0.2703298745196  0.2785434694109 1.0
C      1  0.7238226710006  0.5276253987436  0.2230481545963 1.0
C      1  0.1269477834140  0.4007479416059  0.3545399613102 1.0
C      1  0.6400799624655  0.4727470572644  0.5029962988277 1.0
C      1  0.2560165665994  0.5728279827617  0.2305469494711 1.0
C      1  0.1116050170742  0.5947320616057  0.5105760056420 1.0
C      1  0.4061585762311  0.6154802274487  0.7945790681559 1.0
C      1  0.5340163357067  0.3646435526943  0.5408067263797 1.0
C      1  0.4845427887095  0.9701470620711  0.4050453590447 1.0
C      1  0.5758094480175  0.2324292335895  0.3632462570984 1.0
C      1  0.3035845409387  0.4784082994980  0.2269000809610 1.0
C      1  0.3040806985162  0.6169447003524  0.1497314548137 1.0
C      1  0.1812492573082  0.5751575472065  0.6674548148819 1.0
C      1  0.5170925371677  0.1544005187474  0.7154653169214 1.0
C      1  0.3743751455821  0.1198264411873  0.5147691630082 1.0
C      1  0.6603152231070  0.1377084398851  0.4909006516225 1.0
C      1  0.4153687028700  0.9138423624095  0.5473312892122 1.0
C      1  0.4300234722732  0.1636939414631  0.6790231690946 1.0
C      1  0.3990591030770  0.4872174291716  0.2689152097745 1.0
C      1  0.4442109302891  0.4872514284756  0.1874552499511 1.0
C      1  0.4520681597392  0.3140553171185  0.4147019323616 1.0
C      1  0.6355827999574  0.8152759556285  0.1899987116491 1.0
C      1  0.3269834519540  0.5693913643733  0.7639708245946 1.0
C      1  0.3585173670139  0.2082840553002  0.7440394181438 1.0
C      1  0.7668222046096  0.7722063437468  0.6872112621316 1.0
C      1  0.4871331346521  0.9024248556707  0.3419754849556 1.0
C      1  0.8673832988725  0.5791420363629  0.2627751474114 1.0
C      1  0.6866593375703  0.6704730229254  0.4058193460554 1.0
C      1  0.1536704824909  0.5413431894512  0.2417174419979 1.0
C      1  0.5535387391233  0.3267640929802  0.7939561554836 1.0
C      1  0.4802171082388  0.2475276302060  0.3377248429316 1.0
C      1  0.3972557227924  0.2639213281123  0.8162932426961 1.0
C      1  0.1406793229249  0.4024630108537  0.5232040476845 1.0
C      1  0.7364696209717  0.2665636203105  0.3301742533843 1.0
C      1  0.4427258047018  0.4775715068403  0.8783559077258 1.0
C      1  0.3644204392824  0.7594016895912  0.7306801946343 1.0
C      1  0.6363819925133  0.3526850903011  0.6561738735418 1.0
C      1  0.8642701779888  0.5499793353858  0.7186857542292 1.0
C      1  0.1566803228106  0.6223381116578  0.5871557639783 1.0
C      1  0.7059238034881  0.4937900106615  0.3149865568803 1.0
C      1  0.5119286180888  0.3923344600578  0.4449462655765 1.0
C      1  0.8907364267549  0.3168294470412  0.3362097298157 1.0
C      1  0.2698916834229  0.2477454071032  0.7409180871404 1.0
C      1  0.4383413770126  0.8882564063997  0.6389952233763 1.0
C      1  0.1588926491883  0.4530924855965  0.2841678291223 1.0
C      1  0.6372264926754  0.6503921478564  0.7955575442199 1.0
C      1  0.6457320989192  0.4219753988992  0.3289352820296 1.0
C      1  0.9134916137940  0.3398451201994  0.4231790977977 1.0
C      1  0.8263152142254  0.3116481980207  0.4763886268483 1.0
C      1  0.7502066525622  0.6365529974843  0.5971631655716 1.0
C      1  0.1403461081061  0.6105821430668  0.4202249156573 1.0
C      1  0.6301333205026  0.6386703468002  0.8892121031406 1.0
C      1  0.2813928682177  0.3468202046975  0.5755932374374 1.0
C      1  0.6273433695637  0.2615144272430  0.6187679777978 1.0
C      1  0.8548878481131  0.7590519751022  0.3941773231773 1.0
C      1  0.3670565618216  0.8418391484289  0.6772624777802 1.0
C      1  0.2998725798956  0.2305496373613  0.4326140988089 1.0
C      1  0.5069785372468  0.9894722130078  0.3139447339925 1.0
C      1  0.9126414924030  0.6248529783223  0.3209287776583 1.0
C      1  0.5457688253924  0.6823508814414  0.1294879782037 1.0
C      1  0.3489138573900  0.5738730838817  0.5303054609840 1.0
C      1  0.3430092692270  0.3405145168489  0.8378813109874 1.0
C      1  0.0789323162368  0.4306260124803  0.4416703563649 1.0
C      1  0.6011705678921  0.5596622462316  0.5037020738847 1.0
C      1  0.1645684796643  0.4831047358702  0.6886827570673 1.0
C      1  0.3552503635684  0.6378346498803  0.4559706379974 1.0
C      1  0.6012620217585  0.2837187066245  0.5262749715015 1.0
C      1  0.6069023405538  0.2375174923500  0.7724900418618 1.0
C      1  0.4696108314790  0.3365023309793  0.1844682629522 1.0
C      1  0.5838324444110  0.4543052842650  0.1440602375872 1.0
C      1  0.8594351699384  0.6664870242349  0.3855094406090 1.0
C      1  0.6410626437271  0.2672722072262  0.3077694915280 1.0
C      1  0.5314883552786  0.8536528577728  0.6348243850813 1.0
C      1  0.8065369434769  0.6964666754490  0.6598150793042 1.0
C      1  0.8184885681354  0.2920931884673  0.2979015685007 1.0
C      1  0.4829554067856  0.9578002812910  0.4991983356062 1.0
C      1  0.3515916856041  0.5912612355691  0.3705282835708 1.0
C      1  0.2121221640724  0.3437700910818  0.5064810744301 1.0
C      1  0.7931881056847  0.3915283243367  0.7093697766931 1.0
C      1  0.9214337336438  0.4369472156407  0.6264559142620 1.0
C      1  0.7414337443259  0.4867086352488  0.4859327965674 1.0
C      1  0.9808822823333  0.3926461853958  0.4679393866872 1.0
C      1  0.0888731430396  0.5329702596185  0.4461959547876 1.0
C      1  0.4234526413867  0.1678197872557  0.3633369603306 1.0
C      1  0.5806762537270  0.5930921525264  0.1409357609955 1.0
C      1  0.8587228621152  0.6320455182460  0.7061792851132 1.0
C      1  0.2365958118460  0.6841774889811  0.5615180414887 1.0
C      1  0.7737083599686  0.5834342175449  0.5213078615928 1.0
C      1  0.8253825735306  0.2376228858879  0.6328016445733 1.0
C      1  0.1503366452261  0.4223467840363  0.6168277013913 1.0
C      1  0.3723749848524  0.6810160885393  0.1572015249009 1.0
C      1  0.2218296097956  0.3624861949824  0.6526538568815 1.0
C      1  0.2963659302214  0.8363471783200  0.6106943910193 1.0
C      1  0.2726140820176  0.6155464943703  0.6961309867814 1.0
C      1  0.5965668136081  0.0725237352179  0.5143501975461 1.0
C      1  0.3471227152436  0.4642708313609  0.1355296418398 1.0
C      1  0.7162268439488  0.8206967010327  0.3280322514049 1.0
C      1  0.5882213045675  0.4095360023535  0.8330245896809 1.0
C      1  0.5348304954590  0.3654396902365  0.6960712650122 1.0
C      1  0.2160603474418  0.1533363741225  0.5536007812738 1.0
C      1  0.4323225166577  0.2836539430956  0.2520157503944 1.0
C      1  0.4112609573321  0.5193930531171  0.3582563855800 1.0
C      1  0.4708959539591  0.6968946261778  0.5610616981925 1.0
C      1  0.3367057268194  0.2036600563528  0.3447407581689 1.0
C      1  0.8026679139248  0.8169805543113  0.3643350876879 1.0
C      1  0.2381666427122  0.4198801651842  0.7417558136465 1.0
C      1  0.7462237378280  0.1836173555193  0.4887483475503 1.0
C      1  0.5168911051326  0.1348227249087  0.5030536683487 1.0
C      1  0.6224337625329  0.5588972381342  0.7965093528910 1.0
C      1  0.4439761375779  0.6901742638617  0.4627154813478 1.0
C      1  0.7504309811164  0.5250516018468  0.3918877047156 1.0
C      1  0.6248937963719  0.8658404518088  0.6698854354058 1.0
C      1  0.7450073258002  0.2656842514212  0.4291229845172 1.0
C      1  0.3010335434352  0.6129262280733  0.5970089678709 1.0
C      1  0.1773729196002  0.1993772861683  0.6135305094829 1.0
C      1  0.0962947365351  0.5993234838917  0.2086228451753 1.0
C      1  0.4572149754285  0.3660786859321  0.6068871699072 1.0
C      1  0.4077870184857  0.5009908907543  0.5206892341906 1.0
C      1  0.5086018602514  0.7595612002270  0.6153379374082 1.0
C      1  0.4360125127051  0.4646347214243  0.6045388670300 1.0
C      1  0.5929696223736  0.6043100610580  0.5884473165683 1.0
C      1  0.6780505996331  0.7919237903501  0.6959401467530 1.0
C      1  0.4505879003974  0.6667865982701  0.1040835563547 1.0
C      1  0.7605355193246  0.3856730567356  0.5001576321784 1.0
C      1  0.2400218033328  0.4114369160937  0.2513055724537 1.0
C      1  0.5601546501611  0.5598427856571  0.8712623657995 1.0
C      1  0.2549450919012  0.3249376261842  0.2784858551423 1.0
C      1  0.2150429918838  0.6566349766113  0.3879432274173 1.0
C      1  0.4379786025118  0.1245674055182  0.4430533917519 1.0
C      1  0.5848881412161  0.2043527747828  0.4647957183254 1.0
C      1  0.3315978038916  0.8625540882689  0.5251645623655 1.0
C      1  0.5597351068522  0.4638755421999  0.6809671050481 1.0
C      1  0.5310703386693  0.6743234503947  0.4151750510991 1.0
C      1  0.8079851765870  0.5574448559523  0.2023397129649 1.0
C      1  0.4346243874390  0.7010416265546  0.7534841107352 1.0
C      1  0.4354329803283  0.1417787425799  0.5821498320593 1.0
C      1  0.7010518197371  0.4044814594913  0.7157909212680 1.0
C      1  0.4836460611667  0.8117155142901  0.3677528735826 1.0
C      1  0.2500409406312  0.7566303632390  0.6281776083131 1.0
C      1  0.8656947431710  0.4595002046161  0.6971253341018 1.0
C      1  0.4141578446619  0.7766727411361  0.4201459141618 1.0
END
