TITL C-114584-5578-3 -11.422 3375.00 0 0 0 255 (C1) n - 1
REM
REM Run started: at 2020.03.10 23:58:41 in /rds/user/bk393/hpc-work/AIRSS.pl-DENE/CARBON/New-Try
REM VASP from code version vasp.5.4.4.18Apr17-6-g9f103f2a35 (build Oct 11 2019 16:45:47) gamma-only
REM
REM
REM
REM
REM ./C.cell (67df479faaa1345d4e7bfe0367c0c0c2)
REM AIRSS Version 0.9.1 bugfix July 2018 build 013d7b7c2542+ Fri, 06 Jul 2018 19:26:36 +0100
REM compiler GCC version 4.8.5 20150623 (Red Hat 4.8.5-39)
REM options -cpp -mtune=generic -march=x86-64 -g -O0
REM seed 2085052587 317090612 373325976 -1591647275 -185926439 384076830 -2132227608 -1475467367 -2080935388 -1760137456 1680356711 1878332128
REM
REM C.POTCAR (d86ddea03c3ceb6dc662c8ad6801f873)
REM 
CELL 1.54180   15.00000   15.00000   15.00000   90.00000   90.00000   90.00000
LATT -1
SFAC C  
C      1  0.6227079388489  0.6336038598566  0.5677631950608 1.0
C      1  0.3253703494558  0.4312488372209  0.8961750073615 1.0
C      1  0.4808906110848  0.0902701240123  0.7646376319212 1.0
C      1  0.8908570190409  0.5046430570034  0.3011154903245 1.0
C      1  0.4711229439148  0.3620784265437  0.7043278267256 1.0
C      1  0.7997630747450  0.7293884603990  0.8169083726321 1.0
C      1  0.2773556487304  0.4826868153753  0.5082281896247 1.0
C      1  0.6821110885887  0.9317700203912  0.4003720453100 1.0
C      1  0.9180518162058  0.3384925961711  0.3701099091104 1.0
C      1  0.4099650963232  0.3063671200689  0.1159602614171 1.0
C      1  0.4353595383133  0.6651866187452  0.6207063192386 1.0
C      1  0.5003683100199  0.3494081613581  0.1047283492128 1.0
C      1  0.5123640507226  0.6375444917039  0.7534977804559 1.0
C      1  0.8124806997323  0.3398703196489  0.6871346574080 1.0
C      1  0.3451609343610  0.2587832088733  0.3995747308527 1.0
C      1  0.5329734779255  0.5867948666964  0.4757224977789 1.0
C      1  0.7746410600060  0.6817061793649  0.1975005507574 1.0
C      1  0.5481156971007  0.6718596594838  0.4269667993607 1.0
C      1  0.3357414013306  0.4590241860237  0.2104904104384 1.0
C      1  0.8564027292156  0.7452490123716  0.6151449072833 1.0
C      1  0.5733664923906  0.4159175340460  0.4904430695725 1.0
C      1  0.3633055931239  0.4960639300948  0.9606116411383 1.0
C      1  0.6165864336055  0.3803629335788  0.4009030199257 1.0
C      1  0.8007109865020  0.8071652195374  0.6668677478878 1.0
C      1  0.1521318111550  0.2080298443318  0.4855907414862 1.0
C      1  0.3798385128364  0.6480454753932  0.1031815609659 1.0
C      1  0.6047826863766  0.2833339099581  0.3852734340288 1.0
C      1  0.8309223528529  0.1547387664083  0.5251381486626 1.0
C      1  0.6383259256026  0.4586295190114  0.1038589085650 1.0
C      1  0.3310344070759  0.4030215631070  0.2891631820351 1.0
C      1  0.1666397768766  0.2932336298368  0.3374127979780 1.0
C      1  0.3869567479791  0.6760809206803  0.4454786312888 1.0
C      1  0.1340348954242  0.3941508165206  0.5193454547120 1.0
C      1  0.5148290612016  0.4710291063764  0.8911028942787 1.0
C      1  0.1842532342729  0.6360582277968  0.4958058534633 1.0
C      1  0.5062961720097  0.2501762165220  0.3798975090453 1.0
C      1  0.4871210517154  0.5224295625155  0.6330147500345 1.0
C      1  0.5725904959853  0.7986447032967  0.5291749462896 1.0
C      1  0.7079215377914  0.7001785747969  0.4440256837999 1.0
C      1  0.7597838388359  0.8970904131227  0.5329873011182 1.0
C      1  0.7328519349878  0.8379633411882  0.2658614103208 1.0
C      1  0.1422829147767  0.2270135608174  0.5740993580158 1.0
C      1  0.5886714069642  0.2666492123231  0.5806547355472 1.0
C      1  0.3052518843286  0.3119179550955  0.5606506900750 1.0
C      1  0.7133550461730  0.3063901547646  0.5125627646750 1.0
C      1  0.3300688321512  0.1664708703125  0.3765286845829 1.0
C      1  0.6840916442421  0.9396867849657  0.4927022685812 1.0
C      1  0.7054078387928  0.4203766680995  0.4020270187475 1.0
C      1  0.6320020569054  0.5674958191905  0.4888785350943 1.0
C      1  0.4971958366184  0.5301121900136  0.1224315227318 1.0
C      1  0.9097244993389  0.6092146357436  0.5658049698496 1.0
C      1  0.1957566196841  0.7886759053166  0.2799894785846 1.0
C      1  0.4169550032641  0.8321883023314  0.5654351604529 1.0
C      1  0.2014540917615  0.4496940154290  0.5717610447588 1.0
C      1  0.7062784689692  0.8953746896414  0.3282681058130 1.0
C      1  0.5953380904248  0.5579171682996  0.2745526597402 1.0
C      1  0.4645502943403  0.5271884340903  0.4435888552696 1.0
C      1  0.2124403462729  0.6267945306842  0.1343338827395 1.0
C      1  0.6318845364259  0.7338424283033  0.8332692945478 1.0
C      1  0.7820141902445  0.4936643950716  0.6241877945898 1.0
C      1  0.8163964653122  0.4073492449934  0.8418723984297 1.0
C      1  0.5936288529049  0.6113019892666  0.9104172881807 1.0
C      1  0.3356931583104  0.1414010368085  0.2911923696177 1.0
C      1  0.8149197649191  0.6371153364376  0.8285632118324 1.0
C      1  0.3128606385997  0.3757310849892  0.6960193242010 1.0
C      1  0.3482937895614  0.8602741862783  0.2920625519064 1.0
C      1  0.1176560141608  0.5136845773709  0.7762053320865 1.0
C      1  0.0862262228790  0.5724815341243  0.3337189579485 1.0
C      1  0.0909662782999  0.6633253280380  0.5320122290046 1.0
C      1  0.1409471234508  0.3963771918765  0.2486274930521 1.0
C      1  0.4119110622305  0.1095749817687  0.3575677203487 1.0
C      1  0.3204838218033  0.4344909019675  0.1221661822884 1.0
C      1  0.4817345025371  0.8597606247169  0.6353668656549 1.0
C      1  0.6901034725236  0.3783412341057  0.1249194666154 1.0
C      1  0.1319750047460  0.8327450158537  0.4353723211689 1.0
C      1  0.5459497995224  0.3055407166632  0.8808010732395 1.0
C      1  0.2402313047983  0.3614676817499  0.6166264914428 1.0
C      1  0.8342374655014  0.5350105945363  0.2252037271682 1.0
C      1  0.3868553644613  0.9590636305637  0.4419820371817 1.0
C      1  0.7916743790490  0.3270092470263  0.7893071328859 1.0
C      1  0.3409716240242  0.2228448907356  0.2289251575878 1.0
C      1  0.5996116402831  0.8263580488013  0.7037124583476 1.0
C      1  0.8071505179148  0.8308648641849  0.4881428470059 1.0
C      1  0.1398316054894  0.4863029221784  0.6528060643943 1.0
C      1  0.3356635210945  0.5575737803592  0.5451015169698 1.0
C      1  0.8741431537207  0.7711691499371  0.5234636996399 1.0
C      1  0.6085069037491  0.9554805494259  0.5559291558475 1.0
C      1  0.7436346260157  0.1749919072557  0.6104720535655 1.0
C      1  0.6825839940484  0.6076020090826  0.4080623871339 1.0
C      1  0.1840802165961  0.2865188848419  0.7826608546042 1.0
C      1  0.3637544664299  0.3062161390823  0.3049038591008 1.0
C      1  0.1371168635769  0.8246513863184  0.5297449992513 1.0
C      1  0.3937408094556  0.5657056813687  0.6297387787864 1.0
C      1  0.2853391413862  0.8025803314186  0.2472252383168 1.0
C      1  0.4831459197012  0.3741025865366  0.9046462822445 1.0
C      1  0.3263893083983  0.7078049374305  0.5074770809785 1.0
C      1  0.6151943865913  0.6606843102908  0.1757711695307 1.0
C      1  0.3543896395488  0.5489815499643  0.2376142891376 1.0
C      1  0.4333367465562  0.2676065826371  0.4483853132411 1.0
C      1  0.2919059431502  0.6332488851664  0.7284804914603 1.0
C      1  0.7614218357946  0.7852930833129  0.7530464742560 1.0
C      1  0.4755478609452  0.7036250786725  0.7012807424759 1.0
C      1  0.7010452278924  0.3065135180743  0.7759233467812 1.0
C      1  0.5224875533588  0.2181278357626  0.8694374446590 1.0
C      1  0.9121708776751  0.6425600275095  0.3998202694121 1.0
C      1  0.2570266612075  0.6101771828677  0.3622512610331 1.0
C      1  0.6220995362255  0.7173545634833  0.4957385047391 1.0
C      1  0.5527184298212  0.1558394858108  0.2534563337605 1.0
C      1  0.7696757827918  0.4372721640332  0.9153539482430 1.0
C      1  0.6646303258199  0.7961996983319  0.7643007200458 1.0
C      1  0.3187740615908  0.3364523364024  0.1246685996543 1.0
C      1  0.7186879555401  0.1700917495058  0.2965642435244 1.0
C      1  0.1950774719142  0.6624490263803  0.4062027637743 1.0
C      1  0.4830573694975  0.6681239799724  0.2297555805191 1.0
C      1  0.8459815334347  0.6257323934795  0.2343350727915 1.0
C      1  0.6426728103817  0.1460229855947  0.2666246253137 1.0
C      1  0.6793017400644  0.5194781412268  0.2778545798354 1.0
C      1  0.4042669058495  0.0990160858092  0.5345665706770 1.0
C      1  0.7663925970318  0.8808968307921  0.6245050680159 1.0
C      1  0.8118781414070  0.5673317219375  0.7660416274749 1.0
C      1  0.6883820912075  0.2611526442410  0.5998042825175 1.0
C      1  0.2756824319048  0.6953909787806  0.6449478952999 1.0
C      1  0.1360142322571  0.4738367710197  0.2032094349701 1.0
C      1  0.5801935762370  0.7005716961371  0.2601064237625 1.0
C      1  0.4688112959697  0.0605268299091  0.6870497414119 1.0
C      1  0.1459497473579  0.3237281768369  0.5805405535852 1.0
C      1  0.2141604275409  0.6209051396365  0.7795731531799 1.0
C      1  0.8250438340407  0.3004045375611  0.3403402148154 1.0
C      1  0.4831004779688  0.4412389523343  0.4586344930280 1.0
C      1  0.5105528480028  0.2033857216131  0.1781995671017 1.0
C      1  0.4134968822566  0.5604711388036  0.0931996906747 1.0
C      1  0.2806082584738  0.3049031995657  0.4609967220637 1.0
C      1  0.4051095766312  0.0491570023851  0.4405463336999 1.0
C      1  0.5858448956002  0.1209819642557  0.5147835771814 1.0
C      1  0.4380851951533  0.8907791777619  0.2810583526088 1.0
C      1  0.3163765364780  0.1003217155732  0.5764423012029 1.0
C      1  0.1933335884978  0.3114460315729  0.2440335716349 1.0
C      1  0.7041921483513  0.3241733023762  0.6760737432458 1.0
C      1  0.1224562147677  0.3770017993407  0.3474922391541 1.0
C      1  0.8011888063175  0.4674136214013  0.5305355948187 1.0
C      1  0.6868766153966  0.2394911706056  0.4332576477802 1.0
C      1  0.5424192892783  0.5926876911259  0.1874727562510 1.0
C      1  0.4844133748296  0.7943769871155  0.4987767064451 1.0
C      1  0.1774163479814  0.2189337081437  0.7323445308247 1.0
C      1  0.3539924644763  0.4941651164072  0.0530973671012 1.0
C      1  0.4488378089436  0.5379746211272  0.9274295862783 1.0
C      1  0.2695797953706  0.6391085016751  0.5508150374359 1.0
C      1  0.1260214103628  0.4297025510742  0.7337091565429 1.0
C      1  0.3908928914698  0.3690654484795  0.8964991984778 1.0
C      1  0.7265519672453  0.4100807986986  0.4980775432909 1.0
C      1  0.4596751289823  0.3147323086221  0.3080378496408 1.0
C      1  0.7540917566632  0.3934792451030  0.2023229479392 1.0
C      1  0.4377900793209  0.2066447649851  0.5368421110498 1.0
C      1  0.6001873235474  0.6411109826033  0.3430491375548 1.0
C      1  0.0826454626307  0.5214548121887  0.4163516853450 1.0
C      1  0.1439255323122  0.6373745859107  0.1993642797662 1.0
C      1  0.6672103518377  0.6854787755061  0.9078339355354 1.0
C      1  0.7805340386821  0.7531537253136  0.4330190017227 1.0
C      1  0.4166433766254  0.7120979392443  0.1661316842611 1.0
C      1  0.8268525195394  0.4357236049017  0.6884735822130 1.0
C      1  0.4173960812985  0.3704233046777  0.4707329212149 1.0
C      1  0.8407688539615  0.1939297437567  0.6127533914059 1.0
C      1  0.5296547333694  0.5435262303196  0.7255797988202 1.0
C      1  0.6146700380386  0.5980289871413  0.7298427961680 1.0
C      1  0.1871940408177  0.3767116947273  0.7892847770874 1.0
C      1  0.3791886796523  0.5743824194508  0.4515630022198 1.0
C      1  0.8224248205989  0.4857086177454  0.3734283923650 1.0
C      1  0.6458704470370  0.2991772293481  0.1545455699475 1.0
C      1  0.5660537000977  0.3654882625484  0.5832611968148 1.0
C      1  0.3133311462330  0.6143117734435  0.2881129277950 1.0
C      1  0.3603868316068  0.9075238940850  0.5246271345809 1.0
C      1  0.3264893690911  0.7480940561714  0.1807643071685 1.0
C      1  0.2879843568981  0.6780364637392  0.1209743373094 1.0
C      1  0.3852827780314  0.9127155720768  0.3569795494810 1.0
C      1  0.4191449527383  0.2259747792027  0.1665239091397 1.0
C      1  0.1933487551213  0.2587856068186  0.4251709864679 1.0
C      1  0.7232579296283  0.5217408647424  0.3657335090349 1.0
C      1  0.1971489416236  0.8855287295512  0.5656690295789 1.0
C      1  0.2923683632921  0.5313624210835  0.4095217651019 1.0
C      1  0.5023759303685  0.1492862232888  0.8261169997621 1.0
C      1  0.9082017598009  0.5823344827605  0.4781261545046 1.0
C      1  0.7872014288739  0.3920914808856  0.3567571419323 1.0
C      1  0.4971912485083  0.1612849573821  0.3383738719960 1.0
C      1  0.5789274530090  0.8675370946860  0.6063243547118 1.0
C      1  0.6742964901228  0.5935371007427  0.6516006526029 1.0
C      1  0.4714343792037  0.0488901666987  0.5972485214098 1.0
C      1  0.1924589642753  0.5389324470608  0.8268362540021 1.0
C      1  0.3639590443424  0.7421320055991  0.5904215007568 1.0
C      1  0.6430799311961  0.4420156472471  0.8245784302129 1.0
C      1  0.1193734914583  0.7439483322462  0.5792045404627 1.0
C      1  0.2752865635010  0.9124249449970  0.5532620066843 1.0
C      1  0.6479133808399  0.4767685079472  0.5264685333399 1.0
C      1  0.1012467333362  0.5672113916228  0.6947259775664 1.0
C      1  0.7578196133838  0.7676055643146  0.2269100483697 1.0
C      1  0.4587461263952  0.7689637831441  0.8776518822187 1.0
C      1  0.5579528747802  0.3817609341003  0.7422832577664 1.0
C      1  0.9199157805244  0.4008211474318  0.2946087842552 1.0
C      1  0.2672771209198  0.2831550111245  0.1876807496341 1.0
C      1  0.5404961034922  0.4440621876094  0.1034117844598 1.0
C      1  0.1755081484857  0.7186900048504  0.6538584273346 1.0
C      1  0.4532922415813  0.8163228566693  0.8060125521933 1.0
C      1  0.6739885438778  0.4878062868120  0.6248276041923 1.0
C      1  0.4771193078742  0.4101028625932  0.6191101281583 1.0
C      1  0.6307333990687  0.3983469304365  0.6604299538615 1.0
C      1  0.7608392850673  0.6825347821305  0.8921005872215 1.0
C      1  0.0938682931200  0.5844464554124  0.4925986281431 1.0
C      1  0.1090716509231  0.5568451786644  0.2392640892106 1.0
C      1  0.6065334129098  0.5159592422912  0.9320750039350 1.0
C      1  0.8556288599722  0.6495274271278  0.6251872874634 1.0
C      1  0.1191660929601  0.6647584206073  0.3440501034884 1.0
C      1  0.9069942151186  0.6083481467592  0.3134340993536 1.0
C      1  0.8510284962037  0.5060402483527  0.4660467312876 1.0
C      1  0.3352129949488  0.5488261929021  0.7087376967164 1.0
C      1  0.6874494937539  0.4714598990777  0.9055446891512 1.0
C      1  0.1820281883569  0.1779280707362  0.6507191101042 1.0
C      1  0.7454247767623  0.1178198388943  0.5287649970314 1.0
C      1  0.5581917128981  0.2745766628179  0.1329966569659 1.0
C      1  0.1656283212890  0.8309253952781  0.3595220289312 1.0
C      1  0.6032350348680  0.3551353881936  0.3032236954879 1.0
C      1  0.3179992707514  0.4000283518148  0.4499010892358 1.0
C      1  0.8330816837363  0.4748468983639  0.7722487900581 1.0
C      1  0.6726004335367  0.3401547308435  0.2349114376255 1.0
C      1  0.7577097024577  0.2274813186939  0.3563471898031 1.0
C      1  0.1043802073996  0.4267369032779  0.4273570414119 1.0
C      1  0.7001763830880  0.6330910770393  0.1477880584701 1.0
C      1  0.7850585102204  0.5885741805353  0.6686311219181 1.0
C      1  0.4056621180570  0.6203273858560  0.2703486109568 1.0
C      1  0.2531697915939  0.4529758321733  0.8263667602163 1.0
C      1  0.5209492415604  0.6072201730119  0.5745230247362 1.0
C      1  0.3122299939938  0.4647370576710  0.7423871165693 1.0
C      1  0.4978840977503  0.8041968826179  0.7178563645558 1.0
C      1  0.5367955245708  0.1980914959892  0.5492032795356 1.0
C      1  0.6691665316525  0.1460027066132  0.4775653682237 1.0
C      1  0.9365781750922  0.3307199391702  0.4627064275558 1.0
C      1  0.1408182011753  0.7099318455537  0.2629786649884 1.0
C      1  0.5597575177892  0.0341974988264  0.5535239026526 1.0
C      1  0.2517571702260  0.1206073461043  0.6223049066940 1.0
C      1  0.6176415971047  0.3440766554360  0.8182841039123 1.0
C      1  0.4470696003935  0.7037974781865  0.9355195377237 1.0
C      1  0.8664345208167  0.2839922953087  0.6197573932639 1.0
C      1  0.8308904510575  0.3626577572396  0.2609671531830 1.0
C      1  0.4663247311918  0.7241116756290  0.4376947228612 1.0
C      1  0.9108119361360  0.3167059879505  0.5410806105069 1.0
C      1  0.5487167304775  0.4712956565255  0.7930224291264 1.0
C      1  0.8720493026073  0.7191641274075  0.4395733594031 1.0
C      1  0.5145046817649  0.3719742388166  0.2717417887322 1.0
C      1  0.4032489196834  0.3642238381762  0.5667335922990 1.0
C      1  0.3858131885639  0.2707829156584  0.6020284064984 1.0
C      1  0.4905133304183  0.6220815994753  0.9352947455714 1.0
C      1  0.6982797869323  0.5358038140803  0.1279995320706 1.0
C      1  0.3841259736284  0.3140727298048  0.6975590982531 1.0
C      1  0.1484279899740  0.6483453492119  0.7101618551332 1.0
C      1  0.5899403274098  0.6494281517228  0.8099155122989 1.0
C      1  0.7475001290662  0.4943506589920  0.2041886949375 1.0
C      1  0.3097685126141  0.4450900791230  0.3659641673707 1.0
END
