TITL C-112395-1792-26 -3.203 3375.00 -540.09015556 0 0 67 (C1) n - 1
REM
REM Run started: at 2020.12.05 01:13:40 in /rds/project/t2_vol4/rds-t2-cs072/BORA/CARBON/AIRSS/Generating-Clusters/Str-Search/Only-C1/C10-100
REM VASP from code version vasp.5.4.4.18Apr17-6-g9f103f2a35 (build Oct 11 2019 16:45:47) gamma-only
REM
REM
REM
REM
REM ./C.cell (67c5d0192afd7a3ce4a0888e5fe73b87)
REM AIRSS Version 0.9.1 bugfix July 2018 build 013d7b7c2542+ Fri, 06 Jul 2018 19:26:36 +0100
REM compiler GCC version 4.8.5 20150623 (Red Hat 4.8.5-39)
REM options -cpp -mtune=generic -march=x86-64 -g -O0
REM seed -1479208533 -1812118214 557532885 -582680048 -1301609921 -2041961839 1167220746 -373763728 1922343552 75497890 400402016 1780337339
REM
REM C.POTCAR (d86ddea03c3ceb6dc662c8ad6801f873)
REM 
CELL 1.54180   15.00000   15.00000   15.00000   90.00000   90.00000   90.00000
LATT -1
SFAC C  
C      1  0.4096315570052  0.7011595017281  0.4708265521700 1.0
C      1  0.3557239756449  0.6573529800727  0.5342755809859 1.0
C      1  0.4397787218461  0.4478040954638  0.2692226436078 1.0
C      1  0.6462649815118  0.3570609454737  0.4224788736813 1.0
C      1  0.4495589819095  0.3913887377907  0.7155401440761 1.0
C      1  0.6853207727306  0.6318884211492  0.4178346541613 1.0
C      1  0.7020370257270  0.3449257225713  0.5089157250194 1.0
C      1  0.2188508490510  0.4380217877061  0.5505181270932 1.0
C      1  0.3003167053844  0.1915738999101  0.5124382379846 1.0
C      1  0.3383549340342  0.3263843591565  0.7065503705549 1.0
C      1  0.6585428056486  0.3137973991241  0.5903815046708 1.0
C      1  0.6138880330551  0.4990716081167  0.3213883916042 1.0
C      1  0.5790371042125  0.6970508355184  0.6403934764166 1.0
C      1  0.4125385365956  0.7071960821201  0.2968608089063 1.0
C      1  0.5331387328265  0.5346442085251  0.5530868474296 1.0
C      1  0.4973378982579  0.5410439347237  0.6393933146437 1.0
C      1  0.4998823311360  0.4516624419970  0.4210533799306 1.0
C      1  0.5696145495226  0.4016062102546  0.4718653639789 1.0
C      1  0.4113629683813  0.4192787321978  0.4525078040941 1.0
C      1  0.6090309697324  0.4795915983948  0.5260809867467 1.0
C      1  0.5672046321945  0.6541989208102  0.3421726942070 1.0
C      1  0.3621146683462  0.4172517104065  0.6843957091901 1.0
C      1  0.4865234946915  0.7072926179653  0.6089230448408 1.0
C      1  0.7029970743625  0.4997063144857  0.5163184119542 1.0
C      1  0.4729262973626  0.3606162929620  0.2541237637751 1.0
C      1  0.5171253488540  0.3264966760659  0.5141084071566 1.0
C      1  0.2193887957949  0.3570476787363  0.5302427286755 1.0
C      1  0.6404938338059  0.5408763664489  0.7016076224934 1.0
C      1  0.4885207168141  0.7351936874418  0.5158806131889 1.0
C      1  0.7175783079002  0.5977630159516  0.5030163763005 1.0
C      1  0.6709472373605  0.3649826553241  0.6703978227211 1.0
C      1  0.4258531608986  0.3294517491800  0.4885731729984 1.0
C      1  0.6219779548622  0.3305410236171  0.3284975329664 1.0
C      1  0.6336353986413  0.7263219481229  0.5652778747395 1.0
C      1  0.4691873310410  0.7856545796802  0.2973528812167 1.0
C      1  0.5024490297395  0.2565934720652  0.6504521581129 1.0
C      1  0.5292711793781  0.4297081315275  0.7486117626717 1.0
C      1  0.5091697212584  0.4982412990157  0.3280206269311 1.0
C      1  0.4039583156232  0.5685804625559  0.6487517848309 1.0
C      1  0.6953908043102  0.6532411027729  0.5751841269996 1.0
C      1  0.6413953174314  0.5845539180549  0.3442199854633 1.0
C      1  0.2633879450856  0.2790496120398  0.5166487693894 1.0
C      1  0.5169876280461  0.7049929494793  0.2705736764813 1.0
C      1  0.3564346094897  0.4863228697339  0.2717348151758 1.0
C      1  0.4357507728820  0.2989229127628  0.6904691392212 1.0
C      1  0.4814886927334  0.5418683200446  0.4673488780917 1.0
C      1  0.6578551396498  0.4145310723186  0.3387214252553 1.0
C      1  0.5489251164423  0.5177895260387  0.7165530974955 1.0
C      1  0.6191283542242  0.7015200852921  0.4127761689490 1.0
C      1  0.6162453116710  0.3901994000053  0.7431077397793 1.0
C      1  0.5825668099769  0.7429920847994  0.4880478297337 1.0
C      1  0.4030713807524  0.6567320854366  0.6182041347442 1.0
C      1  0.6480410472575  0.6262005722096  0.6591895752897 1.0
C      1  0.6822165782131  0.4524043919423  0.7110077429936 1.0
C      1  0.3983375225214  0.6536742456078  0.3816573490223 1.0
C      1  0.3125808692551  0.5729160348851  0.4980770899566 1.0
C      1  0.3083788572770  0.5351439781927  0.3212465615361 1.0
C      1  0.3555913175661  0.2678803757233  0.5034870576817 1.0
C      1  0.3170920715291  0.5894840053461  0.3941899025658 1.0
C      1  0.5409538877674  0.3220234535804  0.2836853526554 1.0
C      1  0.4467229741148  0.6707083736160  0.2131985369424 1.0
C      1  0.3342563376093  0.5017611459401  0.6445877085411 1.0
C      1  0.5630950569930  0.2807375729768  0.5847853138797 1.0
C      1  0.2716787657334  0.5112591440672  0.5708508675967 1.0
C      1  0.7529157818124  0.4223210567478  0.5077832266026 1.0
C      1  0.4889843261898  0.5944326111938  0.3775334235423 1.0
C      1  0.3889914903232  0.5073146948347  0.4767928276876 1.0
END
