TITL C-112395-1792-10 -2.822 3375.00 -474.69645057 0 0 59 (C1) n - 1
REM
REM Run started: at 2020.12.04 18:51:04 in /rds/project/t2_vol4/rds-t2-cs072/BORA/CARBON/AIRSS/Generating-Clusters/Str-Search/Only-C1/C10-100
REM VASP from code version vasp.5.4.4.18Apr17-6-g9f103f2a35 (build Oct 11 2019 16:45:47) gamma-only
REM
REM
REM
REM
REM ./C.cell (67c5d0192afd7a3ce4a0888e5fe73b87)
REM AIRSS Version 0.9.1 bugfix July 2018 build 013d7b7c2542+ Fri, 06 Jul 2018 19:26:36 +0100
REM compiler GCC version 4.8.5 20150623 (Red Hat 4.8.5-39)
REM options -cpp -mtune=generic -march=x86-64 -g -O0
REM seed 1761919585 -1389897637 1435616315 775986766 -1571203517 -1913250172 -1544443664 -1099990075 -831403268 -772727280 30874719 1503820732
REM
REM C.POTCAR (d86ddea03c3ceb6dc662c8ad6801f873)
REM 
CELL 1.54180   15.00000   15.00000   15.00000   90.00000   90.00000   90.00000
LATT -1
SFAC C  
C      1  0.2981139026394  0.4579257524847  0.6239776429235 1.0
C      1  0.2729402711646  0.4923686609706  0.4895095362315 1.0
C      1  0.5804015147223  0.6962512836946  0.4581191818947 1.0
C      1  0.4652659142611  0.4573242196729  0.5083436646446 1.0
C      1  0.3999472001657  0.3909352813239  0.5045313905352 1.0
C      1  0.5495078310082  0.4972826245089  0.3724494008825 1.0
C      1  0.6270583339861  0.5105202536431  0.6811045532886 1.0
C      1  0.5978065626200  0.2998005748124  0.3468516130783 1.0
C      1  0.6677967373506  0.5979570548466  0.3590428311647 1.0
C      1  0.5156338442185  0.2869764406062  0.3370233797291 1.0
C      1  0.4072735704497  0.4875718366214  0.7541103483480 1.0
C      1  0.4222549091933  0.5719187513725  0.3032373685927 1.0
C      1  0.4162965793058  0.7006027014510  0.4908016933138 1.0
C      1  0.4242188597503  0.3944620461186  0.7349020651163 1.0
C      1  0.6552935165493  0.3513265619062  0.3995501305471 1.0
C      1  0.6046527712450  0.7221001674385  0.5447104891910 1.0
C      1  0.2763523495422  0.5425000386282  0.5757169084284 1.0
C      1  0.4485666098778  0.5519621710055  0.5228521460421 1.0
C      1  0.3697760036974  0.3622542063455  0.3203937510090 1.0
C      1  0.5529024350051  0.4725356364052  0.7256351976616 1.0
C      1  0.5018910674875  0.5914428724086  0.3683496736960 1.0
C      1  0.4262203630153  0.6096888274365  0.4407197310721 1.0
C      1  0.6699291332830  0.4498269193391  0.6182816827951 1.0
C      1  0.4292404064561  0.3036498755147  0.3669449446965 1.0
C      1  0.5065163812143  0.6160785552691  0.6821946912314 1.0
C      1  0.4209444308635  0.3027263670394  0.4638245293902 1.0
C      1  0.3447452416003  0.7020587905003  0.5521724887852 1.0
C      1  0.4390351114975  0.6904063743997  0.6901743096950 1.0
C      1  0.6974932218414  0.5940224604945  0.5341065638923 1.0
C      1  0.5172817552100  0.4878661324309  0.2076034322059 1.0
C      1  0.6278597754810  0.3682529324970  0.5887311274692 1.0
C      1  0.5041994785728  0.2621035896706  0.6037775663250 1.0
C      1  0.6386805432900  0.5150029086987  0.4999080978796 1.0
C      1  0.6100252176269  0.6057036010480  0.6658278281076 1.0
C      1  0.7240411713839  0.4970652375885  0.5519153412187 1.0
C      1  0.3477057067379  0.4411047891525  0.6992028294620 1.0
C      1  0.5070004356772  0.6981645224551  0.5323116988550 1.0
C      1  0.5601186432734  0.4549640109949  0.4666439196641 1.0
C      1  0.3106866550714  0.4184144911943  0.5371006599698 1.0
C      1  0.5571265188291  0.3291795239847  0.6427936638597 1.0
C      1  0.7017198047639  0.4320021958135  0.3772801095581 1.0
C      1  0.3608177271418  0.6871177292547  0.6466640096627 1.0
C      1  0.7221863369596  0.5855791542895  0.4350414642165 1.0
C      1  0.5728784588736  0.4782671563855  0.2755703511477 1.0
C      1  0.4297805842528  0.5028405631557  0.2371396214078 1.0
C      1  0.6525198816305  0.5036820769199  0.3240558871571 1.0
C      1  0.2965090600425  0.5072120739132  0.3977082326783 1.0
C      1  0.2963163750659  0.6316050613112  0.5926808702721 1.0
C      1  0.7303929999715  0.4876035671807  0.4523456737447 1.0
C      1  0.4842794918207  0.5372787263291  0.7394020008180 1.0
C      1  0.6131182693168  0.3685484337406  0.4888130768373 1.0
C      1  0.4898422927559  0.6086886129895  0.5808883635220 1.0
C      1  0.3599870522469  0.5735396954433  0.3746295628049 1.0
C      1  0.5175331965596  0.3841314508344  0.7117100322163 1.0
C      1  0.6512690233019  0.6547104082436  0.5945647826517 1.0
C      1  0.3668283719016  0.4350001471521  0.2605819515562 1.0
C      1  0.3103276800568  0.4348232027072  0.3364770841147 1.0
C      1  0.5841244307146  0.6489238350091  0.3803562891000 1.0
C      1  0.4667679874583  0.2561472633537  0.5286428636411 1.0
END
