TITL C-111765-2497-4 -7.57 3375.00 -1313.67366169 0 0 161 (C1) n - 1
REM
REM Run started: at 2021.01.17 12:55:06 in /rds/project/t2_vol4/rds-t2-cs072/BORA/CARBON/AIRSS/Generating-Clusters/Str-Search/Only-C1/C100-200
REM VASP from code version vasp.5.4.4.18Apr17-6-g9f103f2a35 (build Oct 11 2019 16:45:47) gamma-only
REM
REM
REM
REM
REM ./C.cell (efaf0b2bf1589a83377268d7ebe2c73f)
REM AIRSS Version 0.9.1 bugfix July 2018 build 013d7b7c2542+ Fri, 06 Jul 2018 19:26:36 +0100
REM compiler GCC version 4.8.5 20150623 (Red Hat 4.8.5-39)
REM options -cpp -mtune=generic -march=x86-64 -g -O0
REM seed 1651136442 -19871764 335780862 -1720639012 -1461728822 -226115125 -1960732483 1625438476 -1706471187 -151912153 -619322121 30449910
REM
REM C.POTCAR (d86ddea03c3ceb6dc662c8ad6801f873)
REM 
CELL 1.54180   15.00000   15.00000   15.00000   90.00000   90.00000   90.00000
LATT -1
SFAC C  
C      1  0.2157442922381  0.3232530425350  0.4570077502948 1.0
C      1  0.1594591562704  0.4778168367865  0.4543091253408 1.0
C      1  0.2957137116569  0.4597357843843  0.8150927267994 1.0
C      1  0.6013219939194  0.3125751660460  0.6252175778159 1.0
C      1  0.7671106371894  0.3368905603319  0.6679075525707 1.0
C      1  0.4234514946902  0.3247700270777  0.3580979439192 1.0
C      1  0.6636548592182  0.3556760797182  0.4511844618668 1.0
C      1  0.8784771261944  0.3876625833243  0.3697857705689 1.0
C      1  0.5627763703524  0.5833357650973  0.8070045738789 1.0
C      1  0.3422815967594  0.7453504106098  0.3567778210505 1.0
C      1  0.6762052665805  0.4268822551902  0.2021895403028 1.0
C      1  0.3933558863841  0.2363704938146  0.7003456262719 1.0
C      1  0.2615853159972  0.7371719843054  0.3212491575532 1.0
C      1  0.5998373615954  0.4362143782059  0.1560268457208 1.0
C      1  0.5810252797332  0.6944775951591  0.4779880806422 1.0
C      1  0.4190425441244  0.4075239366325  0.4174847373237 1.0
C      1  0.3546220175295  0.3891481631626  0.8020844494170 1.0
C      1  0.2161102663591  0.6002251870422  0.5328130071115 1.0
C      1  0.4798930719628  0.6760720529029  0.2691878695586 1.0
C      1  0.3873317922194  0.4483163465383  0.2795561116742 1.0
C      1  0.3149979282294  0.1640977850708  0.5687341903692 1.0
C      1  0.5881280042513  0.1249042968825  0.3679720912589 1.0
C      1  0.2193025832185  0.5071317342271  0.2814603517512 1.0
C      1  0.5217812692994  0.4190776158510  0.4148462535323 1.0
C      1  0.2163889625624  0.4131774084532  0.3134244863755 1.0
C      1  0.6424032815787  0.1300541440470  0.2879273851186 1.0
C      1  0.6691786427007  0.5673583837521  0.8155520568707 1.0
C      1  0.5796655704257  0.2747710695265  0.2181253940539 1.0
C      1  0.7475621376196  0.3173884303448  0.7535980379942 1.0
C      1  0.6863076645492  0.3459607251367  0.6112927203890 1.0
C      1  0.5626915366822  0.8104850283078  0.7296426254840 1.0
C      1  0.3428426412590  0.7210512416915  0.7439007542594 1.0
C      1  0.2902240910898  0.7621240903372  0.5819718481207 1.0
C      1  0.6400367642158  0.2094218463770  0.2335834034219 1.0
C      1  0.8822464577707  0.6274267338692  0.4857667975236 1.0
C      1  0.3017167203733  0.5464555686829  0.5395121972400 1.0
C      1  0.8436533368500  0.3895857224305  0.6386413324234 1.0
C      1  0.2676653318861  0.3412008536122  0.2747240616091 1.0
C      1  0.1836894038851  0.5584560055169  0.1979597386832 1.0
C      1  0.3397933127769  0.1542074091375  0.4017073095444 1.0
C      1  0.4451473794006  0.3680471889717  0.5786873725617 1.0
C      1  0.1725523862950  0.6477715410981  0.2123312376794 1.0
C      1  0.4895645778118  0.6603810254686  0.5205144875694 1.0
C      1  0.5314558268310  0.6989352487759  0.6072866695509 1.0
C      1  0.1272882529601  0.3773510452116  0.5836508339948 1.0
C      1  0.3174400658964  0.2152329891759  0.6448152855521 1.0
C      1  0.2765440078323  0.5282935749849  0.1969657437009 1.0
C      1  0.6564990888637  0.8151323481954  0.5940777094932 1.0
C      1  0.3468755558922  0.8120367573028  0.5137034233278 1.0
C      1  0.2166421842060  0.6517525084128  0.6794813088042 1.0
C      1  0.6988500316843  0.5482343793773  0.3981807833015 1.0
C      1  0.4232327248116  0.8118229022593  0.6509192271549 1.0
C      1  0.7597501716967  0.7488301021658  0.4851556144350 1.0
C      1  0.5461499698849  0.8149672691363  0.3462107470724 1.0
C      1  0.6375172953694  0.8293600801421  0.3707386965138 1.0
C      1  0.4705718929335  0.6327237592642  0.8156939772223 1.0
C      1  0.1657062337590  0.5372618286172  0.5956040101494 1.0
C      1  0.4846420169998  0.4397576025443  0.7283079459553 1.0
C      1  0.7106016773294  0.5124268223853  0.6426515044306 1.0
C      1  0.1882662286976  0.5587322013605  0.6850316645001 1.0
C      1  0.5613808197986  0.3337464119551  0.4570251282216 1.0
C      1  0.2204690428727  0.5192359231771  0.7679657435730 1.0
C      1  0.4263318979111  0.3889391041361  0.6657980340777 1.0
C      1  0.6098345141680  0.7606412189729  0.2083484663295 1.0
C      1  0.7699195712275  0.7270674761718  0.6549352951340 1.0
C      1  0.3367727803420  0.4635647537247  0.5330259029265 1.0
C      1  0.3524305296048  0.3360819361481  0.7172066169048 1.0
C      1  0.3799102854052  0.4867544794504  0.3592399004460 1.0
C      1  0.5770900692224  0.7749861364356  0.5463896276976 1.0
C      1  0.2594274503799  0.5941352781076  0.8129888446055 1.0
C      1  0.7262582147993  0.5803981518926  0.4899550218187 1.0
C      1  0.6339747509686  0.8413813206842  0.6812422376930 1.0
C      1  0.5500116963465  0.5025239002561  0.4706023633442 1.0
C      1  0.1365903796169  0.4650039575827  0.5484596338945 1.0
C      1  0.5902595247144  0.4565115664856  0.5530067508369 1.0
C      1  0.4284048981948  0.8412372220526  0.5623163583770 1.0
C      1  0.4174380164934  0.6693067759925  0.3517235660536 1.0
C      1  0.6200793713288  0.8731326719049  0.7711400797062 1.0
C      1  0.7119513153375  0.1733626200045  0.4394548162968 1.0
C      1  0.4766338766522  0.8061267882372  0.4213412545691 1.0
C      1  0.4809655091363  0.7032603584560  0.4329737419931 1.0
C      1  0.5430490777082  0.5912782188034  0.2497487423586 1.0
C      1  0.6066702430651  0.5397786096349  0.3927437838809 1.0
C      1  0.1639513913544  0.3061752630565  0.5346748534781 1.0
C      1  0.5022299511609  0.2680085797751  0.4007852796240 1.0
C      1  0.2658178513114  0.6715735162038  0.7584817333120 1.0
C      1  0.7151031291958  0.1900793862453  0.2918175799171 1.0
C      1  0.5142294784688  0.1859563958303  0.3582820230303 1.0
C      1  0.4277808915019  0.3350254307117  0.1876111822210 1.0
C      1  0.9277161300137  0.4088656262967  0.4331929027928 1.0
C      1  0.1920798856267  0.3194018221183  0.6255096741777 1.0
C      1  0.3395417015822  0.7764425167747  0.6660112790828 1.0
C      1  0.7190710373088  0.7913787305437  0.4121855106057 1.0
C      1  0.4535835580348  0.1867449935728  0.2767641349030 1.0
C      1  0.2075481075182  0.6687921444541  0.2974359842892 1.0
C      1  0.6778056698424  0.3160530991813  0.8082849338155 1.0
C      1  0.1966952502553  0.5633880887485  0.4380866988517 1.0
C      1  0.3371171742876  0.2806219082047  0.3105396462472 1.0
C      1  0.6427267167744  0.4801659050750  0.8611051310706 1.0
C      1  0.4176233515770  0.5651148969690  0.8619128265474 1.0
C      1  0.3342411634269  0.3163154749428  0.2179850594855 1.0
C      1  0.6070832145823  0.5236253790580  0.6388747466472 1.0
C      1  0.8438038176795  0.4597361960572  0.5674450829982 1.0
C      1  0.7487346509566  0.4483210989088  0.2617798381672 1.0
C      1  0.8541489553010  0.4753346262580  0.6680877344449 1.0
C      1  0.5043804824345  0.8336624796255  0.5118771649057 1.0
C      1  0.5430633100503  0.3462631836194  0.8423010157373 1.0
C      1  0.3063374057969  0.2986396704683  0.4786250601454 1.0
C      1  0.5466685826683  0.5087747209126  0.7191932083023 1.0
C      1  0.3943231044457  0.5387947931380  0.5306339370008 1.0
C      1  0.7571104997756  0.6763719382291  0.7195996995016 1.0
C      1  0.3736442666182  0.8055512767662  0.4246302771276 1.0
C      1  0.7461854365420  0.4915960660450  0.5496130767275 1.0
C      1  0.7372728585386  0.2346712027507  0.3731716908033 1.0
C      1  0.4713969175612  0.4873875098614  0.8825289847782 1.0
C      1  0.3628403222213  0.4809548651209  0.1926501021586 1.0
C      1  0.4365273028416  0.4316438227037  0.1403213084050 1.0
C      1  0.5154312180731  0.4811238663564  0.1318338011427 1.0
C      1  0.4846243153120  0.2514514238725  0.2122141290485 1.0
C      1  0.3556274830458  0.5813560587399  0.2271361070304 1.0
C      1  0.9357981917444  0.5620751925880  0.4839201743125 1.0
C      1  0.5413409150506  0.3615840358507  0.5575865268850 1.0
C      1  0.7424656730579  0.5947221481439  0.7657355846383 1.0
C      1  0.5569266412161  0.5169624146719  0.8785704826390 1.0
C      1  0.4909363193954  0.7526723974284  0.6964129522194 1.0
C      1  0.3531970706950  0.5831544360199  0.3377130405996 1.0
C      1  0.6038585376915  0.6195573559734  0.6054553398672 1.0
C      1  0.5354431848440  0.7608688034233  0.2652571246613 1.0
C      1  0.3721590541575  0.3754195993324  0.5046201126754 1.0
C      1  0.7275026422270  0.3299502777277  0.3888398497130 1.0
C      1  0.5608729107658  0.2589075898260  0.6990125381232 1.0
C      1  0.4524835655778  0.3791060695892  0.2791227449229 1.0
C      1  0.2701035011657  0.2972720810402  0.6683042513458 1.0
C      1  0.7513511563532  0.4970695498741  0.3368400502579 1.0
C      1  0.5417342130542  0.4220562434673  0.3070585202347 1.0
C      1  0.3637121814754  0.1849240781662  0.3202111087821 1.0
C      1  0.7983250125950  0.6576267365764  0.4804935590142 1.0
C      1  0.5885152707372  0.2795284396204  0.7906819269581 1.0
C      1  0.3279404065348  0.5461493293676  0.8530151882880 1.0
C      1  0.1888092947767  0.4007400928208  0.4026037953314 1.0
C      1  0.6439473210295  0.6285920601199  0.5241108354187 1.0
C      1  0.5625893490700  0.5225929579313  0.3084825234253 1.0
C      1  0.4570003287938  0.4067300621246  0.8264149542125 1.0
C      1  0.6884298006134  0.7770075624553  0.2334379600847 1.0
C      1  0.2411407892906  0.5815373109948  0.3508685203362 1.0
C      1  0.6005052098924  0.3710049134146  0.2336742166339 1.0
C      1  0.4359680997042  0.7014829658832  0.7641515876489 1.0
C      1  0.2329989161613  0.6862483723404  0.5895475248529 1.0
C      1  0.4343127165640  0.6261992631211  0.1940359871423 1.0
C      1  0.9177244806729  0.4738152526018  0.5000492403019 1.0
C      1  0.7865468089542  0.3975366704582  0.3426037695256 1.0
C      1  0.4763069214660  0.5639645161917  0.5064701573060 1.0
C      1  0.3215277325087  0.1983805223321  0.4840211142829 1.0
C      1  0.7380202794244  0.7719791460700  0.5768198051763 1.0
C      1  0.6346465115571  0.3882319066282  0.8582612169569 1.0
C      1  0.6447026769802  0.1225089130427  0.4429925765540 1.0
C      1  0.4799159510267  0.2217144033016  0.6919892841137 1.0
C      1  0.6806309235346  0.4150268229940  0.5317363535221 1.0
C      1  0.7754072323032  0.5224640882201  0.7062576921044 1.0
C      1  0.5083669625405  0.5749602698135  0.1617147031787 1.0
C      1  0.7113409744634  0.8010004940213  0.3184279878153 1.0
END
