TITL C-127077-7863-1 -8.823 3375.00 0 0 0 186 (C1) n - 1
REM
REM Run started: at 2020.03.10 16:17:45 in /rds/user/bk393/hpc-work/AIRSS.pl-DENE/CARBON/New-Try
REM VASP from code version vasp.5.4.4.18Apr17-6-g9f103f2a35 (build Oct 11 2019 16:45:47) gamma-only
REM
REM
REM
REM
REM ./C.cell (67df479faaa1345d4e7bfe0367c0c0c2)
REM AIRSS Version 0.9.1 bugfix July 2018 build 013d7b7c2542+ Fri, 06 Jul 2018 19:26:36 +0100
REM compiler GCC version 4.8.5 20150623 (Red Hat 4.8.5-39)
REM options -cpp -mtune=generic -march=x86-64 -g -O0
REM seed 1322182507 -217404056 -907375527 -449800540 1603303623 1781419455 687628858 646410446 -1359478979 1579697945 1915894699 782217800
REM
REM C.POTCAR (d86ddea03c3ceb6dc662c8ad6801f873)
REM 
CELL 1.54180   15.00000   15.00000   15.00000   90.00000   90.00000   90.00000
LATT -1
SFAC C  
C      1  0.5978601892930  0.3438527790028  0.4019017029300 1.0
C      1  0.2416770015158  0.2391208016815  0.3754772195771 1.0
C      1  0.8530681344187  0.4493015074630  0.7152346524881 1.0
C      1  0.4422269554916  0.5257988250671  0.2041384982825 1.0
C      1  0.3681308530439  0.6650425906036  0.5629769936143 1.0
C      1  0.7615997406338  0.4696356191267  0.7548629245579 1.0
C      1  0.4722985075471  0.2376498790422  0.7135712952616 1.0
C      1  0.5917014506766  0.6234274578066  0.2475382254244 1.0
C      1  0.8127136881675  0.3550488658191  0.3375483726389 1.0
C      1  0.4283096885315  0.4472136207531  0.9312599542523 1.0
C      1  0.6911263672993  0.5453913101348  0.5286174407472 1.0
C      1  0.8391407989123  0.6906131535348  0.5435009768503 1.0
C      1  0.4149924827913  0.0981199062162  0.4911860571235 1.0
C      1  0.5075686016786  0.8688468862869  0.3258895479286 1.0
C      1  0.6709481063529  0.1229512059655  0.4230103661092 1.0
C      1  0.7699880154954  0.3723253233297  0.2509988552425 1.0
C      1  0.3392016567623  0.6361796141001  0.6570431923725 1.0
C      1  0.6501766070474  0.5242058284971  0.8608168932307 1.0
C      1  0.5705313068309  0.4268323471209  0.7635610569835 1.0
C      1  0.3558677536269  0.8306967923895  0.2969734181719 1.0
C      1  0.3525212612617  0.3258786106562  0.1610546423842 1.0
C      1  0.5535833170991  0.1447736492567  0.3989880795975 1.0
C      1  0.3411895647672  0.7527296801387  0.5785952593156 1.0
C      1  0.7752845187106  0.4649503482143  0.2199248244565 1.0
C      1  0.3646697390691  0.3344229539327  0.3273552215423 1.0
C      1  0.5350770769815  0.8068978696428  0.6302554427460 1.0
C      1  0.5515070302308  0.3470010141956  0.4954959737383 1.0
C      1  0.8465508742635  0.5182736787594  0.2396338513042 1.0
C      1  0.3510865018136  0.2059748624900  0.5925654537814 1.0
C      1  0.3919636957454  0.1155395391389  0.5803257978873 1.0
C      1  0.4363871518181  0.3244553399220  0.3933771536319 1.0
C      1  0.4972269882239  0.5071679653900  0.3698725018978 1.0
C      1  0.6051207978395  0.6385534147966  0.1503075280339 1.0
C      1  0.2892724430688  0.5507692009002  0.6795533404991 1.0
C      1  0.5393067780119  0.6683090793912  0.7919516649918 1.0
C      1  0.2707645650845  0.3137495823194  0.3239633200695 1.0
C      1  0.7638463890428  0.6464278193367  0.8199418517820 1.0
C      1  0.6093163882761  0.7379902351820  0.1456065573414 1.0
C      1  0.1845789439018  0.3376271958885  0.4950985629874 1.0
C      1  0.3550245754842  0.5282925379096  0.3726881799387 1.0
C      1  0.3586798481321  0.7358830988952  0.8179809020436 1.0
C      1  0.4974833456731  0.3539895752150  0.2515030678113 1.0
C      1  0.4496531812450  0.3286708341215  0.6605287582406 1.0
C      1  0.4070874835197  0.2503810651553  0.8367446827340 1.0
C      1  0.3101716901196  0.2359472224769  0.6806703854891 1.0
C      1  0.5003288993747  0.1668011811025  0.2580869219272 1.0
C      1  0.7547063174554  0.7366444606770  0.6785288929097 1.0
C      1  0.3896430821468  0.4108233459915  0.6851621082877 1.0
C      1  0.4194746744256  0.2878904683851  0.5707609970446 1.0
C      1  0.8531790998183  0.6609464027189  0.4598259196606 1.0
C      1  0.5452954234266  0.4559723529084  0.6218784671202 1.0
C      1  0.1354947465990  0.5263789155568  0.6270882936081 1.0
C      1  0.5443765625273  0.3977914897848  0.1719420431631 1.0
C      1  0.6200763827182  0.6889916888879  0.8427763887388 1.0
C      1  0.3999606166439  0.3542874720307  0.2453157570629 1.0
C      1  0.7664980415261  0.6869048058732  0.5935965117577 1.0
C      1  0.1390004151754  0.5120267347946  0.3854963718590 1.0
C      1  0.6314493600415  0.1519146450043  0.3442890904824 1.0
C      1  0.7556052646610  0.7870572089503  0.3576593215863 1.0
C      1  0.4451212584377  0.4894465734694  0.6430428767128 1.0
C      1  0.4084655917077  0.6144440656486  0.1796868766801 1.0
C      1  0.2980457392109  0.4617910456718  0.5284297417553 1.0
C      1  0.6618083809465  0.4245636557356  0.3967247881093 1.0
C      1  0.2807380722015  0.3820068536461  0.1366771672115 1.0
C      1  0.5796076464302  0.2990294050560  0.8390230494553 1.0
C      1  0.8155681597099  0.5033309998650  0.4042735243770 1.0
C      1  0.3623575659110  0.6919259651663  0.3610329437894 1.0
C      1  0.4541921983147  0.3186482295160  0.4904040347026 1.0
C      1  0.4431453888061  0.6892786545705  0.4148609697997 1.0
C      1  0.5996702221884  0.2913854326500  0.6522608026970 1.0
C      1  0.4054396541965  0.3669555469528  0.9450110352665 1.0
C      1  0.5927348929599  0.4284739034022  0.5360288972599 1.0
C      1  0.7090366579345  0.8618363026273  0.5807127902176 1.0
C      1  0.7628038755983  0.2709347679401  0.6509047642686 1.0
C      1  0.1105732111333  0.5682228623558  0.5449409876766 1.0
C      1  0.7812490973280  0.7011197387731  0.7568473071140 1.0
C      1  0.2025055576854  0.3772886705726  0.6862801262964 1.0
C      1  0.1938794623472  0.6722544250868  0.6322315301877 1.0
C      1  0.4381117688671  0.6714550991122  0.8066274592583 1.0
C      1  0.5473704655049  0.5715691922140  0.7508795589028 1.0
C      1  0.1551905346655  0.7311925017769  0.4913125927219 1.0
C      1  0.8764545646066  0.5593411167432  0.4692886862246 1.0
C      1  0.5427737181917  0.7268302384221  0.5812696302550 1.0
C      1  0.4623074502771  0.8496868703390  0.5974050179057 1.0
C      1  0.3892746843905  0.1399182574559  0.4106511279573 1.0
C      1  0.6088760241336  0.2731786172449  0.4714311234017 1.0
C      1  0.3347321744438  0.4228067913278  0.7662035313751 1.0
C      1  0.6828924160806  0.4964368213568  0.1986042207534 1.0
C      1  0.3019564710948  0.1893576415694  0.4304497000225 1.0
C      1  0.6341664552909  0.5508866169512  0.2826693680404 1.0
C      1  0.3080397069796  0.5832132537229  0.8431052819560 1.0
C      1  0.2779924942704  0.8433471661745  0.4167642320195 1.0
C      1  0.4402606361524  0.6854754256327  0.2323392427152 1.0
C      1  0.5580020317796  0.1512490287256  0.5743441728932 1.0
C      1  0.4042414643042  0.5899381591939  0.8603649174810 1.0
C      1  0.4668189672614  0.2189303654619  0.1826665242784 1.0
C      1  0.8745139986444  0.5283925591430  0.3207021317228 1.0
C      1  0.4688037950883  0.1442242687822  0.3485162992838 1.0
C      1  0.1634792594275  0.4357169614973  0.6222102086364 1.0
C      1  0.4159336946769  0.6358850361754  0.7139903907133 1.0
C      1  0.8340109957619  0.2999649986403  0.6880588367864 1.0
C      1  0.3868731278252  0.2435407711053  0.1472519059022 1.0
C      1  0.2438191953166  0.4174689865405  0.7654235488459 1.0
C      1  0.7204457845056  0.4834623859768  0.5945552542595 1.0
C      1  0.6009347532357  0.1807328973384  0.2592653377460 1.0
C      1  0.6839336130886  0.3995933586959  0.5760545577694 1.0
C      1  0.4311956987741  0.5096391217243  0.3032470900677 1.0
C      1  0.5488112080850  0.5102018428566  0.8324124150545 1.0
C      1  0.3601201163364  0.7363060945074  0.2674662379506 1.0
C      1  0.6961822537040  0.8177049455041  0.6618101649441 1.0
C      1  0.6865256304386  0.3342606392186  0.2157361416779 1.0
C      1  0.6053865371623  0.5021901009401  0.6982373478884 1.0
C      1  0.5986508569755  0.7444280429055  0.7723323493479 1.0
C      1  0.3695319365169  0.8586071051962  0.4495916190703 1.0
C      1  0.4243252162841  0.8636197107400  0.3633216593590 1.0
C      1  0.5506372838055  0.2124406540231  0.6485158001116 1.0
C      1  0.5983408266235  0.5073570198589  0.3684638740291 1.0
C      1  0.5267289001463  0.6991769905864  0.3755387331408 1.0
C      1  0.2879944507155  0.5098846153508  0.7752836384649 1.0
C      1  0.6175814826582  0.7243414568511  0.4050056929934 1.0
C      1  0.1386482410515  0.6659041925007  0.5515018813243 1.0
C      1  0.3912521800157  0.8327651610758  0.5410974868590 1.0
C      1  0.6914131181620  0.6802700816307  0.4446376698864 1.0
C      1  0.5167280076068  0.3426019712878  0.3464091783154 1.0
C      1  0.2211907303570  0.2750362012450  0.5561275720119 1.0
C      1  0.2121201664822  0.5110115118717  0.2323311696456 1.0
C      1  0.8872637895122  0.5292697170937  0.5618225686379 1.0
C      1  0.1829835495697  0.3126375088441  0.4058956231109 1.0
C      1  0.7005072053841  0.4477439554418  0.8346634686328 1.0
C      1  0.1977145809931  0.5854364658019  0.6646905175274 1.0
C      1  0.9020007144267  0.3543509391985  0.3613030337219 1.0
C      1  0.3517928733168  0.4783950786834  0.4575148776782 1.0
C      1  0.6867576602094  0.3145568465668  0.6214918597911 1.0
C      1  0.6842786642510  0.6170107025232  0.8575888056062 1.0
C      1  0.3054102729252  0.6110216873348  0.3735259760657 1.0
C      1  0.5374197652254  0.2929046432095  0.1788211293524 1.0
C      1  0.2850165492510  0.6742497873837  0.8263079075366 1.0
C      1  0.1928705875911  0.4311923459660  0.5253767572881 1.0
C      1  0.6247931389669  0.2588785939576  0.2137892448736 1.0
C      1  0.3699590359006  0.2951033113763  0.9083104066588 1.0
C      1  0.2788157456607  0.6928770601493  0.2184333321497 1.0
C      1  0.2413053151476  0.5990689465933  0.2139521905538 1.0
C      1  0.4658482066859  0.5648630906199  0.6991771770189 1.0
C      1  0.2759994684792  0.6862424329788  0.4092353396519 1.0
C      1  0.4819969360193  0.1001013805321  0.5595303976460 1.0
C      1  0.1768799091195  0.4660009496715  0.3139913303594 1.0
C      1  0.1933872373771  0.3722860405806  0.3272887971862 1.0
C      1  0.8853876046507  0.3627949208336  0.7191120613001 1.0
C      1  0.5034346437511  0.4863782970993  0.1460208497843 1.0
C      1  0.2262699642580  0.7608372934422  0.4458967935568 1.0
C      1  0.5396850173304  0.3700432812015  0.6753289556694 1.0
C      1  0.6100692880747  0.8043964844819  0.6986307090725 1.0
C      1  0.5033170901991  0.2592414898238  0.8095858433917 1.0
C      1  0.6332094414343  0.4940963300173  0.4653728919869 1.0
C      1  0.6542574162155  0.8011552857203  0.3535881506098 1.0
C      1  0.5637278354035  0.5521793747760  0.1057396618721 1.0
C      1  0.7055080693390  0.4993707023672  0.6888404641697 1.0
C      1  0.4324423808107  0.5349507475307  0.4481161070637 1.0
C      1  0.7759402697897  0.7046345044954  0.4078607614913 1.0
C      1  0.1381203488250  0.5060831967270  0.4752081965154 1.0
C      1  0.6298476869914  0.3720678882374  0.8200999900577 1.0
C      1  0.8827312523838  0.4995958216088  0.6390999911694 1.0
C      1  0.6533860598255  0.5550921179402  0.1215110822107 1.0
C      1  0.2681940660326  0.8551125004701  0.3235894514809 1.0
C      1  0.7614129845943  0.4229735861907  0.3890449485836 1.0
C      1  0.9222594797954  0.5015011951180  0.3982566638486 1.0
C      1  0.2821983192090  0.2110841825954  0.5217799012477 1.0
C      1  0.5971388631220  0.1774415965070  0.4846672287432 1.0
C      1  0.2377495553937  0.2933408405340  0.6512393821777 1.0
C      1  0.3424218030405  0.4770702474967  0.6180612077787 1.0
C      1  0.2455612664340  0.4489467035928  0.1698739360685 1.0
C      1  0.3155272664458  0.6278955912072  0.1631033985242 1.0
C      1  0.6382982341968  0.4084422025774  0.1892595036258 1.0
C      1  0.2878602359267  0.7390396640426  0.7560926815184 1.0
C      1  0.4380164983740  0.6299910666810  0.4962933038073 1.0
C      1  0.7195345446192  0.8738710447773  0.4988934876279 1.0
C      1  0.7007391651681  0.6357792517544  0.5318442687094 1.0
C      1  0.5168952187814  0.6550516121818  0.5492796453066 1.0
C      1  0.5200290969577  0.6767046409910  0.2836076881459 1.0
C      1  0.3760297216757  0.2228196721642  0.7484671061228 1.0
C      1  0.7201856086097  0.8574417956852  0.4088749144446 1.0
C      1  0.9517910135421  0.4080588594336  0.4054748087439 1.0
C      1  0.4625016908064  0.5189956008944  0.8857650275202 1.0
C      1  0.5980135107103  0.8030737830537  0.1974554370726 1.0
C      1  0.5851340797144  0.8400291271707  0.2853795630239 1.0
C      1  0.2780834387010  0.7224034082384  0.6576284661202 1.0
END
