TITL C-128256-4848-14 -4.323 3375.00 -739.92787451 0 0 90 (C1) n - 1
REM
REM Run started: at 2020.12.24 15:46:26 in /rds/project/t2_vol4/rds-t2-cs072/BORA/CARBON/AIRSS/Generating-Clusters/Str-Search/Only-C1/C10-100
REM VASP from code version vasp.5.4.4.18Apr17-6-g9f103f2a35 (build Oct 11 2019 16:45:47) gamma-only
REM
REM
REM
REM
REM ./C.cell (67c5d0192afd7a3ce4a0888e5fe73b87)
REM AIRSS Version 0.9.1 bugfix July 2018 build 013d7b7c2542+ Fri, 06 Jul 2018 19:26:36 +0100
REM compiler GCC version 4.8.5 20150623 (Red Hat 4.8.5-39)
REM options -cpp -mtune=generic -march=x86-64 -g -O0
REM seed -1758993678 195886677 -1971588146 -1901561449 482786058 -1051804342 -2141795062 1115620042 -848274042 987115625 1483353363 -417345266
REM
REM C.POTCAR (d86ddea03c3ceb6dc662c8ad6801f873)
REM 
CELL 1.54180   15.00000   15.00000   15.00000   90.00000   90.00000   90.00000
LATT -1
SFAC C  
C      1  0.3552251545191  0.4579782289153  0.5015163207065 1.0
C      1  0.6440481787829  0.6234554342940  0.2718911619067 1.0
C      1  0.3707639947361  0.6188233380088  0.6970237213994 1.0
C      1  0.7077609543554  0.7203084742831  0.3897506674130 1.0
C      1  0.4918120980379  0.6073016495211  0.2349811766426 1.0
C      1  0.3594622190157  0.6128075420307  0.3453638928384 1.0
C      1  0.2708448976297  0.5734888012029  0.3435851222633 1.0
C      1  0.2940801711088  0.5921511001577  0.6406188056793 1.0
C      1  0.6279507825162  0.4205275917947  0.7343181280294 1.0
C      1  0.5118698849318  0.5854640897448  0.8418457422402 1.0
C      1  0.4113501981359  0.5740416436423  0.2728621481780 1.0
C      1  0.6457353804317  0.6298044592296  0.6376285927604 1.0
C      1  0.7082800538458  0.3154425417527  0.4335007026363 1.0
C      1  0.7029907526255  0.6375963267316  0.3472417399763 1.0
C      1  0.5877257965601  0.5126827173769  0.5496846458243 1.0
C      1  0.4981909599531  0.5285356219101  0.5898118456983 1.0
C      1  0.2635967189751  0.3130696168502  0.4033184859362 1.0
C      1  0.2246254233564  0.3669617720464  0.5438179918728 1.0
C      1  0.6303030483907  0.6090730049096  0.5375848076683 1.0
C      1  0.5134096933232  0.7051569501696  0.7202519947634 1.0
C      1  0.4745248573552  0.3415994898838  0.5280362205682 1.0
C      1  0.5030513093009  0.6706811345061  0.4152171661962 1.0
C      1  0.4273283854759  0.3086179015695  0.6814159286867 1.0
C      1  0.3402289289132  0.3114429290061  0.6509314792424 1.0
C      1  0.7021798621454  0.7706284929831  0.4569481326602 1.0
C      1  0.4269013630756  0.6921630750337  0.6723472116120 1.0
C      1  0.4105987243604  0.7328643836160  0.5809744494283 1.0
C      1  0.5328910260685  0.7298231400755  0.3418662667928 1.0
C      1  0.7193922850958  0.4218609410450  0.3189013965121 1.0
C      1  0.7187838304027  0.4104383517064  0.4768564322929 1.0
C      1  0.2873795396652  0.3811317899418  0.6868873074644 1.0
C      1  0.3834776323791  0.3764025708022  0.5208840483166 1.0
C      1  0.5021409152029  0.2517390118277  0.4982520869043 1.0
C      1  0.6277581238885  0.5356920496561  0.2329589432621 1.0
C      1  0.7357611208843  0.4044304745209  0.6460317506658 1.0
C      1  0.4388098896158  0.8079066721401  0.5354142634117 1.0
C      1  0.4872962282125  0.2398775599209  0.4042280283028 1.0
C      1  0.7628128790862  0.4385298220723  0.5642332044325 1.0
C      1  0.7551202456706  0.5356732133573  0.5748332841922 1.0
C      1  0.7209398679336  0.5841890032505  0.5023949366988 1.0
C      1  0.5400469082128  0.3983061041151  0.4610889409395 1.0
C      1  0.2075769368936  0.3747144433623  0.4476265513631 1.0
C      1  0.6176324711025  0.4399575730971  0.5013514658153 1.0
C      1  0.6717219897182  0.7910403688161  0.5372912084150 1.0
C      1  0.3113528358127  0.4685873537368  0.7279797233648 1.0
C      1  0.3104838960358  0.3085467415559  0.5511433389521 1.0
C      1  0.6306960866985  0.7744211690663  0.6096869916580 1.0
C      1  0.7413549362501  0.4721264729238  0.3961220347643 1.0
C      1  0.5660105197909  0.3920332492684  0.2790551224123 1.0
C      1  0.4852725019041  0.5101320593072  0.7951151926924 1.0
C      1  0.5790952949787  0.2415960412307  0.3711138955215 1.0
C      1  0.3247603993425  0.2646375029318  0.4585620337607 1.0
C      1  0.4088365247905  0.4748700529717  0.2635349800684 1.0
C      1  0.3340086930968  0.3328355146871  0.3375789546382 1.0
C      1  0.3848505195828  0.6534167042422  0.5186863938949 1.0
C      1  0.5050546542435  0.3276219772009  0.6249692893526 1.0
C      1  0.3078164449246  0.6031410314091  0.5505877964522 1.0
C      1  0.2359590623129  0.5307471178399  0.4208695286167 1.0
C      1  0.6501949684759  0.4527182703097  0.2637821186049 1.0
C      1  0.3963398181321  0.2687323978009  0.3875009782268 1.0
C      1  0.5179176731744  0.6572113551809  0.7969627669638 1.0
C      1  0.5453457909829  0.6420488993973  0.4929118175806 1.0
C      1  0.4777609365954  0.3934190067636  0.6925264283844 1.0
C      1  0.7319142127820  0.5638446333004  0.4086988286337 1.0
C      1  0.1898590715777  0.4525004427775  0.3927474867989 1.0
C      1  0.5941150387169  0.2490785865082  0.5321173230735 1.0
C      1  0.4937740270683  0.4472322413153  0.2261809212869 1.0
C      1  0.3988897743381  0.5242005110705  0.7338810879689 1.0
C      1  0.3374456469047  0.4217038428192  0.3028176071090 1.0
C      1  0.4732403854680  0.6077183688735  0.5462068053872 1.0
C      1  0.6133001167667  0.3000963225440  0.3053341020062 1.0
C      1  0.5585029583870  0.6701005314980  0.2680970909966 1.0
C      1  0.5375187377989  0.4369906835852  0.7587131919235 1.0
C      1  0.5986257321848  0.2959472263553  0.6165158750638 1.0
C      1  0.5972202765627  0.7106873757896  0.6668067563067 1.0
C      1  0.2588282223107  0.4772065624994  0.3246150430773 1.0
C      1  0.2244236507727  0.4179828499761  0.6246548081594 1.0
C      1  0.5315904652915  0.4001081395499  0.3733227087827 1.0
C      1  0.7093199088243  0.5600620911933  0.6609296364648 1.0
C      1  0.4536389981396  0.4828476457067  0.6584297491540 1.0
C      1  0.5077928247449  0.8101250641456  0.3763504516516 1.0
C      1  0.5372802423158  0.5287247190270  0.2053838000756 1.0
C      1  0.4050844766770  0.6537967903356  0.4180999312812 1.0
C      1  0.6439148492257  0.2487806559974  0.4520139163256 1.0
C      1  0.4700449040996  0.8213752879298  0.4565111595282 1.0
C      1  0.6566691820213  0.3508593810842  0.6678428547668 1.0
C      1  0.2966613700917  0.5241806605285  0.4952057308725 1.0
C      1  0.7024700310708  0.4770597477514  0.7059540032233 1.0
C      1  0.6989626268494  0.3329425012624  0.3407130715949 1.0
C      1  0.2514190299935  0.5106230178733  0.6695980739690 1.0
END
