TITL C-12556-9949-174 -1.51 3375.00 -248.28570801 0 0 31 () n - 1
REM
REM Run started: at 2020.12.26 14:47:58 in /gpfs/home/chem/mssmkc/CARBON/AIRSS/Generating-Clusters/Str-Search/Only-C1/C10-100
REM VASP from code version vasp.5.4.4.18Apr17-6-g9f103f2a35 (build Oct 11 2019 16:45:47) gamma-only
REM
REM
REM
REM
REM ./C.cell (67c5d0192afd7a3ce4a0888e5fe73b87)
REM AIRSS Version 0.9.1 bugfix July 2018 build 013d7b7c2542+ Fri, 06 Jul 2018 19:26:36 +0100
REM compiler GCC version 6.3.0
REM options -cpp -iprefix /gpfs/warwick/csc/orac/software/Core/GCCcore/6.3.0/bin/../lib/gcc/x86_64-pc-linux-gnu/6.3.0/ -mtune=generic -march=x86-64 -g -O0
REM seed -514082502 -1913335112 32957144 989774973 -259108181 -1290696470 -639769046 2032145723 -992100984 288691687 1366463648 -148191988
REM
REM C.POTCAR (d86ddea03c3ceb6dc662c8ad6801f873)
REM 
CELL 1.54180   15.00000   15.00000   15.00000   90.00000   90.00000   90.00000
LATT -1
SFAC C  
C      1  0.5163334192224  0.5114564302745  0.6435069899485 1.0
C      1  0.6463350194181  0.4706969572958  0.5656122514268 1.0
C      1  0.5781535220567  0.6292602664461  0.6025664805373 1.0
C      1  0.4800929156011  0.6770715469845  0.5006857042881 1.0
C      1  0.6045200094231  0.5380165330072  0.6178543775972 1.0
C      1  0.3571630262214  0.4117598226389  0.6159448779074 1.0
C      1  0.5534671268492  0.3611133442047  0.3657467011464 1.0
C      1  0.4073153714433  0.4010429229164  0.4518197189607 1.0
C      1  0.3509438099512  0.5895145791270  0.5251864132338 1.0
C      1  0.4842478954423  0.6028705988716  0.6308634403008 1.0
C      1  0.4516421343520  0.4502884414985  0.3325415210749 1.0
C      1  0.5920816518531  0.5325899135392  0.3519786592062 1.0
C      1  0.5472975379407  0.6151017873503  0.3782607269407 1.0
C      1  0.6838809077819  0.4862783096897  0.4808030079436 1.0
C      1  0.3923568160498  0.4861902554092  0.4008292838406 1.0
C      1  0.6049889245413  0.3273866521465  0.4329835088861 1.0
C      1  0.5763434365532  0.6719869946338  0.5198759668242 1.0
C      1  0.5010783951388  0.4164787281195  0.6140236700139 1.0
C      1  0.4566970972817  0.3636593586108  0.3774515234671 1.0
C      1  0.5478020050888  0.4530389923935  0.3265299313640 1.0
C      1  0.2755678888722  0.4601682504357  0.6129286081775 1.0
C      1  0.5936883911107  0.3894617947595  0.5792203989761 1.0
C      1  0.2976038225805  0.5303832102778  0.5695790954617 1.0
C      1  0.4225761981384  0.6385612837756  0.5689034256974 1.0
C      1  0.6041150435119  0.3223986924594  0.5175298518210 1.0
C      1  0.6186722117983  0.6412375854337  0.4389203384337 1.0
C      1  0.4612195100092  0.6339778500162  0.4175256401536 1.0
C      1  0.6602734230642  0.5508205931396  0.4221825654124 1.0
C      1  0.4227581987906  0.4055583815864  0.5478173969497 1.0
C      1  0.4243949269349  0.3582105526089  0.6557857447469 1.0
C      1  0.3863892629791  0.5734194703495  0.4345421792616 1.0
END
