TITL C-12556-9949-63 -4.878 3375.00 -802.84263727 0 0 99 () n - 1
REM
REM Run started: at 2020.12.25 13:15:49 in /gpfs/home/chem/mssmkc/CARBON/AIRSS/Generating-Clusters/Str-Search/Only-C1/C10-100
REM VASP from code version vasp.5.4.4.18Apr17-6-g9f103f2a35 (build Oct 11 2019 16:45:47) gamma-only
REM
REM
REM
REM
REM ./C.cell (67c5d0192afd7a3ce4a0888e5fe73b87)
REM AIRSS Version 0.9.1 bugfix July 2018 build 013d7b7c2542+ Fri, 06 Jul 2018 19:26:36 +0100
REM compiler GCC version 6.3.0
REM options -cpp -iprefix /gpfs/warwick/csc/orac/software/Core/GCCcore/6.3.0/bin/../lib/gcc/x86_64-pc-linux-gnu/6.3.0/ -mtune=generic -march=x86-64 -g -O0
REM seed 391930465 1081834285 -296238468 791801031 2045889945 -689680410 2061275388 1517321014 719953557 -1454357733 1235151829 -698997118
REM
REM C.POTCAR (d86ddea03c3ceb6dc662c8ad6801f873)
REM 
CELL 1.54180   15.00000   15.00000   15.00000   90.00000   90.00000   90.00000
LATT -1
SFAC C  
C      1  0.5588826743153  0.5639800889713  0.5031380344273 1.0
C      1  0.6272888474209  0.6198663288935  0.6758417817855 1.0
C      1  0.3997653557130  0.3834591468544  0.3520598347171 1.0
C      1  0.3954049950657  0.5277578804387  0.1578868362922 1.0
C      1  0.1956412538120  0.3891709233233  0.4576946703334 1.0
C      1  0.3476065388513  0.5084585075239  0.0900469017274 1.0
C      1  0.2862116365491  0.7794030417994  0.6401334904494 1.0
C      1  0.1791238176566  0.3536052360711  0.5416988731819 1.0
C      1  0.4667353647157  0.8356671467239  0.3371430060010 1.0
C      1  0.3942804202513  0.6470380357659  0.7083359392142 1.0
C      1  0.3142692562039  0.4072901135715  0.7198168139923 1.0
C      1  0.6545023385509  0.1944543471390  0.5035959021749 1.0
C      1  0.8326790588939  0.6926929024352  0.5141421648508 1.0
C      1  0.6043005839740  0.6970736556420  0.4296000195836 1.0
C      1  0.5951015214627  0.4789777325625  0.7493901324381 1.0
C      1  0.5360587677233  0.4176600708892  0.4409219971222 1.0
C      1  0.3862386122525  0.3527755662645  0.6725294937905 1.0
C      1  0.2489821820429  0.4163501873636  0.4005489466564 1.0
C      1  0.8371667527371  0.4481086285936  0.4542216364858 1.0
C      1  0.5583321867698  0.6559325026112  0.3500962298093 1.0
C      1  0.4702054448028  0.2590681457038  0.4447984549823 1.0
C      1  0.1830519724421  0.4060330664907  0.6200390718902 1.0
C      1  0.6204200218010  0.3467725850804  0.6291398095033 1.0
C      1  0.6612382230333  0.3077988460858  0.3218836442958 1.0
C      1  0.4758932788261  0.5980304112890  0.7352151563026 1.0
C      1  0.5984313926156  0.6104546957995  0.2780761942996 1.0
C      1  0.4525550966361  0.4016589709603  0.6149399647503 1.0
C      1  0.7332473320766  0.3108123187899  0.3902546240566 1.0
C      1  0.3452515603585  0.7542820772686  0.4474279539118 1.0
C      1  0.2185238640739  0.2672940576802  0.5528312604937 1.0
C      1  0.4386802423984  0.8159658315919  0.5760268917897 1.0
C      1  0.2968883522026  0.2357825434804  0.5927795206782 1.0
C      1  0.3891469973629  0.8165213123015  0.3092501433298 1.0
C      1  0.6107259652556  0.3881156971839  0.2884739516996 1.0
C      1  0.3878983253473  0.3940027979432  0.7677706107735 1.0
C      1  0.5389131965712  0.4691190129105  0.5268399371893 1.0
C      1  0.8593262483551  0.5228042062565  0.4840347197094 1.0
C      1  0.6782268054503  0.6510130798522  0.5940209486356 1.0
C      1  0.3754252983344  0.8034318151779  0.6462128171075 1.0
C      1  0.5689017209269  0.4529634106696  0.2216877108104 1.0
C      1  0.5463308106157  0.5454793001206  0.2279300954489 1.0
C      1  0.5980263980150  0.2363755769142  0.3427545420095 1.0
C      1  0.5158369408377  0.7440948419380  0.6889759899234 1.0
C      1  0.4431935884488  0.4760512834872  0.5594194824704 1.0
C      1  0.6559687094884  0.5316488575504  0.7011288917304 1.0
C      1  0.6052465215647  0.7948590276578  0.5529499417557 1.0
C      1  0.4950477063558  0.2148618121649  0.5268486641553 1.0
C      1  0.7566806496018  0.5879674348031  0.5936783263953 1.0
C      1  0.4567769016810  0.2245791417110  0.6145406283920 1.0
C      1  0.4725457191438  0.5883085285640  0.4641880274171 1.0
C      1  0.2624126332457  0.1935045567677  0.5138968088369 1.0
C      1  0.5046070670960  0.2585312736242  0.3540206865030 1.0
C      1  0.4727089714815  0.4256933791130  0.7906239543762 1.0
C      1  0.3239091900445  0.4509442968726  0.3573020217326 1.0
C      1  0.5803896566128  0.7835175675337  0.4586285184917 1.0
C      1  0.8285050497359  0.6010671382871  0.5279598798714 1.0
C      1  0.7203685167173  0.2310175409066  0.4414738277447 1.0
C      1  0.5053088351199  0.5144576445390  0.7677441773018 1.0
C      1  0.6915402189385  0.7506926912691  0.5734323992607 1.0
C      1  0.4040098625125  0.5520038776728  0.5230171976866 1.0
C      1  0.3261603451305  0.7627531046285  0.3492540776208 1.0
C      1  0.3089758047014  0.6658211539361  0.4730119046850 1.0
C      1  0.7640974318132  0.4001014945260  0.4151326537466 1.0
C      1  0.4598171562679  0.3320980055666  0.2984353062482 1.0
C      1  0.3327818092886  0.5440448741342  0.3502033911770 1.0
C      1  0.7385640252482  0.5161099749897  0.6492210126093 1.0
C      1  0.6226614638358  0.6296782775334  0.5028548430020 1.0
C      1  0.5442100976883  0.2335963846190  0.6560203045416 1.0
C      1  0.2533502940670  0.7036298234323  0.6568095085393 1.0
C      1  0.6971735929338  0.4624898926124  0.3960342668776 1.0
C      1  0.3008187406729  0.0921981410817  0.3766868511278 1.0
C      1  0.7735808264804  0.7513834978316  0.5341557029299 1.0
C      1  0.4523272499255  0.3574725207854  0.4317867979838 1.0
C      1  0.5571234307476  0.3837360499876  0.7634111100759 1.0
C      1  0.5242508421875  0.3744693376416  0.2406900625632 1.0
C      1  0.4486196390035  0.5563421153649  0.2270560123571 1.0
C      1  0.6918042710960  0.5937194607065  0.2927862039077 1.0
C      1  0.4153826344104  0.5807142589824  0.3129429119030 1.0
C      1  0.5498379805267  0.6575188348705  0.7079137760920 1.0
C      1  0.4972531647086  0.8221074290795  0.4223112038007 1.0
C      1  0.7115934485451  0.3616817380553  0.6200093160872 1.0
C      1  0.7609503421813  0.4260013050407  0.6349737053280 1.0
C      1  0.5785760752076  0.3067961692919  0.7094575331045 1.0
C      1  0.3336791544977  0.6101132353174  0.5506992958368 1.0
C      1  0.4732283537271  0.6222442320552  0.3757450534237 1.0
C      1  0.4218376694893  0.7396595925537  0.7029569114184 1.0
C      1  0.2766951271326  0.1371994437062  0.4450043695182 1.0
C      1  0.2289691125379  0.4176764644570  0.6882920604185 1.0
C      1  0.2843397144595  0.6231245545384  0.3887570375405 1.0
C      1  0.7170410889674  0.5431835004747  0.3529809037381 1.0
C      1  0.6436270840889  0.1862506823065  0.4104729298102 1.0
C      1  0.4197266670789  0.8057737482138  0.4839912897376 1.0
C      1  0.3171570552621  0.6331147001064  0.6426120638612 1.0
C      1  0.6040339216839  0.4264624867273  0.3807078694272 1.0
C      1  0.5856706176731  0.2043163737214  0.5649046180509 1.0
C      1  0.5308784019434  0.7973069471676  0.6097863753527 1.0
C      1  0.2699993435088  0.6916567421049  0.3252511942401 1.0
C      1  0.5493004050684  0.3991802695360  0.5967269811554 1.0
C      1  0.3729683651236  0.2609703848659  0.6388924374156 1.0
END
