TITL C-12521-6401-186 -2.238 3375.00 -361.95356144 0 0 45 () n - 1
REM
REM Run started: at 2020.12.25 05:26:15 in /gpfs/home/chem/mssmkc/CARBON/AIRSS/Generating-Clusters/Str-Search/Only-C1/C10-100
REM VASP from code version vasp.5.4.4.18Apr17-6-g9f103f2a35 (build Oct 11 2019 16:45:47) gamma-only
REM
REM
REM
REM
REM ./C.cell (67c5d0192afd7a3ce4a0888e5fe73b87)
REM AIRSS Version 0.9.1 bugfix July 2018 build 013d7b7c2542+ Fri, 06 Jul 2018 19:26:36 +0100
REM compiler GCC version 6.3.0
REM options -cpp -iprefix /gpfs/warwick/csc/orac/software/Core/GCCcore/6.3.0/bin/../lib/gcc/x86_64-pc-linux-gnu/6.3.0/ -mtune=generic -march=x86-64 -g -O0
REM seed -563983691 -573230202 -997024041 1657633542 1393345893 -898872745 -43122439 619564079 -583883374 2044780848 1595407217 -1002915629
REM
REM C.POTCAR (d86ddea03c3ceb6dc662c8ad6801f873)
REM 
CELL 1.54180   15.00000   15.00000   15.00000   90.00000   90.00000   90.00000
LATT -1
SFAC C  
C      1  0.3075193432797  0.4545582867667  0.3702953344304 1.0
C      1  0.4957091167636  0.3243432564556  0.6251664573655 1.0
C      1  0.3242108853864  0.6224894263929  0.3678802369644 1.0
C      1  0.5354732176207  0.5297607339880  0.5073120016841 1.0
C      1  0.3651093207422  0.4734610884274  0.5270044007645 1.0
C      1  0.3041757213653  0.5470261527604  0.5032445592701 1.0
C      1  0.5771387871252  0.6781827627992  0.5232075643756 1.0
C      1  0.5594260275879  0.3196851893596  0.4828424521450 1.0
C      1  0.3472446025990  0.6841855126957  0.4407616305385 1.0
C      1  0.4343637876495  0.5124444648180  0.7011393148240 1.0
C      1  0.5159256254144  0.4531264330736  0.7207748627531 1.0
C      1  0.2914115670453  0.5391417993414  0.4065854230605 1.0
C      1  0.4024221619575  0.6239044080520  0.3161053558624 1.0
C      1  0.5835326418286  0.5914951980694  0.5710999459355 1.0
C      1  0.4523759729277  0.4897094971967  0.4891179609647 1.0
C      1  0.5408211811882  0.6103307838389  0.6613240317357 1.0
C      1  0.5797599991015  0.3342801938097  0.5796362116253 1.0
C      1  0.4698812558589  0.6828647816647  0.3567948088802 1.0
C      1  0.6675722385599  0.3910152987157  0.3712601697209 1.0
C      1  0.6509329003206  0.6790071429699  0.4634226622495 1.0
C      1  0.4828881336181  0.6998675195423  0.5232823976592 1.0
C      1  0.5163757736399  0.3369452654798  0.3317692250608 1.0
C      1  0.4466545057553  0.5979459839973  0.6597554355944 1.0
C      1  0.5932331747762  0.3413215663759  0.3955254800230 1.0
C      1  0.6410208850579  0.3991972957075  0.6201610893199 1.0
C      1  0.6026538031345  0.4641882287824  0.6835742806581 1.0
C      1  0.3890211006329  0.4280939091553  0.6756557344317 1.0
C      1  0.3644742251972  0.4000023149850  0.5872882494515 1.0
C      1  0.6125530810831  0.5566365001245  0.6599297457352 1.0
C      1  0.7151455936377  0.4330593647432  0.5743237692071 1.0
C      1  0.4617812748741  0.3185704234069  0.4742821062193 1.0
C      1  0.5180993018565  0.3262292091440  0.2436734531917 1.0
C      1  0.7332697280489  0.5311309326305  0.4357005625565 1.0
C      1  0.7434730268045  0.4881284105634  0.5192190787374 1.0
C      1  0.4325938194071  0.3394895372695  0.3853313213326 1.0
C      1  0.4226500157332  0.3280616919987  0.5605741467747 1.0
C      1  0.3402009709231  0.6329711909190  0.5240235482724 1.0
C      1  0.4156682763317  0.6496743187975  0.5818979931751 1.0
C      1  0.3561930373767  0.3867186487405  0.3646461825268 1.0
C      1  0.4370674353946  0.7181603675550  0.4395122433895 1.0
C      1  0.5009058661743  0.5339794346126  0.4206307576056 1.0
C      1  0.4682539079387  0.3739940776424  0.7005872176928 1.0
C      1  0.7043104653439  0.6210650133151  0.4344585056382 1.0
C      1  0.4876323618840  0.5904537283277  0.3443230073978 1.0
C      1  0.7088740810541  0.4631023549884  0.3748991831989 1.0
END
