TITL C-12556-9949-90 -2.995 3375.00 -511.93949889 0 0 63 () n - 1
REM
REM Run started: at 2020.12.25 19:15:26 in /gpfs/home/chem/mssmkc/CARBON/AIRSS/Generating-Clusters/Str-Search/Only-C1/C10-100
REM VASP from code version vasp.5.4.4.18Apr17-6-g9f103f2a35 (build Oct 11 2019 16:45:47) gamma-only
REM
REM
REM
REM
REM ./C.cell (67c5d0192afd7a3ce4a0888e5fe73b87)
REM AIRSS Version 0.9.1 bugfix July 2018 build 013d7b7c2542+ Fri, 06 Jul 2018 19:26:36 +0100
REM compiler GCC version 6.3.0
REM options -cpp -iprefix /gpfs/warwick/csc/orac/software/Core/GCCcore/6.3.0/bin/../lib/gcc/x86_64-pc-linux-gnu/6.3.0/ -mtune=generic -march=x86-64 -g -O0
REM seed 1964029299 -1541338000 1158447218 -334748912 1450163654 -1640967159 1688830978 -276364923 -810694707 74353093 1224731089 -380522807
REM
REM C.POTCAR (d86ddea03c3ceb6dc662c8ad6801f873)
REM 
CELL 1.54180   15.00000   15.00000   15.00000   90.00000   90.00000   90.00000
LATT -1
SFAC C  
C      1  0.6613999454693  0.4628587131880  0.6990602515329 1.0
C      1  0.3848160762168  0.5785324068030  0.3077334372676 1.0
C      1  0.3344111107904  0.3505620915966  0.4526796046179 1.0
C      1  0.5222906298411  0.6639571470723  0.3461252314023 1.0
C      1  0.5276866431208  0.5202083052225  0.2570675643181 1.0
C      1  0.4894800568820  0.6072821525465  0.5124407926745 1.0
C      1  0.3429809640345  0.5646805048792  0.4635926873365 1.0
C      1  0.3691432644431  0.4378109965275  0.3088977916622 1.0
C      1  0.6517321003256  0.3929735327039  0.6394554866142 1.0
C      1  0.6844444749406  0.5966210108760  0.6020786392308 1.0
C      1  0.5964707152058  0.2478392387792  0.4176143750457 1.0
C      1  0.6414496143117  0.6764992280808  0.5663145115535 1.0
C      1  0.5320888289621  0.2069754992762  0.5610832502565 1.0
C      1  0.4948060295189  0.2475511555762  0.4140500920200 1.0
C      1  0.6480139787125  0.6784113700936  0.4688573361652 1.0
C      1  0.5503924846898  0.4324480939276  0.4345902028944 1.0
C      1  0.5631602087660  0.6976154349090  0.4295684055743 1.0
C      1  0.3237632460869  0.6581727420636  0.4681359190202 1.0
C      1  0.4314568490928  0.5423272833396  0.4794258317600 1.0
C      1  0.2828006158842  0.5013716896566  0.4262714100621 1.0
C      1  0.4096420165267  0.4110084633559  0.7038121643555 1.0
C      1  0.3156629039299  0.5267863530024  0.6369209287162 1.0
C      1  0.6334022576371  0.3333703798659  0.3795100282683 1.0
C      1  0.3461680583140  0.6246735685630  0.6286110736837 1.0
C      1  0.4999110807857  0.7063597759723  0.5095926980884 1.0
C      1  0.5675599067524  0.6012568622373  0.2911780436516 1.0
C      1  0.4619441119136  0.3165243206046  0.3628858966277 1.0
C      1  0.5737613190919  0.5851694301874  0.7269089384598 1.0
C      1  0.3637089496903  0.4930620497086  0.7149470838630 1.0
C      1  0.7217191971589  0.5527350475953  0.5228244448407 1.0
C      1  0.5880356498758  0.4020670339777  0.7093997110806 1.0
C      1  0.3128531813406  0.5098346824443  0.3371524154517 1.0
C      1  0.6570214943647  0.5571728262865  0.2970036478561 1.0
C      1  0.5169774293298  0.6454023702759  0.6664348186677 1.0
C      1  0.4233023492838  0.6596428991290  0.3434557062269 1.0
C      1  0.5987939764448  0.2275790546510  0.5087381593492 1.0
C      1  0.5365692595393  0.3793465504198  0.3534635910878 1.0
C      1  0.4367108908889  0.5044567285810  0.2732727524372 1.0
C      1  0.6431036254067  0.4028592354195  0.4571103647021 1.0
C      1  0.6153851285058  0.4724637984129  0.2650277311387 1.0
C      1  0.4464710798829  0.3910591627706  0.5483883909494 1.0
C      1  0.7073542980592  0.6058735989500  0.4435710986447 1.0
C      1  0.5084318234802  0.5243087053299  0.7637894926957 1.0
C      1  0.4594837565991  0.2392941119774  0.5088995341002 1.0
C      1  0.5561463252832  0.7043145930360  0.5970513291572 1.0
C      1  0.6779644090778  0.3869633734579  0.5497263489029 1.0
C      1  0.4212154287479  0.5602316349112  0.7509206567588 1.0
C      1  0.6143850222373  0.3829591119195  0.2945504755811 1.0
C      1  0.3708143642105  0.7147253912074  0.4066507313941 1.0
C      1  0.4787989863160  0.4568745707644  0.4950176054331 1.0
C      1  0.3905938815795  0.3096582811348  0.5285979993798 1.0
C      1  0.3741310794138  0.3791546574967  0.6130189663428 1.0
C      1  0.5022043676436  0.4296398265055  0.7345992614978 1.0
C      1  0.3080522921763  0.4484412824986  0.5794515841227 1.0
C      1  0.4047058872673  0.7310926267397  0.4988544435153 1.0
C      1  0.7129684269895  0.4585617560544  0.5043729414171 1.0
C      1  0.4195584669119  0.6340155693144  0.6925002537363 1.0
C      1  0.3342767140427  0.6894294058478  0.5575546494836 1.0
C      1  0.3771961763795  0.3596111888526  0.3653874324961 1.0
C      1  0.6565202769054  0.5572474771091  0.6877592951542 1.0
C      1  0.2861276159243  0.4265440458609  0.4850855140040 1.0
C      1  0.5175763867214  0.5697855336728  0.5899919850999 1.0
C      1  0.7200023100752  0.5637439667801  0.3609670905712 1.0
END
