TITL C-12556-9949-151 -4.25 3375.00 -733.82216024 0 0 90 () n - 1
REM
REM Run started: at 2020.12.26 10:05:44 in /gpfs/home/chem/mssmkc/CARBON/AIRSS/Generating-Clusters/Str-Search/Only-C1/C10-100
REM VASP from code version vasp.5.4.4.18Apr17-6-g9f103f2a35 (build Oct 11 2019 16:45:47) gamma-only
REM
REM
REM
REM
REM ./C.cell (67c5d0192afd7a3ce4a0888e5fe73b87)
REM AIRSS Version 0.9.1 bugfix July 2018 build 013d7b7c2542+ Fri, 06 Jul 2018 19:26:36 +0100
REM compiler GCC version 6.3.0
REM options -cpp -iprefix /gpfs/warwick/csc/orac/software/Core/GCCcore/6.3.0/bin/../lib/gcc/x86_64-pc-linux-gnu/6.3.0/ -mtune=generic -march=x86-64 -g -O0
REM seed -1459123892 748143405 -912343057 -1227821990 1225586754 668585541 -1617998968 665754634 -1095814947 272648228 1757814294 -625342596
REM
REM C.POTCAR (d86ddea03c3ceb6dc662c8ad6801f873)
REM 
CELL 1.54180   15.00000   15.00000   15.00000   90.00000   90.00000   90.00000
LATT -1
SFAC C  
C      1  0.4768400529550  0.3767174919202  0.2472434535791 1.0
C      1  0.7337781886318  0.4990369394012  0.7405081434202 1.0
C      1  0.4689100062836  0.3201056559392  0.5551198845991 1.0
C      1  0.6298905425963  0.5104415470161  0.4548075354423 1.0
C      1  0.7023781697764  0.3401465464385  0.4223295329134 1.0
C      1  0.3492995136136  0.6774264022961  0.5950898279326 1.0
C      1  0.4986073712548  0.7361521023318  0.5826636400150 1.0
C      1  0.4428844749308  0.5973415996242  0.2275212896584 1.0
C      1  0.4345659564575  0.4376275596854  0.6623943050004 1.0
C      1  0.5950182985651  0.7013038160215  0.3237292650441 1.0
C      1  0.6397991386339  0.6287099588912  0.2888502803535 1.0
C      1  0.8295090736097  0.6250038552713  0.4445273262003 1.0
C      1  0.2515108526318  0.4901992755284  0.3426544889558 1.0
C      1  0.6348459178753  0.7095415565013  0.4893177586090 1.0
C      1  0.5778167684978  0.6386299560844  0.7198351856252 1.0
C      1  0.3166055520730  0.3409930625300  0.2943385108727 1.0
C      1  0.3280089091661  0.2676799709392  0.4765360900171 1.0
C      1  0.6304455711824  0.6666725023032  0.6441113664578 1.0
C      1  0.1777905714188  0.3236886180228  0.5254900377268 1.0
C      1  0.3174973994879  0.6572832318299  0.4291628018810 1.0
C      1  0.6192367756775  0.3138829598795  0.6519754815853 1.0
C      1  0.4364410795629  0.6936873323255  0.6484853374596 1.0
C      1  0.5362804992303  0.4431257996210  0.6388747372903 1.0
C      1  0.4678465629527  0.2616332488871  0.3728122681286 1.0
C      1  0.8191630679447  0.6078221672902  0.5368661494334 1.0
C      1  0.6424909718388  0.4767491798274  0.7456976038169 1.0
C      1  0.6000196611118  0.7459585753378  0.4122218276936 1.0
C      1  0.5208959150811  0.4105594252762  0.3869362155364 1.0
C      1  0.4120695928632  0.3251571468072  0.3073557187256 1.0
C      1  0.5561966249374  0.2799985569676  0.5794121719986 1.0
C      1  0.4620177383263  0.7191295131767  0.4913539470105 1.0
C      1  0.4382650006719  0.3608848523020  0.3959759781817 1.0
C      1  0.4104102258983  0.3422990103860  0.6388396905959 1.0
C      1  0.3172235008687  0.5494003696880  0.3013112524949 1.0
C      1  0.6531719252946  0.4126098198422  0.2790407690533 1.0
C      1  0.4131380975471  0.4936902192961  0.7390023276423 1.0
C      1  0.5113623308696  0.6228345027700  0.5004058269924 1.0
C      1  0.3484760485294  0.6344130540173  0.3405774116160 1.0
C      1  0.5640065431335  0.3683465069478  0.3005929405430 1.0
C      1  0.6235461877997  0.2516399560385  0.5219344016871 1.0
C      1  0.2458118888874  0.3252006201024  0.6783083394785 1.0
C      1  0.5622364354380  0.5328446960765  0.6085941351852 1.0
C      1  0.4773950124845  0.5594038407507  0.7748205920088 1.0
C      1  0.6049764597793  0.5617687595803  0.2271384277937 1.0
C      1  0.4231890958628  0.4826220517590  0.5668553556089 1.0
C      1  0.4804617882066  0.6506375016945  0.7217785997965 1.0
C      1  0.7388050011969  0.3820417541029  0.5021551137213 1.0
C      1  0.5794516004399  0.5528238215139  0.7636268357474 1.0
C      1  0.7054852590928  0.4959792996772  0.3941402732977 1.0
C      1  0.5043118030320  0.7615703426437  0.4117023664293 1.0
C      1  0.4175400137099  0.5343353392873  0.8569434999022 1.0
C      1  0.6921620433466  0.2851146405354  0.5923724455042 1.0
C      1  0.2445419515197  0.6067771206201  0.4559322727266 1.0
C      1  0.6478581797951  0.5855132030807  0.5865818627306 1.0
C      1  0.7376625407721  0.5485650672179  0.5598917448951 1.0
C      1  0.2219062816047  0.5852692111092  0.5452187532669 1.0
C      1  0.6051968217252  0.3994411903490  0.6937695841775 1.0
C      1  0.4208515280553  0.2910534879379  0.4647401292190 1.0
C      1  0.1648811846662  0.4159398809319  0.5477087389234 1.0
C      1  0.2117881448800  0.5237409036457  0.4201542424304 1.0
C      1  0.5938542968978  0.7277344288971  0.5819923823275 1.0
C      1  0.3451589288921  0.5232634488749  0.7971599197709 1.0
C      1  0.6727046075629  0.4985244767289  0.2466051481370 1.0
C      1  0.2589843510931  0.5550424387499  0.7763708256462 1.0
C      1  0.3806224824090  0.5251417596763  0.2337696468639 1.0
C      1  0.2470426529477  0.2787115915908  0.4833306771156 1.0
C      1  0.1829468974617  0.4986656360002  0.5130012207585 1.0
C      1  0.2683075930878  0.6248588290728  0.6176897253934 1.0
C      1  0.3667651937170  0.6949610845075  0.5028769994356 1.0
C      1  0.6126989639989  0.6092176981938  0.4918800517831 1.0
C      1  0.7999128250758  0.5340016567366  0.7024646448148 1.0
C      1  0.7236729335498  0.4787674674247  0.4945813225261 1.0
C      1  0.4851327645827  0.5604346977012  0.5629985413232 1.0
C      1  0.8002086264115  0.6083583895253  0.3677379809431 1.0
C      1  0.2635574183819  0.4011341743447  0.3123260918632 1.0
C      1  0.3293055415091  0.3140843992960  0.6633826541812 1.0
C      1  0.8180549836037  0.5650283634650  0.6160538149194 1.0
C      1  0.7048495333414  0.4042647104505  0.3568565937946 1.0
C      1  0.5163969184438  0.5425098633283  0.2065225162979 1.0
C      1  0.4279825316900  0.6640436303402  0.2939178480971 1.0
C      1  0.5656182671851  0.2789477215375  0.3595323264418 1.0
C      1  0.7204160927956  0.5673913783157  0.3216359343478 1.0
C      1  0.7653809475006  0.3404788523137  0.5820937138593 1.0
C      1  0.4555563549488  0.4608078128678  0.2149453980517 1.0
C      1  0.4970867323590  0.7189259274334  0.3255087735966 1.0
C      1  0.5535938613815  0.4488674394696  0.4598818343791 1.0
C      1  0.5009805767149  0.4190407251464  0.5406693507976 1.0
C      1  0.6323399827818  0.2716944379993  0.4263284164386 1.0
C      1  0.1852608008180  0.3510823509574  0.6156127792231 1.0
C      1  0.2508324245808  0.5948482311785  0.7039364722396 1.0
END
