TITL C-12521-6401-184 -4.546 3375.00 -777.44506133 0 0 95 () n - 1
REM
REM Run started: at 2020.12.25 04:57:00 in /gpfs/home/chem/mssmkc/CARBON/AIRSS/Generating-Clusters/Str-Search/Only-C1/C10-100
REM VASP from code version vasp.5.4.4.18Apr17-6-g9f103f2a35 (build Oct 11 2019 16:45:47) gamma-only
REM
REM
REM
REM
REM ./C.cell (67c5d0192afd7a3ce4a0888e5fe73b87)
REM AIRSS Version 0.9.1 bugfix July 2018 build 013d7b7c2542+ Fri, 06 Jul 2018 19:26:36 +0100
REM compiler GCC version 6.3.0
REM options -cpp -iprefix /gpfs/warwick/csc/orac/software/Core/GCCcore/6.3.0/bin/../lib/gcc/x86_64-pc-linux-gnu/6.3.0/ -mtune=generic -march=x86-64 -g -O0
REM seed -55539912 -1780607214 -1977309889 -714894695 -1154670007 -1482303491 1522520273 -738297190 1118121827 493885904 -111232294 1564029486
REM
REM C.POTCAR (d86ddea03c3ceb6dc662c8ad6801f873)
REM 
CELL 1.54180   15.00000   15.00000   15.00000   90.00000   90.00000   90.00000
LATT -1
SFAC C  
C      1  0.3687771860178  0.4699465307250  0.1249495563297 1.0
C      1  0.6748131018385  0.4865901854678  0.3621507833728 1.0
C      1  0.7046193946982  0.2778829240280  0.3472386532027 1.0
C      1  0.3040168700291  0.7494032261625  0.4865141150676 1.0
C      1  0.7497977022328  0.3942682409091  0.4824285849834 1.0
C      1  0.6143846032562  0.7574625966193  0.6491470989793 1.0
C      1  0.6666128198908  0.5716369092608  0.3148727898656 1.0
C      1  0.7019946948577  0.6499668532427  0.4539899203316 1.0
C      1  0.5610637637300  0.8047354332851  0.5842239085611 1.0
C      1  0.7260967008040  0.3420891190194  0.6414920253670 1.0
C      1  0.5604880769309  0.2594668844255  0.4356471299779 1.0
C      1  0.4684095548920  0.8102411757582  0.6180160546962 1.0
C      1  0.5935780787262  0.7755609820616  0.4975444078630 1.0
C      1  0.6409674028766  0.2375575951478  0.3101981340214 1.0
C      1  0.2629306152141  0.4997509215118  0.4213675942529 1.0
C      1  0.6568207474615  0.3062401290143  0.6938136703054 1.0
C      1  0.3228648870728  0.3591465666599  0.6336197489499 1.0
C      1  0.6226494521719  0.5753310681641  0.2332978428010 1.0
C      1  0.5413590584897  0.7580744264704  0.4185475430642 1.0
C      1  0.3149611381486  0.5856818116781  0.4010908358048 1.0
C      1  0.4687298036227  0.2109010795729  0.3099226462340 1.0
C      1  0.3633434276961  0.2917786720139  0.7091818880215 1.0
C      1  0.6724561937404  0.4791507788837  0.6779239168087 1.0
C      1  0.5175807402761  0.4704953501569  0.2984730991782 1.0
C      1  0.5141833990520  0.2437994173903  0.7052814212682 1.0
C      1  0.2545068685147  0.6251089858787  0.6271258629668 1.0
C      1  0.4724115055970  0.5553719941662  0.3414122589458 1.0
C      1  0.3840499023082  0.7994306645109  0.4673815558178 1.0
C      1  0.6226072518752  0.4528598646278  0.7581521533677 1.0
C      1  0.3140776467828  0.7658142855077  0.5843814440813 1.0
C      1  0.3930868918660  0.8169996502444  0.5653258093857 1.0
C      1  0.2407965080092  0.4855879794568  0.5198983385557 1.0
C      1  0.3308400941702  0.6704245922302  0.3476759864041 1.0
C      1  0.6734639178324  0.7196730290640  0.5132971567736 1.0
C      1  0.5487200409066  0.7081078520379  0.6956796871451 1.0
C      1  0.5987118939571  0.4328635988510  0.3562021139506 1.0
C      1  0.6021348529705  0.3648921113201  0.4313575894844 1.0
C      1  0.6957925786217  0.3193615962540  0.4389456320928 1.0
C      1  0.6888827939736  0.7145842645642  0.6084136295789 1.0
C      1  0.3444214852112  0.2928907284782  0.5568865692709 1.0
C      1  0.7356970237993  0.4809523385291  0.4413220319156 1.0
C      1  0.4206241184636  0.3598258162007  0.7458009304507 1.0
C      1  0.2861513437408  0.6800123468847  0.4283080502636 1.0
C      1  0.5998660513430  0.2360961128555  0.6611133505045 1.0
C      1  0.3840968668481  0.4259586904535  0.6838061484156 1.0
C      1  0.2547788198246  0.3985037499667  0.5567283123202 1.0
C      1  0.4354260822215  0.5035256783524  0.4927749237974 1.0
C      1  0.2771090703100  0.4240433943245  0.3694285118413 1.0
C      1  0.3120545073793  0.6971185856429  0.6511483846198 1.0
C      1  0.3881134961471  0.2315067410680  0.3247214467390 1.0
C      1  0.2370170073752  0.5617431936772  0.5767120176125 1.0
C      1  0.6545006826446  0.6461392802532  0.3716376423408 1.0
C      1  0.5018900871181  0.3444861781097  0.5471755775546 1.0
C      1  0.6006174979036  0.3616210243778  0.7527711156913 1.0
C      1  0.5217181278591  0.6224537463223  0.6549801263845 1.0
C      1  0.5756551650528  0.4061942372456  0.5237270368489 1.0
C      1  0.4153681305971  0.2309501351834  0.5721834327685 1.0
C      1  0.5552942982483  0.5130761921045  0.2104954974405 1.0
C      1  0.5637789537676  0.5134904811069  0.7986518467128 1.0
C      1  0.3258546962131  0.2966534222341  0.3315955744484 1.0
C      1  0.5045399374061  0.5684272400592  0.5246586518755 1.0
C      1  0.3719259773487  0.4243084864338  0.2077240533799 1.0
C      1  0.4184093024209  0.5380160445009  0.1179431815196 1.0
C      1  0.4005283615522  0.5155840514437  0.6640139377251 1.0
C      1  0.4160222676618  0.7073909895487  0.3323344632059 1.0
C      1  0.5124547174832  0.3246031405584  0.7569263009897 1.0
C      1  0.7387785705726  0.6407645181822  0.6350912263243 1.0
C      1  0.4342955587844  0.4189399593719  0.2726063309486 1.0
C      1  0.7689416685891  0.5744882416955  0.5758335709079 1.0
C      1  0.5967193749955  0.2200392400171  0.5669220568981 1.0
C      1  0.7656575054037  0.3659457291992  0.5703696981020 1.0
C      1  0.3995110774410  0.5505671060437  0.5753151236771 1.0
C      1  0.4959819296223  0.6498227205731  0.3029006232824 1.0
C      1  0.6126155598532  0.4719077998007  0.5949121827949 1.0
C      1  0.2778064146514  0.3341888224181  0.4042745680460 1.0
C      1  0.7477999375772  0.5678784166362  0.4844486834734 1.0
C      1  0.5062376227460  0.2465232634719  0.5258003021650 1.0
C      1  0.3916103649510  0.6872702278625  0.7067007724905 1.0
C      1  0.7342172172565  0.5489060713918  0.6602278404565 1.0
C      1  0.4952213624234  0.5602863358162  0.7970164450804 1.0
C      1  0.4550309799344  0.6332469843684  0.5696561630102 1.0
C      1  0.5393036853327  0.6244063998262  0.2124714468226 1.0
C      1  0.4428825776892  0.5910854336149  0.7182307697798 1.0
C      1  0.2815509598063  0.3274390627368  0.4976405221267 1.0
C      1  0.5527752641164  0.2230628799940  0.3427958995026 1.0
C      1  0.4451111052552  0.7697281554202  0.4025261640952 1.0
C      1  0.4993152749004  0.5644938013077  0.1478615334339 1.0
C      1  0.4612462075378  0.7510551066855  0.6954781941721 1.0
C      1  0.4254575044634  0.2301685496953  0.6672621344707 1.0
C      1  0.5687787857425  0.5521133449717  0.5926674418421 1.0
C      1  0.6430913245607  0.2447481944295  0.4899244221010 1.0
C      1  0.5722011170166  0.6919428412781  0.3599581756508 1.0
C      1  0.3372873415690  0.3909643885166  0.2918849158583 1.0
C      1  0.4743508185542  0.4180864144944  0.5101701884434 1.0
C      1  0.4087271516010  0.5461189179223  0.4073005995478 1.0
END
