TITL C-12556-9949-15 -3.985 3375.00 -674.80958725 0 0 85 () n - 1
REM
REM Run started: at 2020.12.25 03:38:35 in /gpfs/home/chem/mssmkc/CARBON/AIRSS/Generating-Clusters/Str-Search/Only-C1/C10-100
REM VASP from code version vasp.5.4.4.18Apr17-6-g9f103f2a35 (build Oct 11 2019 16:45:47) gamma-only
REM
REM
REM
REM
REM ./C.cell (67c5d0192afd7a3ce4a0888e5fe73b87)
REM AIRSS Version 0.9.1 bugfix July 2018 build 013d7b7c2542+ Fri, 06 Jul 2018 19:26:36 +0100
REM compiler GCC version 6.3.0
REM options -cpp -iprefix /gpfs/warwick/csc/orac/software/Core/GCCcore/6.3.0/bin/../lib/gcc/x86_64-pc-linux-gnu/6.3.0/ -mtune=generic -march=x86-64 -g -O0
REM seed 73014738 1393265376 -2131406056 140864274 1582503126 -687577255 -621525158 2105470135 -347099676 1133723382 -670440410 -1841779735
REM
REM C.POTCAR (d86ddea03c3ceb6dc662c8ad6801f873)
REM 
CELL 1.54180   15.00000   15.00000   15.00000   90.00000   90.00000   90.00000
LATT -1
SFAC C  
C      1  0.7628377464246  0.3756385392793  0.5455406368169 1.0
C      1  0.4063212186455  0.2722943566368  0.6523234127392 1.0
C      1  0.6717885023329  0.5364086372582  0.7227099124224 1.0
C      1  0.4835208944669  0.6887193589588  0.3215881946729 1.0
C      1  0.2498498410907  0.4567194792492  0.6195387295725 1.0
C      1  0.5034654658889  0.3727935690596  0.7569797808262 1.0
C      1  0.5344599941323  0.2305200989663  0.5456151394335 1.0
C      1  0.4380091901199  0.7502833348924  0.6279148797577 1.0
C      1  0.3501021441565  0.5632418285548  0.2029025074237 1.0
C      1  0.3902296764689  0.5078172631421  0.4016287203961 1.0
C      1  0.7215922322035  0.5485859696822  0.5065249881386 1.0
C      1  0.3167531710839  0.2983764181471  0.6401586821107 1.0
C      1  0.5049717463478  0.2288508331818  0.4551059960242 1.0
C      1  0.3242110103169  0.4747082980015  0.3316445823662 1.0
C      1  0.4310154461829  0.2594504888394  0.4025604768756 1.0
C      1  0.7125179257057  0.6496830249010  0.4801782948482 1.0
C      1  0.3679581231258  0.4314445959258  0.4703910977038 1.0
C      1  0.5212283573792  0.6974416032244  0.6305829831231 1.0
C      1  0.7279866364442  0.5888588970371  0.6651147143053 1.0
C      1  0.5747090105896  0.6549004462601  0.2922315603188 1.0
C      1  0.6697317034625  0.3420228635473  0.5682781885554 1.0
C      1  0.6752167411564  0.3603644860244  0.3256628610560 1.0
C      1  0.7892891788490  0.4448330233038  0.6004300851887 1.0
C      1  0.4888395783128  0.3297857849958  0.6658051623984 1.0
C      1  0.3855969134596  0.6936634272046  0.3179006915795 1.0
C      1  0.5436341550521  0.6021552964822  0.6324237243467 1.0
C      1  0.6378676097950  0.7880528636501  0.5323067462097 1.0
C      1  0.6590040824788  0.6831136592657  0.3198305023172 1.0
C      1  0.6941077476842  0.7135366719836  0.5513742764063 1.0
C      1  0.3566970251584  0.5721823128547  0.4683343867585 1.0
C      1  0.7671916499308  0.4953529400802  0.4335100875510 1.0
C      1  0.2110297787781  0.3213112651829  0.5319136157712 1.0
C      1  0.4569443954137  0.7926413202006  0.5323806293579 1.0
C      1  0.7872433227650  0.3985655741048  0.4547922015242 1.0
C      1  0.3317609030431  0.5259053979754  0.6335515054492 1.0
C      1  0.4623626735460  0.4437141404359  0.4416272969975 1.0
C      1  0.3738660675564  0.7747082539301  0.4815489981641 1.0
C      1  0.6890860532248  0.6723063861253  0.6395062506638 1.0
C      1  0.2541148386310  0.2592212806484  0.5809917427509 1.0
C      1  0.6124773353181  0.4208149307064  0.5801411204061 1.0
C      1  0.4193805727368  0.3316455667241  0.2345329636772 1.0
C      1  0.5685418366150  0.4755872975074  0.3161322229840 1.0
C      1  0.5137085491817  0.4187656791207  0.6119780648820 1.0
C      1  0.5484390309020  0.5570405458773  0.5425696246092 1.0
C      1  0.5551764823282  0.8102737152205  0.5160839499646 1.0
C      1  0.4677460568603  0.4598633838855  0.6995136227364 1.0
C      1  0.3578730536701  0.7001904054157  0.6275542658356 1.0
C      1  0.3587856214201  0.6161708101172  0.6790448272682 1.0
C      1  0.5283900423216  0.6328083132199  0.4803684391905 1.0
C      1  0.6016480360277  0.6756301600056  0.6827031918001 1.0
C      1  0.7443585681557  0.4760814672832  0.3439621709764 1.0
C      1  0.3709504510570  0.4543099650732  0.6896066641452 1.0
C      1  0.5962058463074  0.3257553337828  0.3641275876755 1.0
C      1  0.4933273342428  0.5413806148180  0.7570555917477 1.0
C      1  0.6714041381149  0.2342111767475  0.4584558415024 1.0
C      1  0.3519881362068  0.7200945150519  0.4023463647888 1.0
C      1  0.6318963104873  0.5026054010447  0.5366873918042 1.0
C      1  0.2170104179792  0.3809058791431  0.4604087349905 1.0
C      1  0.3515153219305  0.4745436791001  0.2324994075443 1.0
C      1  0.2685764647721  0.5602588771560  0.3051448848735 1.0
C      1  0.3836689942186  0.3945969525670  0.1934875530704 1.0
C      1  0.7019162414149  0.6717812151251  0.3914148935050 1.0
C      1  0.4212457507886  0.6113285415765  0.7481012405027 1.0
C      1  0.5491199749106  0.5638270951229  0.3269923623138 1.0
C      1  0.3599430265205  0.3121713241758  0.3818429832502 1.0
C      1  0.5205402233898  0.7114736574707  0.5319553054903 1.0
C      1  0.3016092337872  0.3911405896227  0.4037735211269 1.0
C      1  0.5109143265893  0.6236973688208  0.3902433978294 1.0
C      1  0.3067678126839  0.3918236072909  0.6658354813570 1.0
C      1  0.4860541963585  0.2406387947894  0.6239569375151 1.0
C      1  0.5062412587737  0.4479007949581  0.8007410951734 1.0
C      1  0.4441191240842  0.3252756054598  0.3275203382509 1.0
C      1  0.3766624795792  0.5104899715980  0.5429392715617 1.0
C      1  0.3235560319099  0.7159335271905  0.5396679363132 1.0
C      1  0.5182323958794  0.3957117816771  0.3628736748331 1.0
C      1  0.3138362821066  0.6528897376159  0.4644331438024 1.0
C      1  0.7718024327723  0.5320684393922  0.5991860313603 1.0
C      1  0.5826008109059  0.5798860288159  0.7216105983693 1.0
C      1  0.3358760972473  0.6216956444305  0.2768588443254 1.0
C      1  0.4773591480735  0.4830612322928  0.5366804347173 1.0
C      1  0.6317369798307  0.2582120687821  0.5421885057811 1.0
C      1  0.2087920766694  0.4208856148698  0.5465781435359 1.0
C      1  0.5900540721087  0.2450498425628  0.4091730560725 1.0
C      1  0.7601245608956  0.3774375879680  0.3666389067994 1.0
C      1  0.6607140104625  0.4519112696301  0.3009846668186 1.0
END
