TITL C-12521-6401-195 -1.86 3375.00 -310.64546141 0 0 39 () n - 1
REM
REM Run started: at 2020.12.25 07:47:48 in /gpfs/home/chem/mssmkc/CARBON/AIRSS/Generating-Clusters/Str-Search/Only-C1/C10-100
REM VASP from code version vasp.5.4.4.18Apr17-6-g9f103f2a35 (build Oct 11 2019 16:45:47) gamma-only
REM
REM
REM
REM
REM ./C.cell (67c5d0192afd7a3ce4a0888e5fe73b87)
REM AIRSS Version 0.9.1 bugfix July 2018 build 013d7b7c2542+ Fri, 06 Jul 2018 19:26:36 +0100
REM compiler GCC version 6.3.0
REM options -cpp -iprefix /gpfs/warwick/csc/orac/software/Core/GCCcore/6.3.0/bin/../lib/gcc/x86_64-pc-linux-gnu/6.3.0/ -mtune=generic -march=x86-64 -g -O0
REM seed 628087424 866790136 2138464441 -1928364547 711472586 1357229141 1070304875 899775502 279096821 1270899865 -728495591 645617689
REM
REM C.POTCAR (d86ddea03c3ceb6dc662c8ad6801f873)
REM 
CELL 1.54180   15.00000   15.00000   15.00000   90.00000   90.00000   90.00000
LATT -1
SFAC C  
C      1  0.5006423882015  0.3066034412705  0.4482084782097 1.0
C      1  0.3549080058303  0.3124616125520  0.5475305886959 1.0
C      1  0.4393209816033  0.6968412139281  0.4999820341484 1.0
C      1  0.4050431572177  0.3077766011198  0.4676916261361 1.0
C      1  0.4063317782620  0.6185011281343  0.4540826955107 1.0
C      1  0.6396497104995  0.6193772950738  0.5242750274161 1.0
C      1  0.5783477017719  0.4877456112058  0.3228579809885 1.0
C      1  0.4238546698077  0.4468448371986  0.6418201484398 1.0
C      1  0.4281085805098  0.3734960127244  0.3256232074227 1.0
C      1  0.4318017699625  0.6184315767170  0.6449095640371 1.0
C      1  0.5747127994361  0.3815711945745  0.6009150959560 1.0
C      1  0.5541430918166  0.4851581299435  0.7195757746747 1.0
C      1  0.3067328880258  0.3962442701434  0.5419458380790 1.0
C      1  0.3645238182700  0.3829816461882  0.6148032524699 1.0
C      1  0.5313014231923  0.7171161541624  0.4687468530132 1.0
C      1  0.5126287866770  0.4779085548134  0.4595233927455 1.0
C      1  0.3368372117518  0.4515448204228  0.4701908030250 1.0
C      1  0.5531410478120  0.6572686094176  0.3998493498151 1.0
C      1  0.4987208361285  0.5110225703927  0.3750706257060 1.0
C      1  0.5896722729848  0.7012190589045  0.5443797270352 1.0
C      1  0.3745692347316  0.3825139821615  0.4115784877629 1.0
C      1  0.3733469218980  0.3915454206448  0.2586910246208 1.0
C      1  0.5159359234987  0.4213358447358  0.6682376257134 1.0
C      1  0.6335279065726  0.6043616393236  0.4247304031001 1.0
C      1  0.6483572493392  0.4350735507376  0.3919442279936 1.0
C      1  0.5347298819718  0.7071577808235  0.6228062911263 1.0
C      1  0.6014096897731  0.4256800245785  0.4767253457354 1.0
C      1  0.5627262251963  0.3408313052432  0.5122200126728 1.0
C      1  0.5917053176843  0.3901423453213  0.3247621448367 1.0
C      1  0.4409331527954  0.6995259641427  0.5926648018422 1.0
C      1  0.4016152384759  0.5380356024100  0.6057333764832 1.0
C      1  0.6267581991352  0.4568273326385  0.5665195230456 1.0
C      1  0.5253656212495  0.6362887015456  0.6836741746254 1.0
C      1  0.6312797605947  0.5483326802000  0.5917338940427 1.0
C      1  0.4725964918403  0.6018842766353  0.3875549676638 1.0
C      1  0.5862469007190  0.5627961861839  0.6805854206931 1.0
C      1  0.6548524810323  0.5302413826226  0.3671533633655 1.0
C      1  0.3773792473756  0.5373796833875  0.5057126748548 1.0
C      1  0.5162417363557  0.3399320577767  0.3549901762969 1.0
END
