TITL C-12521-6401-173 -4.633 3375.00 -792.62258991 0 0 97 () n - 1
REM
REM Run started: at 2020.12.25 02:13:28 in /gpfs/home/chem/mssmkc/CARBON/AIRSS/Generating-Clusters/Str-Search/Only-C1/C10-100
REM VASP from code version vasp.5.4.4.18Apr17-6-g9f103f2a35 (build Oct 11 2019 16:45:47) gamma-only
REM
REM
REM
REM
REM ./C.cell (67c5d0192afd7a3ce4a0888e5fe73b87)
REM AIRSS Version 0.9.1 bugfix July 2018 build 013d7b7c2542+ Fri, 06 Jul 2018 19:26:36 +0100
REM compiler GCC version 6.3.0
REM options -cpp -iprefix /gpfs/warwick/csc/orac/software/Core/GCCcore/6.3.0/bin/../lib/gcc/x86_64-pc-linux-gnu/6.3.0/ -mtune=generic -march=x86-64 -g -O0
REM seed -2068730865 621398013 1640351864 -1410431966 -404998169 1200505981 2006927310 -646576957 -1018152292 1514269036 -201750392 -1815977468
REM
REM C.POTCAR (d86ddea03c3ceb6dc662c8ad6801f873)
REM 
CELL 1.54180   15.00000   15.00000   15.00000   90.00000   90.00000   90.00000
LATT -1
SFAC C  
C      1  0.4914902113173  0.4421900241308  0.6265505201332 1.0
C      1  0.4546551804655  0.4697213740505  0.4213555073462 1.0
C      1  0.4553624793837  0.3123667901112  0.4480929484072 1.0
C      1  0.4660100295352  0.6996614305685  0.3105631150758 1.0
C      1  0.4500114145987  0.5551879500605  0.4674798393698 1.0
C      1  0.4033612128376  0.3182088100159  0.2944082137626 1.0
C      1  0.4710520622669  0.6147693929989  0.2584671411434 1.0
C      1  0.5274804639349  0.2741115662148  0.5146568150200 1.0
C      1  0.3221676282254  0.1986577193259  0.4878960836059 1.0
C      1  0.7089283667145  0.7011191992256  0.3617398038461 1.0
C      1  0.6377853389731  0.6314675232736  0.2496713175942 1.0
C      1  0.7108361815207  0.3592512922250  0.5875915789212 1.0
C      1  0.6722880584629  0.7418531031818  0.4379596110285 1.0
C      1  0.6169643476248  0.5383411442506  0.5668828840970 1.0
C      1  0.5230690385918  0.7797868782306  0.6054065694080 1.0
C      1  0.2774520701544  0.4429526551612  0.3105879862752 1.0
C      1  0.5640018607669  0.4588895333790  0.5696546513928 1.0
C      1  0.5506628893979  0.6884499667892  0.5016466169788 1.0
C      1  0.2818136162494  0.6005701896026  0.5164248339199 1.0
C      1  0.4734338355625  0.6669731381352  0.7576381344840 1.0
C      1  0.5910913396570  0.7483973383719  0.6677746650424 1.0
C      1  0.3101456116387  0.6944680042334  0.5116200350773 1.0
C      1  0.3627407166496  0.5350283217378  0.5117074405248 1.0
C      1  0.7667280677335  0.4637739841508  0.4796708461794 1.0
C      1  0.6604982150429  0.4802998420862  0.2808201692590 1.0
C      1  0.5489339296254  0.3112429154454  0.2752288506183 1.0
C      1  0.6191476978353  0.2513917381908  0.4705748298452 1.0
C      1  0.7586032938609  0.5651727062495  0.4590636602970 1.0
C      1  0.4295974357195  0.7508266696911  0.6230335454245 1.0
C      1  0.4853922635899  0.4537888536668  0.2348807969373 1.0
C      1  0.6128677448164  0.2311683050356  0.3834106992100 1.0
C      1  0.6278370457660  0.6180494391178  0.7293832487822 1.0
C      1  0.6261589147304  0.5173498822928  0.7558040627665 1.0
C      1  0.4076303322978  0.6813985837111  0.6876625520561 1.0
C      1  0.2371572011732  0.6231451186298  0.3671103360329 1.0
C      1  0.3009830820544  0.6695644206532  0.3381865524027 1.0
C      1  0.3337529368163  0.4933559097944  0.2732725762425 1.0
C      1  0.6355924269156  0.7106705812053  0.2972438884812 1.0
C      1  0.4194338438230  0.5253337335677  0.2538839454777 1.0
C      1  0.7946813073395  0.5763659717515  0.6295043111803 1.0
C      1  0.7642913103066  0.6642783133427  0.6213638437249 1.0
C      1  0.5311017790715  0.5019752218136  0.7771724601151 1.0
C      1  0.6676515456825  0.3388296933954  0.4976703415139 1.0
C      1  0.6673009409231  0.3695632162629  0.6742506876285 1.0
C      1  0.3642768763644  0.7397910690435  0.4503198546999 1.0
C      1  0.7454734728247  0.6101124152608  0.3630907008367 1.0
C      1  0.6434455303257  0.6711933943601  0.4921303776224 1.0
C      1  0.5582675955644  0.5872884412345  0.2317933174712 1.0
C      1  0.6915201864291  0.4591575435925  0.7114246300420 1.0
C      1  0.2002172508650  0.4780686635326  0.4506162275750 1.0
C      1  0.7135184629973  0.4034467468389  0.4315224762414 1.0
C      1  0.2275074007206  0.4110199331035  0.3832066643546 1.0
C      1  0.3078061855043  0.5498672699844  0.6008090784179 1.0
C      1  0.6678180670060  0.4124434537909  0.3480911985611 1.0
C      1  0.6165075500041  0.6036388943961  0.6322496813994 1.0
C      1  0.5725993422180  0.4920322010659  0.2336762352211 1.0
C      1  0.5933094467727  0.3213190258019  0.7043643043335 1.0
C      1  0.5600972439199  0.6934536255626  0.7400311635243 1.0
C      1  0.4692384159775  0.5753846915448  0.7859541206540 1.0
C      1  0.5728767724175  0.3798594089102  0.5082089048289 1.0
C      1  0.2638979389501  0.3045311934985  0.5970622869780 1.0
C      1  0.4544984215287  0.4520576270739  0.7192589365836 1.0
C      1  0.7018644127456  0.5672354170720  0.2893912720359 1.0
C      1  0.7643001519918  0.4910580071863  0.6525771119818 1.0
C      1  0.4927579634267  0.2290376377059  0.5994390617649 1.0
C      1  0.4010078964529  0.2157122367888  0.6273068439541 1.0
C      1  0.3873492711911  0.3676341412758  0.6909505197583 1.0
C      1  0.5520961328260  0.7457285973299  0.3332649989685 1.0
C      1  0.3973574895395  0.3658200521675  0.5110930061304 1.0
C      1  0.2580325064976  0.4618409329008  0.6138821023734 1.0
C      1  0.2347872105102  0.3244438616137  0.4301237216528 1.0
C      1  0.2915291641012  0.3808253312590  0.6552234491514 1.0
C      1  0.7655186913806  0.4350171352824  0.5735480653308 1.0
C      1  0.3743683584398  0.7512225235875  0.5465179997406 1.0
C      1  0.4003105365633  0.5358474927877  0.7353609597325 1.0
C      1  0.5840501308825  0.3672398085092  0.3460851040361 1.0
C      1  0.4253974331519  0.3852175528945  0.5995766804854 1.0
C      1  0.6672465553098  0.5817911216686  0.4953345582566 1.0
C      1  0.5806211761400  0.2260782526841  0.3004052368424 1.0
C      1  0.4271186892297  0.2755476786663  0.6986465053675 1.0
C      1  0.4933213469034  0.6299964195883  0.4728654624437 1.0
C      1  0.5193155225628  0.3893407154853  0.4196099157118 1.0
C      1  0.5276823903693  0.2660954694065  0.6869372768287 1.0
C      1  0.3743402766999  0.4458797799448  0.4695330645598 1.0
C      1  0.3596223590768  0.5947544371488  0.6751869026670 1.0
C      1  0.3868236358850  0.2804320069274  0.3729975710485 1.0
C      1  0.3202047343586  0.2268379715996  0.5771285055876 1.0
C      1  0.6727316781044  0.6813576803227  0.6543037946986 1.0
C      1  0.5295361993597  0.7868809245148  0.5057978957904 1.0
C      1  0.2058765753073  0.4356753004743  0.5364592457777 1.0
C      1  0.2152622866717  0.3409172609120  0.5234236927529 1.0
C      1  0.3796427543851  0.7166452988177  0.3571840112471 1.0
C      1  0.4687982470346  0.3583107078751  0.2464053439776 1.0
C      1  0.2215009048679  0.5696681489350  0.4416555255927 1.0
C      1  0.5798485330624  0.7845072204207  0.4221933085051 1.0
C      1  0.3014394931931  0.2559862856146  0.4175380199610 1.0
C      1  0.7973178617350  0.6147821467074  0.5432746893122 1.0
END
