TITL C-12556-9949-97 -4.314 3375.00 -744.56744029 0 0 91 () n - 1
REM
REM Run started: at 2020.12.25 20:47:45 in /gpfs/home/chem/mssmkc/CARBON/AIRSS/Generating-Clusters/Str-Search/Only-C1/C10-100
REM VASP from code version vasp.5.4.4.18Apr17-6-g9f103f2a35 (build Oct 11 2019 16:45:47) gamma-only
REM
REM
REM
REM
REM ./C.cell (67c5d0192afd7a3ce4a0888e5fe73b87)
REM AIRSS Version 0.9.1 bugfix July 2018 build 013d7b7c2542+ Fri, 06 Jul 2018 19:26:36 +0100
REM compiler GCC version 6.3.0
REM options -cpp -iprefix /gpfs/warwick/csc/orac/software/Core/GCCcore/6.3.0/bin/../lib/gcc/x86_64-pc-linux-gnu/6.3.0/ -mtune=generic -march=x86-64 -g -O0
REM seed -411520980 310296884 -1889184714 1695089603 -1086488237 28806146 -2036605477 1077262471 481243232 1338354473 565918361 1671960482
REM
REM C.POTCAR (d86ddea03c3ceb6dc662c8ad6801f873)
REM 
CELL 1.54180   15.00000   15.00000   15.00000   90.00000   90.00000   90.00000
LATT -1
SFAC C  
C      1  0.6076230373188  0.3543307934459  0.3082650264163 1.0
C      1  0.5776688555202  0.7877884968271  0.5325517886502 1.0
C      1  0.4652786457468  0.7652642207291  0.6708963606270 1.0
C      1  0.7266902638883  0.3797503989427  0.4048846795023 1.0
C      1  0.3637592882846  0.2944023481294  0.5747822510200 1.0
C      1  0.2321916758241  0.5139526679069  0.4059832414685 1.0
C      1  0.3478204110324  0.2780770401608  0.3667415320628 1.0
C      1  0.3806288438284  0.5326527648093  0.3258057773292 1.0
C      1  0.5890204724115  0.4301002140397  0.2422054101784 1.0
C      1  0.7664318489156  0.7446777233252  0.4102986618451 1.0
C      1  0.5479683776493  0.5822256756440  0.2682160862430 1.0
C      1  0.3324879872810  0.6353482748540  0.4421516887253 1.0
C      1  0.5351960105558  0.4958628318161  0.7702632278054 1.0
C      1  0.4953636600341  0.4825875989866  0.4445672000972 1.0
C      1  0.4655262410268  0.5240935024194  0.2632839225686 1.0
C      1  0.5264378540756  0.6616450691680  0.8012603861351 1.0
C      1  0.6509801773920  0.2550735744250  0.6009587985297 1.0
C      1  0.3722691270443  0.4498425671480  0.8143499720105 1.0
C      1  0.4143316791037  0.4904944843934  0.5935024476572 1.0
C      1  0.3912299801454  0.7177641043965  0.6953941861544 1.0
C      1  0.4179059521557  0.3269797548957  0.6457613014916 1.0
C      1  0.5932010099925  0.4898212021314  0.6925457145510 1.0
C      1  0.6457134268673  0.2582095001958  0.4615206625985 1.0
C      1  0.2650785575356  0.3274371679450  0.3854708552390 1.0
C      1  0.5007610773916  0.2791794193140  0.6401518797809 1.0
C      1  0.2343360635416  0.4318048412798  0.7051682449854 1.0
C      1  0.6844411412122  0.2956892790662  0.3606345050125 1.0
C      1  0.4509924950691  0.3546527967040  0.2645318561682 1.0
C      1  0.4694509106224  0.7640914411566  0.4225175893722 1.0
C      1  0.2863146574775  0.4838325130696  0.3292506986842 1.0
C      1  0.3157399093902  0.3619555395770  0.5260674896823 1.0
C      1  0.4855007430852  0.6376824004905  0.4563605223398 1.0
C      1  0.5339384319749  0.6095877974950  0.5957280523279 1.0
C      1  0.4530883716974  0.4511374545659  0.7640046471430 1.0
C      1  0.7093339849454  0.2901962455405  0.5309072087637 1.0
C      1  0.7227050540101  0.5919665749333  0.4373899364541 1.0
C      1  0.5006333001651  0.2158493644536  0.5655064747698 1.0
C      1  0.7079505361518  0.5900943236296  0.6042378977980 1.0
C      1  0.5548024891563  0.3867039559425  0.5540104398690 1.0
C      1  0.2277465323610  0.5773220390185  0.5554616729095 1.0
C      1  0.4038473155096  0.6539331869083  0.5113566004571 1.0
C      1  0.6236832103810  0.4009396818757  0.4026531243141 1.0
C      1  0.4883604039498  0.7871134876326  0.5773147428008 1.0
C      1  0.5757902441249  0.3331009717853  0.4641364306959 1.0
C      1  0.7544205593612  0.3659987560953  0.5028195122788 1.0
C      1  0.5998573507518  0.4106258549451  0.6392077428957 1.0
C      1  0.4933166240699  0.4371405452898  0.2371641279743 1.0
C      1  0.2683833937391  0.6162231205524  0.6269769014301 1.0
C      1  0.6215180221652  0.5771649763491  0.6523810885947 1.0
C      1  0.7576372461488  0.5453590676467  0.3608783356765 1.0
C      1  0.7518441085528  0.6733214872255  0.4740328135727 1.0
C      1  0.3502072587865  0.6465243908520  0.6522228157454 1.0
C      1  0.5932493246841  0.2052177036430  0.5388355724756 1.0
C      1  0.7135011590728  0.6766822183559  0.5626640784120 1.0
C      1  0.3756316761032  0.4404840785784  0.5098828024607 1.0
C      1  0.4177984173395  0.2530493099254  0.4271365068113 1.0
C      1  0.6063905794912  0.7370359349705  0.3547325281352 1.0
C      1  0.6245155350041  0.5186211105327  0.2511337490284 1.0
C      1  0.7731692362996  0.4393502680623  0.5577479603661 1.0
C      1  0.5846575057391  0.6734039422071  0.6539627163425 1.0
C      1  0.3188027481098  0.4315186010193  0.7401253421735 1.0
C      1  0.4639059153631  0.6782901786738  0.3670253353679 1.0
C      1  0.5195306375812  0.3130508365283  0.3161018116562 1.0
C      1  0.5891193732474  0.4903889955607  0.4198198535784 1.0
C      1  0.6985471341107  0.7445463420079  0.3593966119850 1.0
C      1  0.2382296293130  0.3620209572617  0.4673174652703 1.0
C      1  0.4158863892524  0.2313025740031  0.5213346119836 1.0
C      1  0.3778658387786  0.6269244638412  0.3596224062821 1.0
C      1  0.2549210038749  0.5891474459891  0.4608338170807 1.0
C      1  0.4777026189612  0.4432220042401  0.5342119286880 1.0
C      1  0.5363531059898  0.5799971637083  0.8138475307409 1.0
C      1  0.4051639118916  0.4217077693672  0.6788982864925 1.0
C      1  0.4246820085682  0.5945326037713  0.5965489984150 1.0
C      1  0.4105579827040  0.4793912095931  0.4150660409258 1.0
C      1  0.5605192373397  0.7852121205741  0.4300386353049 1.0
C      1  0.1856680553905  0.4883869120940  0.5565064026472 1.0
C      1  0.7110674099330  0.5159681712741  0.2855696666092 1.0
C      1  0.5927098983234  0.3121521886610  0.6534229677924 1.0
C      1  0.5600645403872  0.6132123755197  0.5007529181082 1.0
C      1  0.7571156605174  0.4543746556148  0.3465087128362 1.0
C      1  0.6319528096300  0.5632367295866  0.4554833460156 1.0
C      1  0.5288444498647  0.7152145884718  0.7242978185496 1.0
C      1  0.5017261885362  0.2898923352224  0.4035670080998 1.0
C      1  0.7635718505318  0.5167128489802  0.5854845128465 1.0
C      1  0.4315591584257  0.7521633687162  0.5123355238744 1.0
C      1  0.5471789632892  0.6684389596635  0.3134289181471 1.0
C      1  0.2853634840148  0.3919423556480  0.3117038461527 1.0
C      1  0.1969203870422  0.4496340098220  0.4697133106016 1.0
C      1  0.6351575072726  0.7293648257086  0.5825136935663 1.0
C      1  0.3646656544497  0.3367294961394  0.2917495262533 1.0
C      1  0.1883280941498  0.4399053563338  0.6359425065204 1.0
END
