TITL C-12556-9949-159 -0.906 3375.00 -133.15384793 0 0 17 () n - 1
REM
REM Run started: at 2020.12.26 11:32:38 in /gpfs/home/chem/mssmkc/CARBON/AIRSS/Generating-Clusters/Str-Search/Only-C1/C10-100
REM VASP from code version vasp.5.4.4.18Apr17-6-g9f103f2a35 (build Oct 11 2019 16:45:47) gamma-only
REM
REM
REM
REM
REM ./C.cell (67c5d0192afd7a3ce4a0888e5fe73b87)
REM AIRSS Version 0.9.1 bugfix July 2018 build 013d7b7c2542+ Fri, 06 Jul 2018 19:26:36 +0100
REM compiler GCC version 6.3.0
REM options -cpp -iprefix /gpfs/warwick/csc/orac/software/Core/GCCcore/6.3.0/bin/../lib/gcc/x86_64-pc-linux-gnu/6.3.0/ -mtune=generic -march=x86-64 -g -O0
REM seed 1353833941 -1069260614 1205471665 789239309 1222552868 221679690 -1010146326 559670801 -257419909 1805807964 -1245842942 -286621719
REM
REM C.POTCAR (d86ddea03c3ceb6dc662c8ad6801f873)
REM 
CELL 1.54180   15.00000   15.00000   15.00000   90.00000   90.00000   90.00000
LATT -1
SFAC C  
C      1  0.5335636076737  0.5508235448358  0.6816949881433 1.0
C      1  0.5437462632625  0.6362390554006  0.5342789928181 1.0
C      1  0.4761839982381  0.6210101301396  0.4745182162501 1.0
C      1  0.4714861476898  0.4948301578787  0.6730178072946 1.0
C      1  0.6164208839938  0.4729924508004  0.3596196633522 1.0
C      1  0.4101854144088  0.4373654743479  0.6447978541692 1.0
C      1  0.4493659445340  0.4737966723822  0.3843381896737 1.0
C      1  0.6353020927501  0.6102063765754  0.5452083934718 1.0
C      1  0.5743891539571  0.6041847585729  0.6169352672915 1.0
C      1  0.5348789988952  0.4555910188799  0.3500282076733 1.0
C      1  0.4510051619336  0.5552520505526  0.4298355348562 1.0
C      1  0.3716478654849  0.4011295783911  0.5796981912578 1.0
C      1  0.6860102889063  0.5617664455861  0.4855310482195 1.0
C      1  0.3875266534396  0.4063089827007  0.4121496085358 1.0
C      1  0.6695181309446  0.5127848588114  0.4195404109949 1.0
C      1  0.3549309138977  0.3763017955773  0.4949937250555 1.0
C      1  0.3338384799901  0.3294163485675  0.4138138009425 1.0
END
