TITL C-12556-9949-99 -3.707 3375.00 -624.68254807 0 0 78 () n - 1
REM
REM Run started: at 2020.12.25 21:29:33 in /gpfs/home/chem/mssmkc/CARBON/AIRSS/Generating-Clusters/Str-Search/Only-C1/C10-100
REM VASP from code version vasp.5.4.4.18Apr17-6-g9f103f2a35 (build Oct 11 2019 16:45:47) gamma-only
REM
REM
REM
REM
REM ./C.cell (67c5d0192afd7a3ce4a0888e5fe73b87)
REM AIRSS Version 0.9.1 bugfix July 2018 build 013d7b7c2542+ Fri, 06 Jul 2018 19:26:36 +0100
REM compiler GCC version 6.3.0
REM options -cpp -iprefix /gpfs/warwick/csc/orac/software/Core/GCCcore/6.3.0/bin/../lib/gcc/x86_64-pc-linux-gnu/6.3.0/ -mtune=generic -march=x86-64 -g -O0
REM seed 1859353038 -1510659241 -469701440 -346937641 209157747 -1704471804 -1000165096 376454689 231148667 619581147 -1692037723 -749422215
REM
REM C.POTCAR (d86ddea03c3ceb6dc662c8ad6801f873)
REM 
CELL 1.54180   15.00000   15.00000   15.00000   90.00000   90.00000   90.00000
LATT -1
SFAC C  
C      1  0.7004840261911  0.4094966534937  0.5557129782715 1.0
C      1  0.4263521064025  0.6518187360147  0.2589315603189 1.0
C      1  0.5511826556839  0.5807843507875  0.7731309011232 1.0
C      1  0.2571457884502  0.5138503072382  0.7615551816547 1.0
C      1  0.4508948072803  0.4045281551586  0.2303257709644 1.0
C      1  0.3309678849651  0.6036766831481  0.5126581872842 1.0
C      1  0.6823763862008  0.4612244240949  0.3628793023302 1.0
C      1  0.6419788059525  0.4571037698503  0.7057017869934 1.0
C      1  0.4947076239039  0.5825594931090  0.4811373727409 1.0
C      1  0.5573773101624  0.5290934465060  0.2019986185088 1.0
C      1  0.7233364204881  0.8086022688773  0.4416499461027 1.0
C      1  0.6913891228938  0.7648204906703  0.5121060400749 1.0
C      1  0.6009053380913  0.5826798955431  0.3090342149830 1.0
C      1  0.4753117273539  0.4065125750048  0.4649842701683 1.0
C      1  0.6266154782722  0.6391607452495  0.6280628046260 1.0
C      1  0.6603444720518  0.2423150895601  0.4905125666025 1.0
C      1  0.4739672913801  0.4384000273563  0.5504489186210 1.0
C      1  0.5956942120364  0.2759013488971  0.5430236579881 1.0
C      1  0.4150309916666  0.5557697472503  0.2778264593212 1.0
C      1  0.6658149342816  0.3650098316343  0.3969075800843 1.0
C      1  0.3140930026207  0.3690687269446  0.3762630093719 1.0
C      1  0.4084185774768  0.6278934439611  0.4430751136242 1.0
C      1  0.3836408648254  0.2457735916037  0.6716896276803 1.0
C      1  0.4615466211450  0.6033701080656  0.6498382129220 1.0
C      1  0.6650577262633  0.4789990048841  0.6142999421482 1.0
C      1  0.8322029484884  0.5273535076917  0.5604957068009 1.0
C      1  0.7606340632647  0.4732713587407  0.5690140091169 1.0
C      1  0.2692846600884  0.5291828109857  0.5046060553330 1.0
C      1  0.6471956395470  0.5440808652772  0.2341720847570 1.0
C      1  0.6846028652609  0.4618030736248  0.2651519858494 1.0
C      1  0.4121050893588  0.4711704865471  0.7343170210478 1.0
C      1  0.6421518796327  0.7270443879929  0.5798657041108 1.0
C      1  0.4954983169872  0.7660425960118  0.5098030927425 1.0
C      1  0.6051125322195  0.3367985631039  0.3230420709908 1.0
C      1  0.5493174331018  0.7444070776493  0.5868566242314 1.0
C      1  0.3871946111798  0.3169668423053  0.3535451624673 1.0
C      1  0.3763048117235  0.6547380980832  0.6556161534976 1.0
C      1  0.2992376991405  0.3663607934213  0.4749561341888 1.0
C      1  0.3180710563677  0.4617674943348  0.7089974422729 1.0
C      1  0.5448871793451  0.8029648399156  0.4384034058510 1.0
C      1  0.2502456460358  0.5125592021957  0.3313179870843 1.0
C      1  0.3534017374721  0.6772204140342  0.5652739989227 1.0
C      1  0.3037922402780  0.4390236296486  0.3095265540252 1.0
C      1  0.2804771216274  0.6000449364484  0.3483186426913 1.0
C      1  0.4769904345445  0.4051795078795  0.7090296301383 1.0
C      1  0.4493774950657  0.5674862959818  0.7469203249857 1.0
C      1  0.4472093413522  0.3249799634000  0.2808439354500 1.0
C      1  0.2406543310466  0.5472081576426  0.4180712017736 1.0
C      1  0.2839781258614  0.5942811131667  0.7663247567476 1.0
C      1  0.2752962359072  0.4376293785397  0.5413425352458 1.0
C      1  0.3578291402307  0.3287599847445  0.6195016267318 1.0
C      1  0.3642565277013  0.6352257208565  0.7455110601770 1.0
C      1  0.4605139450583  0.3653435745592  0.6200828521785 1.0
C      1  0.8940748500191  0.5845291704718  0.5491584463342 1.0
C      1  0.4163467530734  0.7137315120137  0.5016930492662 1.0
C      1  0.6531065447876  0.3500359594029  0.4982549965969 1.0
C      1  0.5982133980672  0.4994712251471  0.7778111467245 1.0
C      1  0.5019531478560  0.2735877506695  0.5803430290039 1.0
C      1  0.6044635437036  0.5520935981493  0.5745623513341 1.0
C      1  0.3003007165991  0.4095143318780  0.6291534795958 1.0
C      1  0.6172591472343  0.3952750387388  0.2462892962979 1.0
C      1  0.5634644982770  0.4191000552870  0.7405545305102 1.0
C      1  0.3834271235354  0.4661938607704  0.2594236183349 1.0
C      1  0.4375851409643  0.2726893661242  0.5007798577681 1.0
C      1  0.6297437459424  0.8112674684850  0.4344741371038 1.0
C      1  0.4567824564447  0.2117426611550  0.6485227793875 1.0
C      1  0.5866811959148  0.5639009160264  0.4718492096924 1.0
C      1  0.7244415017626  0.2901137158965  0.4427998779189 1.0
C      1  0.3500171833541  0.3032967425683  0.5240445088542 1.0
C      1  0.5088987916042  0.5946493769813  0.2615176041948 1.0
C      1  0.4959070314443  0.5394830263942  0.5736799508708 1.0
C      1  0.3774723491842  0.6232476901499  0.3456173498070 1.0
C      1  0.6315100267483  0.5394257509243  0.3902081610934 1.0
C      1  0.4633066386844  0.3083268066870  0.4167440498192 1.0
C      1  0.5918447491534  0.6483781526466  0.7225719111243 1.0
C      1  0.5233449742319  0.3000071020207  0.3355294166321 1.0
C      1  0.5382653873006  0.4350493151450  0.2046473408917 1.0
C      1  0.5291317201861  0.6775815165812  0.6551082169242 1.0
END
