TITL C-12556-9949-164 -0.742 3375.00 -109.79972874 0 0 15 () n - 1
REM
REM Run started: at 2020.12.26 13:02:44 in /gpfs/home/chem/mssmkc/CARBON/AIRSS/Generating-Clusters/Str-Search/Only-C1/C10-100
REM VASP from code version vasp.5.4.4.18Apr17-6-g9f103f2a35 (build Oct 11 2019 16:45:47) gamma-only
REM
REM
REM
REM
REM ./C.cell (67c5d0192afd7a3ce4a0888e5fe73b87)
REM AIRSS Version 0.9.1 bugfix July 2018 build 013d7b7c2542+ Fri, 06 Jul 2018 19:26:36 +0100
REM compiler GCC version 6.3.0
REM options -cpp -iprefix /gpfs/warwick/csc/orac/software/Core/GCCcore/6.3.0/bin/../lib/gcc/x86_64-pc-linux-gnu/6.3.0/ -mtune=generic -march=x86-64 -g -O0
REM seed -597364898 -558569193 -1934248869 2003511808 2145874600 1633537448 -1636494759 -61820280 -1322010783 1295439458 1640705018 1125803488
REM
REM C.POTCAR (d86ddea03c3ceb6dc662c8ad6801f873)
REM 
CELL 1.54180   15.00000   15.00000   15.00000   90.00000   90.00000   90.00000
LATT -1
SFAC C  
C      1  0.7458773873936  0.4294133612578  0.1640139962935 1.0
C      1  0.4830209747466  0.5539870317806  0.4818227678590 1.0
C      1  0.4354542776782  0.3450798576607  0.5390073386548 1.0
C      1  0.6858804408001  0.4532831325629  0.2225567510813 1.0
C      1  0.6297696243995  0.4771306841243  0.2835723728392 1.0
C      1  0.4256361933294  0.4312029384998  0.5897899082239 1.0
C      1  0.4235152486650  0.6378030193438  0.6924400686416 1.0
C      1  0.4248951892220  0.6234217301681  0.5166795505320 1.0
C      1  0.5266661670334  0.5269701133850  0.4100089249134 1.0
C      1  0.3841820364850  0.3904388410484  0.6717476810347 1.0
C      1  0.4562671458389  0.5177258583895  0.5687820063378 1.0
C      1  0.5767462265415  0.5015877177383  0.3464909539173 1.0
C      1  0.4173458715195  0.6707370077759  0.7717930933221 1.0
C      1  0.4348526371039  0.6052704096289  0.6101898241257 1.0
C      1  0.4498906792433  0.3359483966361  0.6311047622235 1.0
END
