TITL C-128256-4848-20 -2.422 3375.00 -402.18306624 0 0 50 (C1) n - 1
REM
REM Run started: at 2020.12.24 17:41:56 in /rds/project/t2_vol4/rds-t2-cs072/BORA/CARBON/AIRSS/Generating-Clusters/Str-Search/Only-C1/C10-100
REM VASP from code version vasp.5.4.4.18Apr17-6-g9f103f2a35 (build Oct 11 2019 16:45:47) gamma-only
REM
REM
REM
REM
REM ./C.cell (67c5d0192afd7a3ce4a0888e5fe73b87)
REM AIRSS Version 0.9.1 bugfix July 2018 build 013d7b7c2542+ Fri, 06 Jul 2018 19:26:36 +0100
REM compiler GCC version 4.8.5 20150623 (Red Hat 4.8.5-39)
REM options -cpp -mtune=generic -march=x86-64 -g -O0
REM seed -1113526530 1318831989 682559620 -1745200318 1771830105 -424041123 661283984 -1458152221 -1930941905 -1197064457 -81814579 1287362837
REM
REM C.POTCAR (d86ddea03c3ceb6dc662c8ad6801f873)
REM 
CELL 1.54180   15.00000   15.00000   15.00000   90.00000   90.00000   90.00000
LATT -1
SFAC C  
C      1  0.6847356294748  0.5617721574568  0.5748792314639 1.0
C      1  0.4701908975229  0.4558601977513  0.5622602253226 1.0
C      1  0.4317369494261  0.4242267355738  0.6558593521524 1.0
C      1  0.4930886901477  0.5435232808881  0.4380443470827 1.0
C      1  0.5575682618206  0.3681077412001  0.7267054074059 1.0
C      1  0.3561912755822  0.3739569212603  0.3473728876574 1.0
C      1  0.3621408680608  0.5357293496664  0.3338433154248 1.0
C      1  0.5571151033494  0.6547970516356  0.6259648532305 1.0
C      1  0.5599464215183  0.4608137618479  0.5479193266126 1.0
C      1  0.4380430974108  0.5882369059668  0.3038276501811 1.0
C      1  0.6545292266693  0.3344630218881  0.4546875569559 1.0
C      1  0.4222961489595  0.5726168039524  0.6969882988758 1.0
C      1  0.4850252272274  0.3366587149236  0.6736344352047 1.0
C      1  0.5727385508245  0.6545214211642  0.3758879170299 1.0
C      1  0.5461705162061  0.4613131324699  0.7581672885119 1.0
C      1  0.4672944965606  0.6532244771833  0.6660076758560 1.0
C      1  0.5171356302353  0.4685592432479  0.2320597823776 1.0
C      1  0.3415085169316  0.6256890042645  0.4793281914600 1.0
C      1  0.4011628548176  0.3347974585950  0.4192167706634 1.0
C      1  0.6958523929328  0.4063667817453  0.4446249484798 1.0
C      1  0.5951181755480  0.5949520107307  0.3050750063541 1.0
C      1  0.5459370137220  0.4105202753507  0.3741441518922 1.0
C      1  0.4654642253795  0.4948900123207  0.7203230842328 1.0
C      1  0.5029633420255  0.2730796021648  0.6100748304879 1.0
C      1  0.6176467857892  0.4380564543409  0.7017153454508 1.0
C      1  0.3498577587120  0.4476683251050  0.3079173408104 1.0
C      1  0.3440323725733  0.5510066711806  0.6375720363338 1.0
C      1  0.5678125454528  0.2896133222559  0.4636146964222 1.0
C      1  0.3379463966609  0.4539911420538  0.6255589089913 1.0
C      1  0.6288632933875  0.4879406967560  0.6159336067041 1.0
C      1  0.5853042353002  0.4456322922035  0.2959257892162 1.0
C      1  0.6138861755321  0.6572705895584  0.4641936417049 1.0
C      1  0.5388741993470  0.2441374217907  0.5409653910246 1.0
C      1  0.6455790873466  0.5181000361442  0.3254870751211 1.0
C      1  0.3404505912104  0.6269636969926  0.5768343060993 1.0
C      1  0.4244573760909  0.5025330191674  0.4832141515640 1.0
C      1  0.6246103378346  0.5914782204626  0.6371188197944 1.0
C      1  0.5139935309161  0.5623708432177  0.2530022551325 1.0
C      1  0.3445275909881  0.5433825025341  0.4333716307943 1.0
C      1  0.4744159543036  0.6356150384818  0.3841189655772 1.0
C      1  0.5553116045043  0.6916599935292  0.5356005084608 1.0
C      1  0.4138895412115  0.6848238521892  0.4454372823587 1.0
C      1  0.5702090906010  0.4820990096981  0.4495594993116 1.0
C      1  0.3143095304335  0.3919200105666  0.5587578031146 1.0
C      1  0.5010026891597  0.3312849487886  0.4099711131697 1.0
C      1  0.6780244205674  0.5839512391284  0.4837412259789 1.0
C      1  0.6685202802024  0.5030880471661  0.4226884493082 1.0
C      1  0.4105017147326  0.6890352427490  0.6001832088983 1.0
C      1  0.3510255598830  0.3431561896660  0.4999703322962 1.0
C      1  0.4609935249055  0.7145453310253  0.5206503814459 1.0
END
