TITL C-12521-6401-35 -4.562 3375.00 -790.77846489 0 0 97 () n - 1
REM
REM Run started: at 2020.12.23 17:35:39 in /gpfs/home/chem/mssmkc/CARBON/AIRSS/Generating-Clusters/Str-Search/Only-C1/C10-100
REM VASP from code version vasp.5.4.4.18Apr17-6-g9f103f2a35 (build Oct 11 2019 16:45:47) gamma-only
REM
REM
REM
REM
REM ./C.cell (67c5d0192afd7a3ce4a0888e5fe73b87)
REM AIRSS Version 0.9.1 bugfix July 2018 build 013d7b7c2542+ Fri, 06 Jul 2018 19:26:36 +0100
REM compiler GCC version 6.3.0
REM options -cpp -iprefix /gpfs/warwick/csc/orac/software/Core/GCCcore/6.3.0/bin/../lib/gcc/x86_64-pc-linux-gnu/6.3.0/ -mtune=generic -march=x86-64 -g -O0
REM seed 418769588 -1490123013 408109549 -374032193 -1575326470 -1657891917 -2126500419 1336680746 -1267764278 -1326953939 -410154925 272044674
REM
REM C.POTCAR (d86ddea03c3ceb6dc662c8ad6801f873)
REM 
CELL 1.54180   15.00000   15.00000   15.00000   90.00000   90.00000   90.00000
LATT -1
SFAC C  
C      1  0.4716933429156  0.2180297263723  0.4866281605102 1.0
C      1  0.4871667429573  0.6816143596733  0.2515344857373 1.0
C      1  0.3750212815286  0.3378547358311  0.6943023423514 1.0
C      1  0.3559632713117  0.4622366179950  0.2507914696636 1.0
C      1  0.2304532450971  0.4067298895681  0.3995109830520 1.0
C      1  0.4737491942577  0.8327587543222  0.4757856279100 1.0
C      1  0.7432257072619  0.6935993957023  0.4805925763297 1.0
C      1  0.3025897123536  0.6892314726552  0.6005009333227 1.0
C      1  0.4680518823440  0.5158669189137  0.7266192933851 1.0
C      1  0.5495975966637  0.5746032355534  0.4933754808119 1.0
C      1  0.6776618851731  0.3147348056149  0.7247050928078 1.0
C      1  0.5327016596987  0.2407476424215  0.5643954300745 1.0
C      1  0.6929729505494  0.2571232175169  0.3280161137854 1.0
C      1  0.5267416146286  0.7821309796072  0.6290062065280 1.0
C      1  0.4228152942290  0.5187808511704  0.2212461578420 1.0
C      1  0.6115571996048  0.6088308949146  0.7502528547697 1.0
C      1  0.5165635867194  0.4876696675049  0.2145122798100 1.0
C      1  0.6360695057981  0.4579304260879  0.2812288208363 1.0
C      1  0.4678747637953  0.7985190426668  0.3898774524657 1.0
C      1  0.7145921140149  0.3894783735958  0.7301179310224 1.0
C      1  0.2940416520236  0.5548255325131  0.7123274492801 1.0
C      1  0.5138233556944  0.2435408988301  0.4052399888691 1.0
C      1  0.2963414968211  0.4844663769260  0.4315948084232 1.0
C      1  0.5286965524958  0.2539962044898  0.6655695166489 1.0
C      1  0.3906222685899  0.3048733778603  0.3274131397876 1.0
C      1  0.2635795128534  0.3191502189015  0.4340071002907 1.0
C      1  0.6303719904318  0.2679321931436  0.2749372097847 1.0
C      1  0.3842701897852  0.4110633397364  0.7554022600698 1.0
C      1  0.4664883157976  0.3052608540735  0.7129859212507 1.0
C      1  0.5456709208607  0.4137215377596  0.4241132677675 1.0
C      1  0.6817843777138  0.2958023785338  0.4172626040520 1.0
C      1  0.5595756120017  0.5641039419425  0.3912067762079 1.0
C      1  0.2332285075593  0.4989996721375  0.6672263102247 1.0
C      1  0.6991261069486  0.4793711588460  0.7279147630063 1.0
C      1  0.3564607189908  0.5126283025675  0.5570098611627 1.0
C      1  0.3438596119589  0.6824291743812  0.4333074878873 1.0
C      1  0.3044596495626  0.6445322412711  0.6812600226506 1.0
C      1  0.3812480768901  0.4472477096300  0.4772221577995 1.0
C      1  0.7394287828849  0.3589113974353  0.4673221910974 1.0
C      1  0.5938768974766  0.5396462265563  0.2448892759836 1.0
C      1  0.6021253322683  0.4758569071474  0.3760249492802 1.0
C      1  0.7369967003799  0.5511569124385  0.6728896237655 1.0
C      1  0.7010981485899  0.4832932202444  0.3610717914614 1.0
C      1  0.7445161679627  0.6710008419303  0.5707616347373 1.0
C      1  0.5623730258231  0.4216084098852  0.5258030160349 1.0
C      1  0.2959786102135  0.2942131926825  0.5307436835878 1.0
C      1  0.4667413386061  0.6113355123425  0.5076174561194 1.0
C      1  0.4264470025966  0.5856754857533  0.5926392420866 1.0
C      1  0.5339919560202  0.4621173176824  0.7747331618203 1.0
C      1  0.2071253531531  0.5050248721255  0.5709843269154 1.0
C      1  0.3906712503324  0.7419287260830  0.3669187655989 1.0
C      1  0.2892516522964  0.4463935864297  0.6079213853686 1.0
C      1  0.5570932997431  0.7770287714064  0.3528934681011 1.0
C      1  0.3714990878604  0.5047529553519  0.7472754594679 1.0
C      1  0.6992668710530  0.7651992869156  0.4418063018707 1.0
C      1  0.6349372487382  0.7960973293413  0.4011385348588 1.0
C      1  0.7146170618884  0.2796496139861  0.5104357824734 1.0
C      1  0.6165930842676  0.6155924996970  0.3130855781162 1.0
C      1  0.4471706655766  0.4513539988792  0.3966469420904 1.0
C      1  0.6400616378894  0.2594731936621  0.5735058287361 1.0
C      1  0.2763071496564  0.5558347073215  0.5084190985931 1.0
C      1  0.6243839979297  0.2651302875529  0.6711963877289 1.0
C      1  0.7486432015401  0.4515210541504  0.4476164034812 1.0
C      1  0.5805012126939  0.3142962106636  0.4325720232668 1.0
C      1  0.6158027998253  0.5114616338834  0.7677783913298 1.0
C      1  0.7687802967575  0.5342811310779  0.4933853476032 1.0
C      1  0.5604511112503  0.4025763567400  0.2363684048968 1.0
C      1  0.1370174529082  0.4650026872339  0.5171355855955 1.0
C      1  0.3938851976217  0.6681660201363  0.6438804749195 1.0
C      1  0.2969324035417  0.4550959557451  0.3342585921697 1.0
C      1  0.2888649567281  0.6594670476560  0.5073079603229 1.0
C      1  0.5667672592790  0.7025154028165  0.2933998774515 1.0
C      1  0.5556121609965  0.5062271585518  0.5652793476478 1.0
C      1  0.4943428892331  0.5330548469458  0.6383021442489 1.0
C      1  0.4755156185623  0.7151893221781  0.6795786327431 1.0
C      1  0.5557080758764  0.6829547144102  0.7238894993458 1.0
C      1  0.4151414429356  0.6176845201757  0.4304696696909 1.0
C      1  0.4601411348069  0.5605866874111  0.3647794860550 1.0
C      1  0.7643039620718  0.5734947637938  0.5827118474342 1.0
C      1  0.5000260339338  0.8268680116191  0.5541455909173 1.0
C      1  0.3801286604187  0.3554696328677  0.5226734796715 1.0
C      1  0.4315286780712  0.6025642513989  0.2708159063541 1.0
C      1  0.6918130958801  0.7041175863904  0.6451713036522 1.0
C      1  0.6926670911707  0.6286501740506  0.7047574516574 1.0
C      1  0.5737925677754  0.3277042888828  0.5320179114739 1.0
C      1  0.1467496268461  0.4388947154624  0.4387493815002 1.0
C      1  0.5479458677401  0.3110704625722  0.2600019713047 1.0
C      1  0.3256146284660  0.3537527379456  0.6080113676701 1.0
C      1  0.4016457117864  0.6982481481577  0.2831190634965 1.0
C      1  0.3842424145034  0.4023356607746  0.3205799096578 1.0
C      1  0.7518336101243  0.6103965950618  0.4311823600525 1.0
C      1  0.4810213063902  0.3833142521910  0.7730185619648 1.0
C      1  0.6095902026898  0.7450662212969  0.6638346776864 1.0
C      1  0.4771232826302  0.2709115989069  0.3175514788049 1.0
C      1  0.7064774450910  0.5842362995064  0.3555901782517 1.0
C      1  0.3803604999564  0.2579695102982  0.4865564761753 1.0
C      1  0.3357641088095  0.2741632649660  0.3977848174329 1.0
END
