TITL C-12556-9949-75 -0.917 3375.00 -132.45890382 0 0 17 () n - 1
REM
REM Run started: at 2020.12.25 15:45:17 in /gpfs/home/chem/mssmkc/CARBON/AIRSS/Generating-Clusters/Str-Search/Only-C1/C10-100
REM VASP from code version vasp.5.4.4.18Apr17-6-g9f103f2a35 (build Oct 11 2019 16:45:47) gamma-only
REM
REM
REM
REM
REM ./C.cell (67c5d0192afd7a3ce4a0888e5fe73b87)
REM AIRSS Version 0.9.1 bugfix July 2018 build 013d7b7c2542+ Fri, 06 Jul 2018 19:26:36 +0100
REM compiler GCC version 6.3.0
REM options -cpp -iprefix /gpfs/warwick/csc/orac/software/Core/GCCcore/6.3.0/bin/../lib/gcc/x86_64-pc-linux-gnu/6.3.0/ -mtune=generic -march=x86-64 -g -O0
REM seed 1838818276 -108675570 -643306517 -1563298194 18893892 107725357 807244344 -1925768571 12238640 2051341999 -646576261 867114656
REM
REM C.POTCAR (d86ddea03c3ceb6dc662c8ad6801f873)
REM 
CELL 1.54180   15.00000   15.00000   15.00000   90.00000   90.00000   90.00000
LATT -1
SFAC C  
C      1  0.5503159221192  0.3033730361073  0.4949918561204 1.0
C      1  0.5796707320157  0.3627452918167  0.4249510941225 1.0
C      1  0.6522062137842  0.4431631672564  0.2903975159560 1.0
C      1  0.5275352042333  0.3947659530020  0.4975321911681 1.0
C      1  0.4003915676939  0.4502022524619  0.6980101759007 1.0
C      1  0.6205599443794  0.3936572257976  0.3525654454733 1.0
C      1  0.6092317687160  0.6086010087895  0.2988821017706 1.0
C      1  0.4713862569249  0.5571599627244  0.5141747067444 1.0
C      1  0.3642844985102  0.6234600922481  0.6370642275186 1.0
C      1  0.4407013410769  0.4466213045187  0.6257328179448 1.0
C      1  0.5579524946574  0.6119780224424  0.3735249388064 1.0
C      1  0.4110564328091  0.6061001424631  0.5716101034973 1.0
C      1  0.3258669815887  0.5923796620575  0.7157836488478 1.0
C      1  0.6383911054068  0.5295676091983  0.2826467395184 1.0
C      1  0.3530057045960  0.5165395691873  0.7387383444905 1.0
C      1  0.5142021309647  0.5947392555204  0.4420537582378 1.0
C      1  0.4832420005234  0.4649464444083  0.5413404338824 1.0
END
