TITL C-12521-6401-185 -3.816 3375.00 -643.94978329 0 0 81 () n - 1
REM
REM Run started: at 2020.12.25 05:15:13 in /gpfs/home/chem/mssmkc/CARBON/AIRSS/Generating-Clusters/Str-Search/Only-C1/C10-100
REM VASP from code version vasp.5.4.4.18Apr17-6-g9f103f2a35 (build Oct 11 2019 16:45:47) gamma-only
REM
REM
REM
REM
REM ./C.cell (67c5d0192afd7a3ce4a0888e5fe73b87)
REM AIRSS Version 0.9.1 bugfix July 2018 build 013d7b7c2542+ Fri, 06 Jul 2018 19:26:36 +0100
REM compiler GCC version 6.3.0
REM options -cpp -iprefix /gpfs/warwick/csc/orac/software/Core/GCCcore/6.3.0/bin/../lib/gcc/x86_64-pc-linux-gnu/6.3.0/ -mtune=generic -march=x86-64 -g -O0
REM seed -1205525867 -1482213547 -1572372869 1116561858 -545935402 -330856613 -731979880 -1207703815 1120353649 -1900275416 -790583073 1263371274
REM
REM C.POTCAR (d86ddea03c3ceb6dc662c8ad6801f873)
REM 
CELL 1.54180   15.00000   15.00000   15.00000   90.00000   90.00000   90.00000
LATT -1
SFAC C  
C      1  0.6733181984640  0.5591844400028  0.6763414497142 1.0
C      1  0.4853927702654  0.2468266698207  0.6200609706418 1.0
C      1  0.5117594131217  0.2418049029639  0.4565644601073 1.0
C      1  0.3681584968090  0.3554250295723  0.6089467152307 1.0
C      1  0.6134343243415  0.3382063011628  0.3881742751894 1.0
C      1  0.3988394913613  0.3664380084783  0.2296377482316 1.0
C      1  0.4327618780723  0.5985495824335  0.3384607895378 1.0
C      1  0.5284466881075  0.3418398717701  0.3348081234442 1.0
C      1  0.7358700350873  0.5955372328580  0.5128803932144 1.0
C      1  0.4320956718182  0.3558957023995  0.7507249997345 1.0
C      1  0.2499155685415  0.4681298927734  0.6201526051978 1.0
C      1  0.4161009037734  0.7396668499236  0.4138341182789 1.0
C      1  0.4670767864594  0.2682869018154  0.3768377544117 1.0
C      1  0.5032111623448  0.5604397976891  0.4684481698328 1.0
C      1  0.2656427815167  0.4435638971015  0.3117336367285 1.0
C      1  0.5037111931117  0.8750632860995  0.5139707961511 1.0
C      1  0.6957987827913  0.4798648450469  0.3129602072033 1.0
C      1  0.5733226497715  0.4121708287224  0.6858289298036 1.0
C      1  0.2974788280962  0.5582892911731  0.6089738201161 1.0
C      1  0.5179853482431  0.7379448930530  0.4048529467440 1.0
C      1  0.2978402980607  0.6473038679470  0.6562067817221 1.0
C      1  0.4421773347486  0.6081669939902  0.6522839919088 1.0
C      1  0.5758434251565  0.5499142807687  0.4003214265893 1.0
C      1  0.4764802979330  0.5162451892915  0.3803462999917 1.0
C      1  0.4732211869080  0.6486971197180  0.4264233280723 1.0
C      1  0.6459320284466  0.6318699819718  0.3820659376315 1.0
C      1  0.6121002380204  0.4759066571001  0.4506184451117 1.0
C      1  0.5031797916738  0.5904402748431  0.7314258331879 1.0
C      1  0.3955435596161  0.3418180617870  0.4179368530797 1.0
C      1  0.6907737473427  0.6138914619410  0.6032386269054 1.0
C      1  0.3052690073380  0.3876882465593  0.2515297942850 1.0
C      1  0.6767755688006  0.6564162004429  0.4745214902943 1.0
C      1  0.7776052110904  0.3760918500727  0.5099598835185 1.0
C      1  0.7629643609871  0.4370091762140  0.4476319975088 1.0
C      1  0.4681972301130  0.6280742374202  0.2506515441848 1.0
C      1  0.3150743938444  0.6571396779481  0.4707332801454 1.0
C      1  0.5575701552977  0.4879084446373  0.5231314695840 1.0
C      1  0.6737111446152  0.4179909547689  0.3928542250441 1.0
C      1  0.2374825281053  0.5044902953217  0.4701284534407 1.0
C      1  0.5758437052055  0.7497111722865  0.5640200963938 1.0
C      1  0.6023203122850  0.5309389264978  0.1808453051423 1.0
C      1  0.3808203771283  0.6839752458466  0.6446713481766 1.0
C      1  0.3011599674604  0.4042121267050  0.6717900443680 1.0
C      1  0.4051649927009  0.7549310637398  0.5830998171905 1.0
C      1  0.5802690816739  0.2483001350308  0.6312550368319 1.0
C      1  0.5902091728283  0.7079617468026  0.3345700218289 1.0
C      1  0.6515490971396  0.4882590025975  0.2353753705293 1.0
C      1  0.5988362777421  0.2800699857477  0.4631009094632 1.0
C      1  0.6380642364683  0.6849812633802  0.5596123376659 1.0
C      1  0.5783990961368  0.4643485478300  0.7682972941151 1.0
C      1  0.5924402877859  0.5571040329839  0.7367408005960 1.0
C      1  0.4562274895110  0.4199261504256  0.3658214340371 1.0
C      1  0.4273158575317  0.4433492952090  0.6007683744529 1.0
C      1  0.2164090127018  0.4403417648221  0.5383037013730 1.0
C      1  0.3850126122885  0.3117596761500  0.5169881802806 1.0
C      1  0.5832486701156  0.3459465122569  0.6217334887204 1.0
C      1  0.4774738183504  0.3942561764926  0.2714110986193 1.0
C      1  0.5199155315403  0.3947720410608  0.7678288987466 1.0
C      1  0.3639146325856  0.7400668587919  0.5016907180078 1.0
C      1  0.5466338202386  0.7954537687160  0.4825663648973 1.0
C      1  0.5492084852254  0.6765363490609  0.2577133911070 1.0
C      1  0.3745421607570  0.4991425853566  0.7916379645719 1.0
C      1  0.2383156190164  0.4837808945951  0.3793983333030 1.0
C      1  0.7264277510018  0.3337818682808  0.5732068476093 1.0
C      1  0.3532641952771  0.4160354738028  0.7519624303241 1.0
C      1  0.5454495984398  0.5970272586568  0.2055501611745 1.0
C      1  0.3961213776661  0.5296046863577  0.6134470977316 1.0
C      1  0.3726164654098  0.2694446734808  0.3541486660824 1.0
C      1  0.3443291966348  0.3007484787590  0.2701659655584 1.0
C      1  0.3689291413647  0.6568149504247  0.3885141140709 1.0
C      1  0.4937001153830  0.7986547643411  0.5776684030154 1.0
C      1  0.2799400913086  0.5820184371257  0.5110790691035 1.0
C      1  0.6380632390712  0.2838900790925  0.5570367055554 1.0
C      1  0.7253137430395  0.4783578692171  0.6719174671344 1.0
C      1  0.5245193635657  0.4299972721991  0.5966736338975 1.0
C      1  0.4267193138508  0.3027134988565  0.6726917962224 1.0
C      1  0.7656131131987  0.5351489602286  0.4410575088857 1.0
C      1  0.7243320528700  0.5619426961793  0.3590281762341 1.0
C      1  0.4501478073977  0.2457396847863  0.5313819534628 1.0
C      1  0.7360717663603  0.4032659735572  0.6378313341591 1.0
C      1  0.4370848735471  0.5544967546650  0.7911956676403 1.0
END
