TITL C-12521-6401-141 -4.299 3375.00 -713.46280131 0 0 87 () n - 1
REM
REM Run started: at 2020.12.24 18:44:22 in /gpfs/home/chem/mssmkc/CARBON/AIRSS/Generating-Clusters/Str-Search/Only-C1/C10-100
REM VASP from code version vasp.5.4.4.18Apr17-6-g9f103f2a35 (build Oct 11 2019 16:45:47) gamma-only
REM
REM
REM
REM
REM ./C.cell (67c5d0192afd7a3ce4a0888e5fe73b87)
REM AIRSS Version 0.9.1 bugfix July 2018 build 013d7b7c2542+ Fri, 06 Jul 2018 19:26:36 +0100
REM compiler GCC version 6.3.0
REM options -cpp -iprefix /gpfs/warwick/csc/orac/software/Core/GCCcore/6.3.0/bin/../lib/gcc/x86_64-pc-linux-gnu/6.3.0/ -mtune=generic -march=x86-64 -g -O0
REM seed 2108059292 -1799548543 -1397578702 -1480640065 -302583540 1040085304 870400375 -189978745 -1872863516 476374600 -2037038334 -1007491895
REM
REM C.POTCAR (d86ddea03c3ceb6dc662c8ad6801f873)
REM 
CELL 1.54180   15.00000   15.00000   15.00000   90.00000   90.00000   90.00000
LATT -1
SFAC C  
C      1  0.4657855449606  0.2202940387302  0.4880477075759 1.0
C      1  0.3988897260211  0.3505050924280  0.4311473824997 1.0
C      1  0.4008869101493  0.3495797508917  0.2757824691110 1.0
C      1  0.4405070356389  0.2665090963004  0.3131347957617 1.0
C      1  0.5437550318244  0.7313324450213  0.6529794246901 1.0
C      1  0.2279564019161  0.4378596976973  0.6834894282817 1.0
C      1  0.1946472674969  0.4092475977287  0.6122363256408 1.0
C      1  0.3099319052398  0.4714690481261  0.7138747609718 1.0
C      1  0.6226368680180  0.2325117000705  0.4211137349370 1.0
C      1  0.5994770250551  0.2353159692487  0.2389780880160 1.0
C      1  0.5199294854695  0.5811829973926  0.6329244216820 1.0
C      1  0.6828621993212  0.3789478071082  0.2200985589307 1.0
C      1  0.6554860771691  0.3653539645622  0.6560178088947 1.0
C      1  0.2771408945434  0.4373739555162  0.3901326920551 1.0
C      1  0.6094022480741  0.7368961747456  0.5825073772800 1.0
C      1  0.3580218512050  0.3976377203165  0.3514444310676 1.0
C      1  0.4375418280892  0.5908131666236  0.6914813219306 1.0
C      1  0.7358362147026  0.3119162295751  0.6150257482508 1.0
C      1  0.2977223896698  0.5622327112194  0.5003882451924 1.0
C      1  0.3260512360607  0.7589100349495  0.2197221572255 1.0
C      1  0.7795456674043  0.5758602283072  0.6728476562949 1.0
C      1  0.4806726449147  0.7791491468185  0.3048693600299 1.0
C      1  0.7130334716167  0.6714932452949  0.4491882788519 1.0
C      1  0.3544960106386  0.5476597983568  0.6495995542317 1.0
C      1  0.7035941076538  0.3714530509470  0.3849409974205 1.0
C      1  0.4325640990671  0.7947505634326  0.5567853333070 1.0
C      1  0.4355229785293  0.2689400626981  0.6474541749233 1.0
C      1  0.5554121725532  0.3992533576800  0.4326109509978 1.0
C      1  0.4254694606567  0.2319523747444  0.5736156015769 1.0
C      1  0.5282835403930  0.7025960506972  0.2935836177389 1.0
C      1  0.5585281070477  0.2104009676458  0.4966023645730 1.0
C      1  0.2652359493996  0.7017100057884  0.2335068819185 1.0
C      1  0.4614499361062  0.4556905803810  0.7782555224448 1.0
C      1  0.3198054176295  0.6404203433469  0.6331152316560 1.0
C      1  0.6031949718032  0.4909739969729  0.4215620436645 1.0
C      1  0.5803254575621  0.5719862448944  0.7598411362684 1.0
C      1  0.2268794432507  0.6373454018643  0.2787743780781 1.0
C      1  0.2793406099826  0.6482340674868  0.5451261115832 1.0
C      1  0.7159975448107  0.2417038504953  0.4704788637733 1.0
C      1  0.3666298505088  0.8153556586706  0.3721079121154 1.0
C      1  0.6179600930586  0.4157709304422  0.7365055744359 1.0
C      1  0.4534791413523  0.7494287227616  0.6393212824033 1.0
C      1  0.3866394707587  0.7954008649322  0.2767876302563 1.0
C      1  0.7481675872090  0.3733342657418  0.5431426199075 1.0
C      1  0.5152298086576  0.2199158811847  0.2827037431956 1.0
C      1  0.4233375499804  0.2632262185556  0.4092371671313 1.0
C      1  0.4650165081706  0.4057006830554  0.4735444220973 1.0
C      1  0.7311911067045  0.5330034310905  0.7257132858203 1.0
C      1  0.5823041146295  0.7493828440207  0.4911371151645 1.0
C      1  0.7490694703868  0.6341894289529  0.6055883861705 1.0
C      1  0.6121900631025  0.3327722326485  0.4031639618459 1.0
C      1  0.5970188818068  0.2026189923104  0.3278361209117 1.0
C      1  0.2704514916043  0.5352578709291  0.4118432763740 1.0
C      1  0.6738362000753  0.4304181764572  0.5705696603831 1.0
C      1  0.5703525387564  0.6484770269513  0.3551396970522 1.0
C      1  0.5064717517574  0.3152375021233  0.6893984032521 1.0
C      1  0.6455120840779  0.3061499433675  0.2034777211705 1.0
C      1  0.3081589997137  0.7969846247491  0.4417473627248 1.0
C      1  0.6263479760545  0.6946222760103  0.4238886073877 1.0
C      1  0.7520827586431  0.3281352967020  0.4565219102858 1.0
C      1  0.4948294726290  0.7918729079534  0.4815087047185 1.0
C      1  0.2785221991973  0.7348191417584  0.5102318132679 1.0
C      1  0.4348158247735  0.4397745989178  0.2963341147392 1.0
C      1  0.4473339034140  0.4765102230287  0.5309646978608 1.0
C      1  0.6079577392377  0.2282115952118  0.5788565558001 1.0
C      1  0.4865418741052  0.5093292126350  0.3095212734091 1.0
C      1  0.5266238022634  0.3915633587917  0.7471926395919 1.0
C      1  0.1869075620034  0.3898272045377  0.5260619667002 1.0
C      1  0.7084218828595  0.4215912781871  0.2978178537689 1.0
C      1  0.6645527341368  0.6704643364177  0.6239797688854 1.0
C      1  0.4897623308099  0.5480512683870  0.7695761110166 1.0
C      1  0.6864812436769  0.4675339465419  0.3727042611006 1.0
C      1  0.5284801461693  0.5172219421290  0.5686526027747 1.0
C      1  0.3707486308498  0.4404553853625  0.7707446634492 1.0
C      1  0.2237660078865  0.3925362672124  0.4503692839632 1.0
C      1  0.3940607441293  0.6816659762448  0.6727820737968 1.0
C      1  0.2371713387475  0.5890098592288  0.3473097885365 1.0
C      1  0.5867105047596  0.6409264679153  0.6821748669231 1.0
C      1  0.5474697093941  0.5544081978237  0.3621225989850 1.0
C      1  0.6131887473569  0.4881591255346  0.5263756663964 1.0
C      1  0.3623391541563  0.5159955311206  0.5556172300346 1.0
C      1  0.7011817049960  0.2344647174947  0.5661467329309 1.0
C      1  0.5836944333910  0.2971876320554  0.6411927277143 1.0
C      1  0.3426816670344  0.8010893202226  0.5299880117925 1.0
C      1  0.4584124323304  0.8093860420786  0.3968171573516 1.0
C      1  0.7623874180616  0.6519029278191  0.5134563206000 1.0
C      1  0.6496897129770  0.5031959276284  0.7588401144793 1.0
END
