TITL C-12521-6401-16 -2.364 3375.00 -398.26207837 0 0 50 () n - 1
REM
REM Run started: at 2020.12.23 12:47:26 in /gpfs/home/chem/mssmkc/CARBON/AIRSS/Generating-Clusters/Str-Search/Only-C1/C10-100
REM VASP from code version vasp.5.4.4.18Apr17-6-g9f103f2a35 (build Oct 11 2019 16:45:47) gamma-only
REM
REM
REM
REM
REM ./C.cell (67c5d0192afd7a3ce4a0888e5fe73b87)
REM AIRSS Version 0.9.1 bugfix July 2018 build 013d7b7c2542+ Fri, 06 Jul 2018 19:26:36 +0100
REM compiler GCC version 6.3.0
REM options -cpp -iprefix /gpfs/warwick/csc/orac/software/Core/GCCcore/6.3.0/bin/../lib/gcc/x86_64-pc-linux-gnu/6.3.0/ -mtune=generic -march=x86-64 -g -O0
REM seed 613520576 -1516792820 2047813878 -182875933 -738593227 92146250 -1749513307 628658132 1863139527 239073895 694126752 84933039
REM
REM C.POTCAR (d86ddea03c3ceb6dc662c8ad6801f873)
REM 
CELL 1.54180   15.00000   15.00000   15.00000   90.00000   90.00000   90.00000
LATT -1
SFAC C  
C      1  0.6121452611543  0.3589737731839  0.4070642589343 1.0
C      1  0.5527554437321  0.5284152973948  0.4459112142638 1.0
C      1  0.4774603766766  0.3965029505788  0.3212379555352 1.0
C      1  0.5120835087390  0.4843399684907  0.2966709337322 1.0
C      1  0.3176264134947  0.5961841010005  0.5937907442987 1.0
C      1  0.5320828258422  0.6679686161814  0.3804081541741 1.0
C      1  0.2952818585339  0.3697184775625  0.5177466492885 1.0
C      1  0.4564305361691  0.5410111928080  0.7410288996450 1.0
C      1  0.4716576867243  0.3268004077541  0.4655894600564 1.0
C      1  0.4221294676674  0.4281160827643  0.4534604508363 1.0
C      1  0.6958969264474  0.4199799405437  0.5212578820260 1.0
C      1  0.3279611850387  0.2846293864232  0.5065275913927 1.0
C      1  0.3060841315888  0.5181260224945  0.4012683395813 1.0
C      1  0.4184663734300  0.3989691270124  0.6377192491207 1.0
C      1  0.5078162749949  0.7096786421163  0.4690921154023 1.0
C      1  0.4542133422336  0.6405702894877  0.3333465541989 1.0
C      1  0.6061266018119  0.6020216052114  0.3850183298242 1.0
C      1  0.5721703385581  0.3786879326919  0.6873028214456 1.0
C      1  0.6742079900292  0.5056086166416  0.5713834957896 1.0
C      1  0.3835957347477  0.4135337306906  0.3502914746467 1.0
C      1  0.7304232184465  0.4522464318355  0.4379838354117 1.0
C      1  0.4296094346024  0.4978319461929  0.6563700864441 1.0
C      1  0.6522682202162  0.5152790868496  0.6706283997928 1.0
C      1  0.5679388425455  0.6911892928736  0.5430706965037 1.0
C      1  0.7103517658724  0.5909194909042  0.5260644327660 1.0
C      1  0.3543266577930  0.6464041391269  0.5304445952173 1.0
C      1  0.4530701742408  0.5221194132408  0.4773468987520 1.0
C      1  0.4121833319462  0.7078374292991  0.4746692140938 1.0
C      1  0.3601903484501  0.5041476167649  0.3235699196968 1.0
C      1  0.5464729311363  0.6193750896287  0.6022182252306 1.0
C      1  0.6304976795798  0.4327075822016  0.7110475250756 1.0
C      1  0.6592755391845  0.6743931177155  0.5221800494217 1.0
C      1  0.6600992086754  0.4372017464326  0.3757792102813 1.0
C      1  0.4420301577489  0.5502673673833  0.2978395808506 1.0
C      1  0.3580522068811  0.5865414593561  0.4467042058110 1.0
C      1  0.3841609647822  0.6646871844976  0.3928930206027 1.0
C      1  0.5804428781990  0.5128943978510  0.5351926242902 1.0
C      1  0.5973279790556  0.5898935332918  0.6853064492542 1.0
C      1  0.4902003605742  0.5358536796762  0.5766338855253 1.0
C      1  0.3311651118682  0.4153343188103  0.5997073815977 1.0
C      1  0.5950807392605  0.5080833634293  0.3485872353952 1.0
C      1  0.5252712786266  0.3413158521011  0.3807880014164 1.0
C      1  0.5387039956196  0.3308607989958  0.5412951935451 1.0
C      1  0.6243113083971  0.3524917446653  0.5031788468247 1.0
C      1  0.4012313126342  0.2565713189024  0.4755443803720 1.0
C      1  0.5282656892498  0.5808100243147  0.7501373548060 1.0
C      1  0.3223993383699  0.4230109713223  0.4359977893955 1.0
C      1  0.6798617552287  0.6277048151503  0.4440285274758 1.0
C      1  0.3341692117901  0.5111371929459  0.6207883353500 1.0
C      1  0.5044261814111  0.3510534332085  0.6278876246073 1.0
END
