TITL C-128256-4848-16 -4.424 3375.00 -766.47113118 0 0 93 (C1) n - 1
REM
REM Run started: at 2020.12.24 16:35:21 in /rds/project/t2_vol4/rds-t2-cs072/BORA/CARBON/AIRSS/Generating-Clusters/Str-Search/Only-C1/C10-100
REM VASP from code version vasp.5.4.4.18Apr17-6-g9f103f2a35 (build Oct 11 2019 16:45:47) gamma-only
REM
REM
REM
REM
REM ./C.cell (67c5d0192afd7a3ce4a0888e5fe73b87)
REM AIRSS Version 0.9.1 bugfix July 2018 build 013d7b7c2542+ Fri, 06 Jul 2018 19:26:36 +0100
REM compiler GCC version 4.8.5 20150623 (Red Hat 4.8.5-39)
REM options -cpp -mtune=generic -march=x86-64 -g -O0
REM seed 375328799 479233385 15798109 -455712972 1493518721 -1418227671 818992988 -1536706357 -278157020 -957955877 533520003 -1708517180
REM
REM C.POTCAR (d86ddea03c3ceb6dc662c8ad6801f873)
REM 
CELL 1.54180   15.00000   15.00000   15.00000   90.00000   90.00000   90.00000
LATT -1
SFAC C  
C      1  0.3600717439592  0.5966035439345  0.2876251648907 1.0
C      1  0.5553354778706  0.6521316151116  0.7475050843397 1.0
C      1  0.4354946680659  0.7400762649641  0.6498358871220 1.0
C      1  0.2541833977317  0.6270166306092  0.6932305153401 1.0
C      1  0.6491234065139  0.7047474366800  0.6230257104810 1.0
C      1  0.5296155313358  0.3463500382777  0.4957017934718 1.0
C      1  0.4573786255936  0.4360906404418  0.2253546998492 1.0
C      1  0.3980687546506  0.3757951549375  0.5896224953718 1.0
C      1  0.4743767493738  0.5702641815809  0.4893705829354 1.0
C      1  0.7224817666542  0.6666579529130  0.5775723521130 1.0
C      1  0.2938937132392  0.6517897793506  0.5024842680383 1.0
C      1  0.6125130350158  0.6871421125287  0.4717829703341 1.0
C      1  0.7306540158918  0.4511358284037  0.3485272877434 1.0
C      1  0.5276086022630  0.1568845441149  0.5672201716894 1.0
C      1  0.4231087130174  0.5756433152786  0.5652701494993 1.0
C      1  0.2141236301016  0.5927272281779  0.6130277082604 1.0
C      1  0.4373127509563  0.7458732192512  0.4749275243046 1.0
C      1  0.1461805580399  0.5251450076041  0.4312975864034 1.0
C      1  0.4410394189099  0.7295882738414  0.3177228339012 1.0
C      1  0.5686390257227  0.5920143871430  0.4752046913999 1.0
C      1  0.4020519603266  0.4106189424447  0.4245434899582 1.0
C      1  0.6682778310966  0.3036979317235  0.3617426640795 1.0
C      1  0.5402232028407  0.2942945230281  0.6449494324648 1.0
C      1  0.7318405241301  0.5291657201430  0.6747685629693 1.0
C      1  0.7653010020077  0.5854448330007  0.6041205977802 1.0
C      1  0.4966417069819  0.6744026451306  0.2632494987694 1.0
C      1  0.7743634867216  0.3765947347049  0.4777548945798 1.0
C      1  0.7814664006798  0.5335189209361  0.5245292322495 1.0
C      1  0.4808315359878  0.5123361066525  0.7816976834214 1.0
C      1  0.3751211511914  0.4340134839352  0.2650265162298 1.0
C      1  0.6384942468016  0.6652514788862  0.7092959989621 1.0
C      1  0.5889131136941  0.2559523165082  0.3492253704047 1.0
C      1  0.3132777555176  0.4819672733865  0.6759975352675 1.0
C      1  0.1991988182352  0.6489514207164  0.5307567530954 1.0
C      1  0.3651140177085  0.6797168291311  0.3458888641991 1.0
C      1  0.3287190227851  0.5779130076875  0.5486622656813 1.0
C      1  0.5914842834987  0.5153841589524  0.2369911858781 1.0
C      1  0.2791035471410  0.7169050855155  0.6979435287319 1.0
C      1  0.4459523179419  0.5984701352855  0.2368493980810 1.0
C      1  0.6336030832728  0.5839348160605  0.2916729116314 1.0
C      1  0.5728660213544  0.1780759850867  0.4895738297254 1.0
C      1  0.2628840035656  0.5052104300980  0.5917669661500 1.0
C      1  0.2618263139277  0.3312409088002  0.5202657141884 1.0
C      1  0.3187754038486  0.5091228245817  0.2915119012373 1.0
C      1  0.3562630335872  0.6996602024841  0.4431205139552 1.0
C      1  0.4970913823092  0.5234493786335  0.2135157736893 1.0
C      1  0.5434785322219  0.3575263997946  0.7244128503289 1.0
C      1  0.6862706783021  0.3633912948484  0.6728535551310 1.0
C      1  0.6756355085631  0.3853388939648  0.3097041567534 1.0
C      1  0.4724738790209  0.4296798031733  0.7247456830155 1.0
C      1  0.6216325617085  0.3335178257642  0.5140708673291 1.0
C      1  0.4671932454545  0.6660652244893  0.7124971449667 1.0
C      1  0.7441846894912  0.5852651915108  0.4468119371794 1.0
C      1  0.5726554641796  0.5537001011195  0.7619345318290 1.0
C      1  0.3457321007679  0.3882393906329  0.5075264354729 1.0
C      1  0.3467731329338  0.7564244520583  0.6675365696268 1.0
C      1  0.6076172954973  0.4180475322077  0.2505426884259 1.0
C      1  0.1528658093337  0.6003452590684  0.4678568946342 1.0
C      1  0.6708244459704  0.5737795029175  0.7315294491427 1.0
C      1  0.4123876168400  0.5849427752448  0.7438977175258 1.0
C      1  0.5758538749709  0.7192484258715  0.3861555895186 1.0
C      1  0.4906747940995  0.7579603505862  0.3939248637612 1.0
C      1  0.3852571624796  0.4191656057986  0.6715732811668 1.0
C      1  0.3460367151370  0.3794032559126  0.3444702514302 1.0
C      1  0.4826254041856  0.3364100597510  0.5735787764442 1.0
C      1  0.4976555632567  0.3767061030167  0.4090693205690 1.0
C      1  0.5300885998491  0.4695185790631  0.3986804448489 1.0
C      1  0.6296549751288  0.3782417140624  0.7477155599395 1.0
C      1  0.4481867714474  0.5033653162701  0.4244667042751 1.0
C      1  0.6907527290088  0.5413411525997  0.3706869233235 1.0
C      1  0.7380451180989  0.4349475621443  0.6411337222697 1.0
C      1  0.5251248023519  0.5101986841595  0.6820064027624 1.0
C      1  0.6989387830698  0.3086185639659  0.4580795006115 1.0
C      1  0.5130146476299  0.3122366852203  0.3225520135725 1.0
C      1  0.5357805721964  0.1984967275889  0.4029094049290 1.0
C      1  0.3606657393604  0.2752901554886  0.3571507582833 1.0
C      1  0.6039852558527  0.5253957454825  0.4228441206832 1.0
C      1  0.5839669669467  0.6658055686007  0.3028253447513 1.0
C      1  0.7091428838520  0.6633761625463  0.4831068050356 1.0
C      1  0.6554759391130  0.2365507327612  0.5216082609959 1.0
C      1  0.2547735359586  0.4328131784291  0.5183374474381 1.0
C      1  0.2697301716205  0.4498435086547  0.3521908199557 1.0
C      1  0.4452022103144  0.2436647993620  0.3616204492186 1.0
C      1  0.2181890360654  0.4646476400829  0.4287208105280 1.0
C      1  0.8013475340248  0.4272425242232  0.4030330470240 1.0
C      1  0.3167852712980  0.5613131608080  0.7282014028352 1.0
C      1  0.5141157808019  0.1975863365467  0.6396592772790 1.0
C      1  0.5778377887891  0.7280213029215  0.5590538687784 1.0
C      1  0.6375938141360  0.2995667713952  0.6045797120643 1.0
C      1  0.4605763856027  0.5774772471787  0.6519401142956 1.0
C      1  0.7737678813006  0.4398994090656  0.5498710011294 1.0
C      1  0.5247121939353  0.3721773112309  0.2464196679107 1.0
C      1  0.4838274857720  0.7482344637594  0.5641829901417 1.0
END
