TITL C-12556-9949-128 -2.334 3375.00 -373.45056967 0 0 47 () n - 1
REM
REM Run started: at 2020.12.26 04:54:04 in /gpfs/home/chem/mssmkc/CARBON/AIRSS/Generating-Clusters/Str-Search/Only-C1/C10-100
REM VASP from code version vasp.5.4.4.18Apr17-6-g9f103f2a35 (build Oct 11 2019 16:45:47) gamma-only
REM
REM
REM
REM
REM ./C.cell (67c5d0192afd7a3ce4a0888e5fe73b87)
REM AIRSS Version 0.9.1 bugfix July 2018 build 013d7b7c2542+ Fri, 06 Jul 2018 19:26:36 +0100
REM compiler GCC version 6.3.0
REM options -cpp -iprefix /gpfs/warwick/csc/orac/software/Core/GCCcore/6.3.0/bin/../lib/gcc/x86_64-pc-linux-gnu/6.3.0/ -mtune=generic -march=x86-64 -g -O0
REM seed -1904833518 582076586 -750755522 -1611245160 1584219124 801525544 -2120384113 2138657782 443199037 540395811 1791065146 1906862764
REM
REM C.POTCAR (d86ddea03c3ceb6dc662c8ad6801f873)
REM 
CELL 1.54180   15.00000   15.00000   15.00000   90.00000   90.00000   90.00000
LATT -1
SFAC C  
C      1  0.4628462415542  0.4419750154699  0.5869640898021 1.0
C      1  0.5024460070556  0.3771334251450  0.6467430650510 1.0
C      1  0.6077117290903  0.5920797107432  0.6426505433454 1.0
C      1  0.5573710378798  0.6507216076362  0.4715808574227 1.0
C      1  0.5405381723834  0.3412985488423  0.4573221273421 1.0
C      1  0.6052954540041  0.5306970867808  0.3461212463964 1.0
C      1  0.5258934973381  0.6106285547064  0.6916768418713 1.0
C      1  0.7079898283857  0.3561216325357  0.5126742476599 1.0
C      1  0.3915993140878  0.6915677796954  0.4975393058805 1.0
C      1  0.6560610791526  0.4248197018505  0.6586282097040 1.0
C      1  0.3635382978237  0.5088726369361  0.4834612333383 1.0
C      1  0.4035318523167  0.6668280537787  0.5896522214359 1.0
C      1  0.3452300267460  0.5973907195478  0.6307267336588 1.0
C      1  0.6763002147048  0.4748851191952  0.3274593431255 1.0
C      1  0.4920734149384  0.6684294001606  0.6208533114660 1.0
C      1  0.3905872955040  0.5895636869779  0.3330860559798 1.0
C      1  0.2984977048198  0.4462025671351  0.5410579917466 1.0
C      1  0.3254723167845  0.5366249784053  0.3896462495613 1.0
C      1  0.3869205501164  0.4010572611487  0.3133624080157 1.0
C      1  0.4088791187701  0.3736418542866  0.6221677579979 1.0
C      1  0.3365893190733  0.3583306752188  0.3847274105985 1.0
C      1  0.5128023583321  0.4362497324925  0.4364635041479 1.0
C      1  0.7083567307447  0.3572082157710  0.4180936892965 1.0
C      1  0.4557837334903  0.4775294779233  0.5010471685779 1.0
C      1  0.6706708168868  0.5239114521220  0.6475696512499 1.0
C      1  0.2686066151036  0.6184680737957  0.4095431656247 1.0
C      1  0.3383651534399  0.3586279456285  0.5563312886849 1.0
C      1  0.4475227843885  0.6464947595359  0.3534981374692 1.0
C      1  0.5245004608927  0.4709501138741  0.3453071980413 1.0
C      1  0.5688736881949  0.6514285283790  0.5657897979029 1.0
C      1  0.3157999656898  0.5306351553155  0.5688062789638 1.0
C      1  0.6355664473906  0.3183043768038  0.4631634176820 1.0
C      1  0.4593233176501  0.3055388493101  0.4609513967173 1.0
C      1  0.7055960147544  0.5965751130896  0.4514955587608 1.0
C      1  0.7545415150298  0.5617770348896  0.5095477761124 1.0
C      1  0.3106008830789  0.4428433086912  0.3521981349438 1.0
C      1  0.4706139947715  0.6794790914760  0.4387876116406 1.0
C      1  0.6220361842315  0.6013704304569  0.4132070561508 1.0
C      1  0.4649850302390  0.4380914408776  0.2851209401750 1.0
C      1  0.3077984447895  0.6740224116625  0.4586133571572 1.0
C      1  0.5846745529618  0.3741082225803  0.6785519116162 1.0
C      1  0.4560981520985  0.5801671891403  0.7437907989326 1.0
C      1  0.7236373181240  0.4098175117349  0.5870910776089 1.0
C      1  0.7393712553213  0.5052679767375  0.5798639579807 1.0
C      1  0.3762777895775  0.5745359746973  0.7161878274709 1.0
C      1  0.7234980526552  0.4062207629638  0.3415220831584 1.0
C      1  0.3687263676337  0.3215068338548  0.4693562625333 1.0
END
