TITL C-12556-9949-33 -3.457 3375.00 -604.53557227 0 0 75 () n - 1
REM
REM Run started: at 2020.12.25 06:59:31 in /gpfs/home/chem/mssmkc/CARBON/AIRSS/Generating-Clusters/Str-Search/Only-C1/C10-100
REM VASP from code version vasp.5.4.4.18Apr17-6-g9f103f2a35 (build Oct 11 2019 16:45:47) gamma-only
REM
REM
REM
REM
REM ./C.cell (67c5d0192afd7a3ce4a0888e5fe73b87)
REM AIRSS Version 0.9.1 bugfix July 2018 build 013d7b7c2542+ Fri, 06 Jul 2018 19:26:36 +0100
REM compiler GCC version 6.3.0
REM options -cpp -iprefix /gpfs/warwick/csc/orac/software/Core/GCCcore/6.3.0/bin/../lib/gcc/x86_64-pc-linux-gnu/6.3.0/ -mtune=generic -march=x86-64 -g -O0
REM seed 973912197 1201509052 3122356 -576886481 1290042361 -994077670 1318689043 1542127152 -977211189 1099384249 2098310241 579757567
REM
REM C.POTCAR (d86ddea03c3ceb6dc662c8ad6801f873)
REM 
CELL 1.54180   15.00000   15.00000   15.00000   90.00000   90.00000   90.00000
LATT -1
SFAC C  
C      1  0.5981125467934  0.5192018779591  0.6746228018435 1.0
C      1  0.5408503028254  0.5868660636050  0.7325410704640 1.0
C      1  0.5729749333495  0.4863113220882  0.3339009798111 1.0
C      1  0.5401597726921  0.5961846882222  0.5262167787073 1.0
C      1  0.5015170305825  0.6039102091844  0.2293920605657 1.0
C      1  0.4231333320561  0.5517188733968  0.2408445985270 1.0
C      1  0.4719328625822  0.5526367492591  0.7759466447417 1.0
C      1  0.3989730571371  0.5087206540488  0.7478371346785 1.0
C      1  0.2619062624614  0.4876659069043  0.3668657685602 1.0
C      1  0.3261836328388  0.6229814034119  0.5305656597618 1.0
C      1  0.7080581611237  0.6387805387655  0.4612286682619 1.0
C      1  0.5655196066497  0.5223293329636  0.5724844057669 1.0
C      1  0.4143123186129  0.2676192531415  0.4890107978886 1.0
C      1  0.6063932078967  0.6930384717851  0.6373170602004 1.0
C      1  0.4788160848132  0.5657856878883  0.4532112679693 1.0
C      1  0.5310787361487  0.6717984780636  0.6906864532083 1.0
C      1  0.5763905049326  0.7407620516993  0.4632997378631 1.0
C      1  0.6007617706440  0.3644012069747  0.5174294309335 1.0
C      1  0.6984032522582  0.5591540526840  0.4056093940141 1.0
C      1  0.5675750755431  0.3501281125900  0.3055868609706 1.0
C      1  0.3837894900485  0.5462083745747  0.4806908173723 1.0
C      1  0.2292315748237  0.5666950988811  0.4153282884958 1.0
C      1  0.4781675865630  0.7660151524732  0.4743413503946 1.0
C      1  0.3705653306862  0.6057802090661  0.3168680118628 1.0
C      1  0.2264354965657  0.4925923425854  0.5671666444610 1.0
C      1  0.4377153769703  0.6744069423342  0.3481254834841 1.0
C      1  0.6829809927646  0.3643684786686  0.5734651821528 1.0
C      1  0.4170554259408  0.2386891664824  0.5806204758514 1.0
C      1  0.3948749594277  0.3686080245680  0.4765717809303 1.0
C      1  0.4572315744448  0.4073235921314  0.5480125412278 1.0
C      1  0.3813139640018  0.4077316403075  0.3069817564558 1.0
C      1  0.7205996449780  0.3928841580527  0.3820289258142 1.0
C      1  0.6598271659001  0.3387481854876  0.3318153371377 1.0
C      1  0.6566625181729  0.7168471136650  0.4350555901504 1.0
C      1  0.6372346670355  0.5569492349595  0.3323964152469 1.0
C      1  0.7241468955983  0.4689378030429  0.4377947955725 1.0
C      1  0.3732181068112  0.4566790194016  0.5331877186464 1.0
C      1  0.6906420486167  0.5562154328075  0.6634827369902 1.0
C      1  0.5060412798813  0.3197949832185  0.3714857039814 1.0
C      1  0.4675369905664  0.3457759060132  0.6254839437312 1.0
C      1  0.4086885224697  0.7292156120352  0.4200927849436 1.0
C      1  0.4419923753766  0.4564171139130  0.2495003883650 1.0
C      1  0.4724039964156  0.7350737745376  0.5638894993143 1.0
C      1  0.2859461610404  0.6409735976454  0.3788466769560 1.0
C      1  0.4380252380621  0.3920760283732  0.3889887968680 1.0
C      1  0.6893716546812  0.6467261179050  0.6343334951509 1.0
C      1  0.5008212604297  0.2599343826403  0.4447527272928 1.0
C      1  0.3368655514711  0.5480325577529  0.3922011318990 1.0
C      1  0.5349138312834  0.4332767700840  0.2611899621077 1.0
C      1  0.5121246041364  0.4769318746309  0.4168041739691 1.0
C      1  0.5427893233527  0.4422464620155  0.5111248824766 1.0
C      1  0.3648535690062  0.6277620552388  0.6263866578389 1.0
C      1  0.5603344024300  0.6932199650470  0.5517174193717 1.0
C      1  0.5697668106596  0.2650160320148  0.5169999455740 1.0
C      1  0.5116815045107  0.6771609228759  0.2869739851027 1.0
C      1  0.3088378461259  0.4682704598231  0.6177639955951 1.0
C      1  0.4060394991868  0.4141491457990  0.7378980649920 1.0
C      1  0.3785913288084  0.3073010910712  0.6368230607848 1.0
C      1  0.7313422570744  0.4498510687567  0.5352714245306 1.0
C      1  0.5006319413738  0.3765704656388  0.7161652645485 1.0
C      1  0.5881480441922  0.4246439850658  0.7040465618097 1.0
C      1  0.5201845520452  0.2550714155903  0.6038712102715 1.0
C      1  0.2382492237425  0.5670650905757  0.5167192474290 1.0
C      1  0.6663295295767  0.2908967972193  0.4999718832030 1.0
C      1  0.4400337717853  0.6891890310361  0.6407187360242 1.0
C      1  0.7010615031998  0.3053364790022  0.4099543215741 1.0
C      1  0.7356696643563  0.6197390416260  0.5501432689175 1.0
C      1  0.5850684131224  0.6166385457391  0.2779233124926 1.0
C      1  0.7419750207933  0.5271675193957  0.5846334037054 1.0
C      1  0.6362499831633  0.3533794733700  0.6658487231022 1.0
C      1  0.3275182105629  0.6928478623955  0.4529341388402 1.0
C      1  0.3491237507891  0.5458778996577  0.6711434557832 1.0
C      1  0.2918227312528  0.4218130039099  0.3166900665351 1.0
C      1  0.3378528954861  0.3838949724103  0.6753608931399 1.0
C      1  0.5663671862988  0.2849877918515  0.6868150647936 1.0
END
