TITL C-12556-9949-163 -3.427 3375.00 -587.61659439 0 0 74 () n - 1
REM
REM Run started: at 2020.12.26 12:51:55 in /gpfs/home/chem/mssmkc/CARBON/AIRSS/Generating-Clusters/Str-Search/Only-C1/C10-100
REM VASP from code version vasp.5.4.4.18Apr17-6-g9f103f2a35 (build Oct 11 2019 16:45:47) gamma-only
REM
REM
REM
REM
REM ./C.cell (67c5d0192afd7a3ce4a0888e5fe73b87)
REM AIRSS Version 0.9.1 bugfix July 2018 build 013d7b7c2542+ Fri, 06 Jul 2018 19:26:36 +0100
REM compiler GCC version 6.3.0
REM options -cpp -iprefix /gpfs/warwick/csc/orac/software/Core/GCCcore/6.3.0/bin/../lib/gcc/x86_64-pc-linux-gnu/6.3.0/ -mtune=generic -march=x86-64 -g -O0
REM seed 676061877 1463061919 -764132831 -818980286 445526549 278609495 1595079520 -564045471 358755335 -1017842210 -1027262157 1005466310
REM
REM C.POTCAR (d86ddea03c3ceb6dc662c8ad6801f873)
REM 
CELL 1.54180   15.00000   15.00000   15.00000   90.00000   90.00000   90.00000
LATT -1
SFAC C  
C      1  0.4284983429464  0.3825086539392  0.3079913585729 1.0
C      1  0.3124722157897  0.6035933588177  0.6336948687912 1.0
C      1  0.3465841785525  0.4887797623957  0.4805570761397 1.0
C      1  0.7167411984394  0.4610323164436  0.3286187666471 1.0
C      1  0.3146589883840  0.6535546407162  0.5438519537383 1.0
C      1  0.3634998519785  0.4758278770886  0.7097376382809 1.0
C      1  0.3809212788262  0.3839286565800  0.6937961636299 1.0
C      1  0.2580221478899  0.6299498133392  0.3889645828648 1.0
C      1  0.5579877579935  0.6897853605796  0.3421447407990 1.0
C      1  0.4851181448001  0.5238543525987  0.4072345443496 1.0
C      1  0.4492981899763  0.6212663687732  0.4338052991552 1.0
C      1  0.5415544505454  0.5752502131857  0.5707716995750 1.0
C      1  0.3439780347506  0.3903502990432  0.3457583808347 1.0
C      1  0.5057268353238  0.3437226411493  0.3531475195836 1.0
C      1  0.5995006870423  0.5002376476817  0.7819773352994 1.0
C      1  0.4423491328642  0.4638524842331  0.4840576893771 1.0
C      1  0.5616216812734  0.4816913774113  0.2257006004283 1.0
C      1  0.4528470539946  0.3751449680075  0.5377127529516 1.0
C      1  0.6593676417086  0.7172313727351  0.5528151005969 1.0
C      1  0.7139825830204  0.3556423082121  0.4503741992842 1.0
C      1  0.6961199709849  0.5721506413558  0.4931468540845 1.0
C      1  0.7245554529378  0.6268820052398  0.5778548849030 1.0
C      1  0.6898934391073  0.6123223628122  0.3999235923313 1.0
C      1  0.4556423374407  0.5336775100964  0.5542177604862 1.0
C      1  0.3625235851983  0.3672546194189  0.5951535669454 1.0
C      1  0.4378085960712  0.3314607240002  0.7466528128968 1.0
C      1  0.5795773465888  0.4953258394855  0.4122700113395 1.0
C      1  0.5916582961548  0.2941559252990  0.5489856398115 1.0
C      1  0.4383234309964  0.5937844075313  0.3407299583784 1.0
C      1  0.5669078496351  0.4309989505168  0.6529787597858 1.0
C      1  0.6300068597052  0.5778325491384  0.7359588926452 1.0
C      1  0.4441351164011  0.5503680158933  0.7192416206774 1.0
C      1  0.6121384795248  0.5182293892558  0.5156239042699 1.0
C      1  0.3941438716820  0.6286469618186  0.6766233128139 1.0
C      1  0.2984944103650  0.4444767932235  0.5620920501493 1.0
C      1  0.6253153904299  0.4352593947543  0.5710705752102 1.0
C      1  0.4989325302525  0.5117910834293  0.6403762374622 1.0
C      1  0.5591048315997  0.2745195756774  0.4027427053245 1.0
C      1  0.5324617864309  0.2456432284019  0.4883893448455 1.0
C      1  0.7593189970744  0.4319491566219  0.4148156523388 1.0
C      1  0.7776848874259  0.5040733853588  0.4801181458392 1.0
C      1  0.5384619633806  0.3683155046681  0.5858508746518 1.0
C      1  0.5124859125291  0.5650432294367  0.2180172806160 1.0
C      1  0.5115840681606  0.3625298655789  0.7758022547716 1.0
C      1  0.5771579207908  0.3978127310505  0.3786261546370 1.0
C      1  0.5200882348231  0.6961283280803  0.4328897858770 1.0
C      1  0.7970760225070  0.5605824165679  0.5449488306844 1.0
C      1  0.4211797640688  0.5231615070802  0.2156764921915 1.0
C      1  0.6088900650165  0.7256673105863  0.4732534078909 1.0
C      1  0.6181807203917  0.7009573278214  0.6362936164720 1.0
C      1  0.6728155639204  0.6268061966130  0.6669046100672 1.0
C      1  0.3822158269485  0.5864546988586  0.5027242224221 1.0
C      1  0.6417169630557  0.3277304249656  0.3914192022627 1.0
C      1  0.3555069466044  0.2747942953868  0.5505299973471 1.0
C      1  0.2817674062110  0.5988801243934  0.3080681221423 1.0
C      1  0.5124514052601  0.6312582786298  0.2867884105637 1.0
C      1  0.5357087852052  0.5664371189886  0.7692587253572 1.0
C      1  0.3612612955036  0.5675334785350  0.2808517467681 1.0
C      1  0.5856532944298  0.4095886748460  0.7505905373324 1.0
C      1  0.4655946123708  0.4404821624399  0.2367408232324 1.0
C      1  0.2486920261292  0.6565670117260  0.4689051717845 1.0
C      1  0.3043200613901  0.5097299037929  0.6423881180058 1.0
C      1  0.4400837255030  0.2782769730986  0.5114125322109 1.0
C      1  0.2357291694720  0.3990274003852  0.4870879282601 1.0
C      1  0.6690058776141  0.3496294085417  0.5348550296278 1.0
C      1  0.2665731550940  0.2441909693256  0.5344614025603 1.0
C      1  0.4398643595896  0.6936672478133  0.6232226938168 1.0
C      1  0.2979877949931  0.4262922973297  0.4147310346099 1.0
C      1  0.3849532934485  0.7264355301151  0.5521715404950 1.0
C      1  0.2224790969168  0.3095584148895  0.5024247772733 1.0
C      1  0.5325906950449  0.6675315925149  0.6116680208738 1.0
C      1  0.6525439675046  0.5354168826342  0.3525151703461 1.0
C      1  0.6520946005163  0.4845274223319  0.2670496324593 1.0
C      1  0.6438073434998  0.6909784787146  0.3901928989513 1.0
END
