TITL C-12521-6401-149 -2.793 3375.00 -451.50100584 0 0 57 () n - 1
REM
REM Run started: at 2020.12.24 20:36:32 in /gpfs/home/chem/mssmkc/CARBON/AIRSS/Generating-Clusters/Str-Search/Only-C1/C10-100
REM VASP from code version vasp.5.4.4.18Apr17-6-g9f103f2a35 (build Oct 11 2019 16:45:47) gamma-only
REM
REM
REM
REM
REM ./C.cell (67c5d0192afd7a3ce4a0888e5fe73b87)
REM AIRSS Version 0.9.1 bugfix July 2018 build 013d7b7c2542+ Fri, 06 Jul 2018 19:26:36 +0100
REM compiler GCC version 6.3.0
REM options -cpp -iprefix /gpfs/warwick/csc/orac/software/Core/GCCcore/6.3.0/bin/../lib/gcc/x86_64-pc-linux-gnu/6.3.0/ -mtune=generic -march=x86-64 -g -O0
REM seed -809269414 280363209 1600867692 -1312161838 1845860037 941015104 -1979278036 1216036361 -1966097596 -43667039 -242096376 -1888590939
REM
REM C.POTCAR (d86ddea03c3ceb6dc662c8ad6801f873)
REM 
CELL 1.54180   15.00000   15.00000   15.00000   90.00000   90.00000   90.00000
LATT -1
SFAC C  
C      1  0.5486538998015  0.2345668186177  0.3399490550640 1.0
C      1  0.3322745335067  0.6116133701974  0.6177050749111 1.0
C      1  0.5899504942171  0.5235451442667  0.5093714366678 1.0
C      1  0.3166963753270  0.5151349274086  0.4470471985410 1.0
C      1  0.6386321320715  0.6660108751265  0.4419969749571 1.0
C      1  0.5340766584105  0.6405571258319  0.7386882650571 1.0
C      1  0.4799173172615  0.3052934612025  0.5542580872670 1.0
C      1  0.6158547046303  0.6347918895478  0.3578204579994 1.0
C      1  0.3345648138319  0.3609909874097  0.6184122881512 1.0
C      1  0.6338072567660  0.2619789982800  0.6000667417645 1.0
C      1  0.5591933362274  0.3284313346887  0.3585058626927 1.0
C      1  0.4429857136747  0.6332266606096  0.7377823368054 1.0
C      1  0.4860791415191  0.7206155406928  0.4600155926777 1.0
C      1  0.4665100921122  0.5062118049090  0.4121626710843 1.0
C      1  0.7216256888417  0.5191247182454  0.3960985317029 1.0
C      1  0.6377438791213  0.5040822009096  0.6906327686544 1.0
C      1  0.3027774945379  0.6138258686964  0.4164613988570 1.0
C      1  0.5604156754415  0.3911104553418  0.4235901325540 1.0
C      1  0.4300947885276  0.3527930578096  0.6381109916837 1.0
C      1  0.5783391099953  0.7194301020989  0.4935633375917 1.0
C      1  0.5322419714005  0.3810296533527  0.5141462745965 1.0
C      1  0.3237141371459  0.3239414816636  0.5298067782487 1.0
C      1  0.5677765732695  0.4920058041127  0.4143520691803 1.0
C      1  0.4095219288680  0.5302277004474  0.4836008051234 1.0
C      1  0.3319720851890  0.4313074918807  0.3902499869308 1.0
C      1  0.7024778031276  0.3175913659609  0.6194173600820 1.0
C      1  0.4047492913802  0.6058751669926  0.5490927044256 1.0
C      1  0.5554289729826  0.2449754816729  0.5777138547832 1.0
C      1  0.3870954772539  0.5628283974562  0.2930077205059 1.0
C      1  0.5818309615560  0.3007963940817  0.2700727907405 1.0
C      1  0.6109361274741  0.5895359843881  0.7185985645303 1.0
C      1  0.5928908375641  0.6686295221441  0.6672457011137 1.0
C      1  0.6394618592360  0.5389352080122  0.3572657141959 1.0
C      1  0.7682008946457  0.5119721423116  0.4665039149772 1.0
C      1  0.4347023180241  0.5898343855946  0.2193428851027 1.0
C      1  0.5722356287259  0.2068214516397  0.2508214157956 1.0
C      1  0.5074482084483  0.6302542649173  0.2335688205386 1.0
C      1  0.2728956074303  0.4252679382054  0.6419267248265 1.0
C      1  0.3678160771251  0.6272024077374  0.7020399793964 1.0
C      1  0.2500202876799  0.5792394538825  0.4828751809789 1.0
C      1  0.6522910267318  0.6049986454342  0.5252157791299 1.0
C      1  0.4854895460283  0.4038684596445  0.6895079981999 1.0
C      1  0.7157280911690  0.4882331739421  0.6279367116808 1.0
C      1  0.3999511946371  0.2921796089196  0.4901304960967 1.0
C      1  0.5357577560206  0.6689177327404  0.3123720436599 1.0
C      1  0.6078889216670  0.6801487155211  0.5781222815355 1.0
C      1  0.4576005095892  0.6924774882624  0.3694304937538 1.0
C      1  0.7330281423332  0.3948102390235  0.6232232415050 1.0
C      1  0.3730782514524  0.6425251359675  0.3543092899379 1.0
C      1  0.5597902595683  0.4485422601974  0.6635734056630 1.0
C      1  0.4372662942669  0.6829582761065  0.5247258236579 1.0
C      1  0.2515472005169  0.5755676243609  0.5831063700175 1.0
C      1  0.7298116155283  0.5412561108779  0.5502729662089 1.0
C      1  0.4039738707679  0.4750737534224  0.3394439754333 1.0
C      1  0.2306361087628  0.4964663157180  0.6289330035577 1.0
C      1  0.3427665590264  0.3549065996519  0.4408869884638 1.0
C      1  0.5597842975841  0.4554627218653  0.5649207807415 1.0
END
