TITL C-12521-6401-197 -3.669 3375.00 -617.65577978 0 0 77 () n - 1
REM
REM Run started: at 2020.12.25 08:28:50 in /gpfs/home/chem/mssmkc/CARBON/AIRSS/Generating-Clusters/Str-Search/Only-C1/C10-100
REM VASP from code version vasp.5.4.4.18Apr17-6-g9f103f2a35 (build Oct 11 2019 16:45:47) gamma-only
REM
REM
REM
REM
REM ./C.cell (67c5d0192afd7a3ce4a0888e5fe73b87)
REM AIRSS Version 0.9.1 bugfix July 2018 build 013d7b7c2542+ Fri, 06 Jul 2018 19:26:36 +0100
REM compiler GCC version 6.3.0
REM options -cpp -iprefix /gpfs/warwick/csc/orac/software/Core/GCCcore/6.3.0/bin/../lib/gcc/x86_64-pc-linux-gnu/6.3.0/ -mtune=generic -march=x86-64 -g -O0
REM seed -1897484012 1100465798 1330403040 -841430916 -274440008 209167134 -208798998 -1603355277 -434025906 -1527716567 512006150 2022523387
REM
REM C.POTCAR (d86ddea03c3ceb6dc662c8ad6801f873)
REM 
CELL 1.54180   15.00000   15.00000   15.00000   90.00000   90.00000   90.00000
LATT -1
SFAC C  
C      1  0.7434893709411  0.3845627854583  0.5473171294870 1.0
C      1  0.6491741460074  0.3456797047125  0.4004401945933 1.0
C      1  0.2626987179480  0.4041206205432  0.6223505998591 1.0
C      1  0.7851133507224  0.4702762051829  0.5389799886189 1.0
C      1  0.2344788073419  0.6008454519878  0.7423806485458 1.0
C      1  0.4695941775623  0.2614798617546  0.6430691637614 1.0
C      1  0.3995342868614  0.4764068400470  0.4529293082364 1.0
C      1  0.7223851775871  0.3859374215649  0.4487210399195 1.0
C      1  0.6070034596124  0.3994345913575  0.6295308295923 1.0
C      1  0.3116945609785  0.5112814281583  0.4183341956078 1.0
C      1  0.2526761585548  0.3484140581691  0.4366922465043 1.0
C      1  0.4313155826505  0.3222168321998  0.7043437048310 1.0
C      1  0.5287958825635  0.6253617128765  0.5342424743616 1.0
C      1  0.3247734387364  0.3155028779769  0.3808430953201 1.0
C      1  0.4909562208757  0.2501973909898  0.4550323710711 1.0
C      1  0.5520510268163  0.7247130429559  0.5285987609289 1.0
C      1  0.6670216619564  0.5362415172610  0.3529052346533 1.0
C      1  0.5102146269268  0.6986422068102  0.3233648410339 1.0
C      1  0.1849895830358  0.5369836704515  0.5866369864194 1.0
C      1  0.3956062137734  0.4405562338046  0.2822750073698 1.0
C      1  0.6817553820307  0.5184771717714  0.6842156263377 1.0
C      1  0.4292362541469  0.3935465254076  0.4824089000830 1.0
C      1  0.6675114552668  0.7162290394667  0.4080574955070 1.0
C      1  0.5281658323050  0.4522886067021  0.3489578579128 1.0
C      1  0.4898518512677  0.4588307175661  0.2544724529783 1.0
C      1  0.5499720627714  0.3737367212587  0.2495055077625 1.0
C      1  0.6940556984333  0.3616773528131  0.6260300668569 1.0
C      1  0.4643876801665  0.7499543019814  0.4769928085609 1.0
C      1  0.4886253441381  0.4615076976835  0.7329461734731 1.0
C      1  0.5320672692565  0.5757220715859  0.4495057478343 1.0
C      1  0.2479413096851  0.3147467455377  0.5956769759406 1.0
C      1  0.4084581605083  0.7158655335079  0.5443619207649 1.0
C      1  0.6241978506036  0.5636262547270  0.2681640057063 1.0
C      1  0.3001108322619  0.5462158888927  0.6865516919598 1.0
C      1  0.6596836307067  0.5479176478396  0.5274534172292 1.0
C      1  0.6613479739544  0.6470822898385  0.2885809129109 1.0
C      1  0.6065562664708  0.7126854390098  0.3313202689077 1.0
C      1  0.3686183034752  0.6584377853323  0.3828215247015 1.0
C      1  0.4436168852813  0.7203842605466  0.3905008005806 1.0
C      1  0.5931333330117  0.2787038113535  0.4429633933637 1.0
C      1  0.2353639315103  0.2979495298152  0.5147120818453 1.0
C      1  0.5832600548973  0.5622493537294  0.5843892597546 1.0
C      1  0.4823637917631  0.5081543068179  0.4166986240224 1.0
C      1  0.3620713526264  0.6007726459828  0.6341057727726 1.0
C      1  0.3190582825008  0.4490293643060  0.6848074618918 1.0
C      1  0.7618700896589  0.6393968758482  0.5895969399987 1.0
C      1  0.4932010770025  0.2379266701186  0.5559504397357 1.0
C      1  0.4165319096388  0.3142855211836  0.4212025961254 1.0
C      1  0.7381403621972  0.5424483293274  0.5920730088022 1.0
C      1  0.5681680546793  0.3939857573836  0.7228152903148 1.0
C      1  0.3479112116801  0.5160775965099  0.3177389561357 1.0
C      1  0.3243527472890  0.6119593733010  0.4547855136218 1.0
C      1  0.7604298293344  0.5468998814922  0.3801322794657 1.0
C      1  0.4043186579703  0.4145259908305  0.7145832219233 1.0
C      1  0.7156193234186  0.7014806056873  0.5577461954615 1.0
C      1  0.4490719354869  0.6162491368079  0.6683609025688 1.0
C      1  0.5134496430582  0.3963580356897  0.5256296409086 1.0
C      1  0.5295978730087  0.5507375470552  0.2489082019014 1.0
C      1  0.5542598921188  0.3036864092866  0.5238790593155 1.0
C      1  0.5627502756988  0.4594905275354  0.5705824303044 1.0
C      1  0.6501832398652  0.7342311778868  0.5005551764895 1.0
C      1  0.7773963158317  0.4744334308147  0.4400590081147 1.0
C      1  0.6255457277940  0.5545553061104  0.4399989104949 1.0
C      1  0.4731766600287  0.6249504829674  0.2706942961334 1.0
C      1  0.3850652634689  0.3551791125983  0.3281880233350 1.0
C      1  0.5962750436857  0.3896349168014  0.3300615496769 1.0
C      1  0.5226930193743  0.3040100271807  0.7166312911170 1.0
C      1  0.6010433154902  0.5668991912453  0.6815062174250 1.0
C      1  0.2436548582852  0.4413506719503  0.4566146206223 1.0
C      1  0.1970961997002  0.5690883248650  0.6680240064479 1.0
C      1  0.3438542161824  0.6453465033586  0.5445570950688 1.0
C      1  0.2211172449615  0.4625075445669  0.5497436284884 1.0
C      1  0.6713899452422  0.4234272984850  0.7068249093079 1.0
C      1  0.5085666234300  0.5533572101040  0.7149233668383 1.0
C      1  0.4824234030889  0.6854635524368  0.6022301113206 1.0
C      1  0.7315136210133  0.6422977875450  0.3643012412230 1.0
C      1  0.3843552798254  0.6031138852902  0.3059130009393 1.0
END
