TITL C-12521-6401-113 -3.576 3375.00 -607.01144285 0 0 75 () n - 1
REM
REM Run started: at 2020.12.24 12:04:16 in /gpfs/home/chem/mssmkc/CARBON/AIRSS/Generating-Clusters/Str-Search/Only-C1/C10-100
REM VASP from code version vasp.5.4.4.18Apr17-6-g9f103f2a35 (build Oct 11 2019 16:45:47) gamma-only
REM
REM
REM
REM
REM ./C.cell (67c5d0192afd7a3ce4a0888e5fe73b87)
REM AIRSS Version 0.9.1 bugfix July 2018 build 013d7b7c2542+ Fri, 06 Jul 2018 19:26:36 +0100
REM compiler GCC version 6.3.0
REM options -cpp -iprefix /gpfs/warwick/csc/orac/software/Core/GCCcore/6.3.0/bin/../lib/gcc/x86_64-pc-linux-gnu/6.3.0/ -mtune=generic -march=x86-64 -g -O0
REM seed -1346003452 410286166 424486445 568041024 46817079 -417751025 -2051537384 423089343 -170618431 1135316935 -800418597 -1709770910
REM
REM C.POTCAR (d86ddea03c3ceb6dc662c8ad6801f873)
REM 
CELL 1.54180   15.00000   15.00000   15.00000   90.00000   90.00000   90.00000
LATT -1
SFAC C  
C      1  0.4189089428014  0.6053183527117  0.7009812994790 1.0
C      1  0.6462800447963  0.4134265189699  0.4043568970816 1.0
C      1  0.6694195404687  0.5086879494238  0.3920580305686 1.0
C      1  0.5486919995094  0.7048579598577  0.6709640991967 1.0
C      1  0.5856568047253  0.2751794631430  0.3234505645772 1.0
C      1  0.2778304762409  0.6013101166001  0.4133549845689 1.0
C      1  0.6096798464562  0.7113963390614  0.5952176422387 1.0
C      1  0.4137612435084  0.4152539271530  0.7372691430579 1.0
C      1  0.5024216194697  0.4164091548174  0.2108705143929 1.0
C      1  0.5766041059146  0.7503471576287  0.4190879680393 1.0
C      1  0.4970564893478  0.2438441520315  0.4902883362924 1.0
C      1  0.5280735897595  0.5673922237411  0.3024234595179 1.0
C      1  0.5888946107771  0.6872112258599  0.7532312762142 1.0
C      1  0.6820997730958  0.5570566917664  0.6361394634225 1.0
C      1  0.6677322602784  0.2754918523388  0.5060193035526 1.0
C      1  0.4185613156514  0.7107407216992  0.5730436488680 1.0
C      1  0.4545774134657  0.4795358117037  0.7900581756840 1.0
C      1  0.6415668527879  0.3598365115749  0.6740993009036 1.0
C      1  0.6817705645239  0.2765104974353  0.6689892360229 1.0
C      1  0.6117675979261  0.5167453759503  0.7072422513794 1.0
C      1  0.3393544040476  0.6707143685188  0.5341624293283 1.0
C      1  0.3590976706899  0.4486147296328  0.6659946594099 1.0
C      1  0.5984081608207  0.5807561936169  0.3765988189191 1.0
C      1  0.4742355648582  0.7587657357371  0.5142260917661 1.0
C      1  0.2783127020813  0.5412550513915  0.3413156510735 1.0
C      1  0.7471997966193  0.5259193207349  0.4407042332272 1.0
C      1  0.5980836496328  0.5011053857436  0.6056112266488 1.0
C      1  0.6471019030593  0.7553458979856  0.3460754417714 1.0
C      1  0.4147424783777  0.2522102454120  0.4457520843075 1.0
C      1  0.3578534295192  0.5497286977074  0.2853539371660 1.0
C      1  0.4220513079202  0.2692224939825  0.3460333523437 1.0
C      1  0.2151485075236  0.3539335561187  0.4870453368637 1.0
C      1  0.2829038678668  0.3284969388587  0.5531949621456 1.0
C      1  0.7318190301796  0.4811261650722  0.5917815728133 1.0
C      1  0.7593072793973  0.4536363719288  0.5071478799907 1.0
C      1  0.5436018006798  0.4994209548873  0.2448568083206 1.0
C      1  0.3750500211521  0.4797627055282  0.2339961227724 1.0
C      1  0.4556718570681  0.6827243653252  0.6548279062372 1.0
C      1  0.2605563892685  0.4838012862093  0.5473666195255 1.0
C      1  0.5957099953232  0.4151377939991  0.7362092841687 1.0
C      1  0.3020492770576  0.4110769512482  0.5985277688623 1.0
C      1  0.7787667066888  0.6103941099356  0.4681297610164 1.0
C      1  0.2535257983096  0.4545860111569  0.3731736005675 1.0
C      1  0.5086861715363  0.4064007141324  0.7686309614409 1.0
C      1  0.6291215150174  0.6738866681644  0.3697462382628 1.0
C      1  0.6824535224770  0.3785029621971  0.4938374594562 1.0
C      1  0.6551575796859  0.4167068629789  0.5933391328892 1.0
C      1  0.3319849010725  0.6765801091457  0.4332205977152 1.0
C      1  0.3302317418302  0.2717418142126  0.4816719223278 1.0
C      1  0.2198170220255  0.4469601345395  0.4676003209385 1.0
C      1  0.6170534480371  0.3645189897004  0.3297265377406 1.0
C      1  0.4134506851636  0.6917973141986  0.3761598946095 1.0
C      1  0.6146609602707  0.6521086827520  0.8286063646410 1.0
C      1  0.5679371602601  0.5857214613548  0.7687601522251 1.0
C      1  0.2665069665689  0.3104087137914  0.4205317379389 1.0
C      1  0.5061311004556  0.2534349708254  0.3104421594064 1.0
C      1  0.3560535829355  0.5804163242586  0.4775270197601 1.0
C      1  0.4709478738758  0.5678351655815  0.7712066305124 1.0
C      1  0.2905132765334  0.3667744281823  0.3478889794902 1.0
C      1  0.5804955674980  0.2470257496878  0.4855037432105 1.0
C      1  0.3136590955066  0.5684352774546  0.5687277518475 1.0
C      1  0.6933846545429  0.2481948101905  0.5892090381228 1.0
C      1  0.6871872844926  0.6544802820150  0.6008069124222 1.0
C      1  0.7503757116757  0.6528428897079  0.5337605944993 1.0
C      1  0.4108247713945  0.3959725896652  0.2341102109579 1.0
C      1  0.5707722228197  0.7526559291368  0.5185226572460 1.0
C      1  0.5352844922226  0.5170727245099  0.5360727696574 1.0
C      1  0.3620165303271  0.5453502769464  0.6530467707911 1.0
C      1  0.4357854851720  0.5953067792080  0.3342398204353 1.0
C      1  0.4766411296245  0.7459194103832  0.4169151933036 1.0
C      1  0.4835505578102  0.4691692144434  0.4749056601080 1.0
C      1  0.3700806059881  0.3366635699394  0.3012671601936 1.0
C      1  0.5848832443703  0.4141815892904  0.2535943887073 1.0
C      1  0.5319325993306  0.5741173675533  0.4611904215252 1.0
C      1  0.4405115498333  0.5545284896537  0.4319997533139 1.0
END
