TITL C-128256-4848-15 -3.383 3375.00 -568.04378034 0 0 71 (C1) n - 1
REM
REM Run started: at 2020.12.24 16:08:06 in /rds/project/t2_vol4/rds-t2-cs072/BORA/CARBON/AIRSS/Generating-Clusters/Str-Search/Only-C1/C10-100
REM VASP from code version vasp.5.4.4.18Apr17-6-g9f103f2a35 (build Oct 11 2019 16:45:47) gamma-only
REM
REM
REM
REM
REM ./C.cell (67c5d0192afd7a3ce4a0888e5fe73b87)
REM AIRSS Version 0.9.1 bugfix July 2018 build 013d7b7c2542+ Fri, 06 Jul 2018 19:26:36 +0100
REM compiler GCC version 4.8.5 20150623 (Red Hat 4.8.5-39)
REM options -cpp -mtune=generic -march=x86-64 -g -O0
REM seed 1053578689 1332417868 453631347 -1711108103 2124624060 -1509681789 889769385 -1620447529 158816039 957207480 -1567570614 -556253223
REM
REM C.POTCAR (d86ddea03c3ceb6dc662c8ad6801f873)
REM 
CELL 1.54180   15.00000   15.00000   15.00000   90.00000   90.00000   90.00000
LATT -1
SFAC C  
C      1  0.3681296411980  0.4564582016058  0.4661714187279 1.0
C      1  0.6289049305734  0.3323632543941  0.4814827166056 1.0
C      1  0.6601348236119  0.7288217467743  0.5557419174649 1.0
C      1  0.5145153327147  0.4668365543006  0.4608447361231 1.0
C      1  0.4050820579641  0.4961561739032  0.3105779964577 1.0
C      1  0.5638520195277  0.3162792885594  0.6214690686788 1.0
C      1  0.3803943706599  0.6769102749282  0.3856085223944 1.0
C      1  0.5820590382059  0.6503627910740  0.6784750828297 1.0
C      1  0.4373358537765  0.2172020936813  0.4762066116869 1.0
C      1  0.4387289214925  0.4342785729609  0.3933395282613 1.0
C      1  0.5500188623357  0.2628659635506  0.3353276033713 1.0
C      1  0.4011409633543  0.5508166134801  0.5974682992928 1.0
C      1  0.4294848150013  0.5215200698255  0.5111419534557 1.0
C      1  0.3998198551070  0.3392580196721  0.3737062267885 1.0
C      1  0.3913054288346  0.3011542193850  0.4691039296493 1.0
C      1  0.3060811749551  0.6598463439995  0.6369556801938 1.0
C      1  0.6868630166469  0.4567419870365  0.5087128223213 1.0
C      1  0.3479288279066  0.4889234368975  0.6410501207145 1.0
C      1  0.5061006476569  0.5668599722393  0.4635625405475 1.0
C      1  0.5669317076803  0.6320775073006  0.2390663944040 1.0
C      1  0.3104553777700  0.5297742328850  0.7240455500784 1.0
C      1  0.5756234763246  0.5760916232454  0.6161527926964 1.0
C      1  0.4890450747477  0.7622945012844  0.5402116256126 1.0
C      1  0.6200521112100  0.3265972561924  0.3179382904933 1.0
C      1  0.7004402255957  0.6174577111157  0.3472894445001 1.0
C      1  0.7420343143692  0.6427690070239  0.6122827835495 1.0
C      1  0.7333519480424  0.6272264720920  0.4379387518450 1.0
C      1  0.7356439038739  0.6770243862518  0.5184848189980 1.0
C      1  0.4123343274079  0.6474135492022  0.6382807278301 1.0
C      1  0.7094860535023  0.4483578232927  0.4139041239815 1.0
C      1  0.4192252053214  0.5977293047388  0.3194347435978 1.0
C      1  0.6643279651580  0.6960760348821  0.6473197626396 1.0
C      1  0.3219842425700  0.7049378783917  0.5468087353087 1.0
C      1  0.7378619303006  0.4861387451455  0.5771115136445 1.0
C      1  0.5203402208386  0.7670861664681  0.4508257918030 1.0
C      1  0.5371274120887  0.4381777509567  0.2153069885937 1.0
C      1  0.4531071473772  0.1975328919086  0.6442626736717 1.0
C      1  0.4703223592462  0.5671379577457  0.7693062674797 1.0
C      1  0.4580957862306  0.2718416967563  0.3298819752390 1.0
C      1  0.5724378330710  0.7120931847162  0.5178460428586 1.0
C      1  0.6678024674654  0.3619208753627  0.3931357351965 1.0
C      1  0.4515507114778  0.1847442050527  0.5610524537864 1.0
C      1  0.4704201592977  0.5016227091411  0.2316241621406 1.0
C      1  0.4867338777127  0.2847423827200  0.6660111157393 1.0
C      1  0.2369377075131  0.3694523366392  0.4133779594606 1.0
C      1  0.2715059547376  0.6097690563886  0.7023434874839 1.0
C      1  0.5619450702807  0.6110436231059  0.5300561894383 1.0
C      1  0.5200191570303  0.4858431530090  0.7443486841218 1.0
C      1  0.4802345121975  0.5941393293673  0.2355503008972 1.0
C      1  0.4157266592824  0.7223448823971  0.5735453469452 1.0
C      1  0.3690002367401  0.3931488276445  0.6219699369901 1.0
C      1  0.5608043518337  0.4873344190824  0.6583427092216 1.0
C      1  0.3197819725888  0.6684287335238  0.4607039375413 1.0
C      1  0.7610707810341  0.5540611081133  0.6206199815004 1.0
C      1  0.3679461940322  0.3728646834051  0.5277374088368 1.0
C      1  0.6112436740813  0.2716555540495  0.5469705819806 1.0
C      1  0.3101705401973  0.4635081838777  0.3118282074460 1.0
C      1  0.7280175187315  0.5398177248750  0.3906126338771 1.0
C      1  0.6369177316704  0.6388150849690  0.2829278057424 1.0
C      1  0.5901817119797  0.3865373193159  0.2515240073396 1.0
C      1  0.3067477411318  0.3718478949262  0.3433816970017 1.0
C      1  0.4703171503399  0.7176246241290  0.3909541452651 1.0
C      1  0.4859461393629  0.6421885476276  0.7145691512818 1.0
C      1  0.4885019969579  0.2111163229496  0.3930637133441 1.0
C      1  0.4788462754962  0.6239178799106  0.3903861072773 1.0
C      1  0.4228574583565  0.3574300431976  0.6924190947004 1.0
C      1  0.5702536175234  0.4104296422625  0.6082880337763 1.0
C      1  0.2835702747988  0.4559409259789  0.4061692292965 1.0
C      1  0.5929664785970  0.4234401347791  0.5140118919900 1.0
C      1  0.4438480485259  0.4264772787596  0.7566896359457 1.0
C      1  0.3900246247759  0.5083011535756  0.7751382800454 1.0
END
