TITL C-12521-6401-158 -1.276 3375.00 -192.99616803 0 0 25 () n - 1
REM
REM Run started: at 2020.12.24 22:50:56 in /gpfs/home/chem/mssmkc/CARBON/AIRSS/Generating-Clusters/Str-Search/Only-C1/C10-100
REM VASP from code version vasp.5.4.4.18Apr17-6-g9f103f2a35 (build Oct 11 2019 16:45:47) gamma-only
REM
REM
REM
REM
REM ./C.cell (67c5d0192afd7a3ce4a0888e5fe73b87)
REM AIRSS Version 0.9.1 bugfix July 2018 build 013d7b7c2542+ Fri, 06 Jul 2018 19:26:36 +0100
REM compiler GCC version 6.3.0
REM options -cpp -iprefix /gpfs/warwick/csc/orac/software/Core/GCCcore/6.3.0/bin/../lib/gcc/x86_64-pc-linux-gnu/6.3.0/ -mtune=generic -march=x86-64 -g -O0
REM seed -491252805 -618120104 394668929 1812768031 1936253946 -1197071190 -1382516234 -1218323740 165795903 -1702082338 1196442158 -663673164
REM
REM C.POTCAR (d86ddea03c3ceb6dc662c8ad6801f873)
REM 
CELL 1.54180   15.00000   15.00000   15.00000   90.00000   90.00000   90.00000
LATT -1
SFAC C  
C      1  0.4523358277900  0.3690342474242  0.3960418068742 1.0
C      1  0.5384703640634  0.6565673688161  0.6289243902612 1.0
C      1  0.5049283607021  0.4856498280127  0.2941747458696 1.0
C      1  0.4927912334408  0.3678019081780  0.4789624151551 1.0
C      1  0.4924874265342  0.6041874893280  0.6994789628506 1.0
C      1  0.6465673207050  0.4558001623768  0.3403826722110 1.0
C      1  0.4644789300683  0.6135968280814  0.4058314459119 1.0
C      1  0.5000563953732  0.3934366017736  0.3152884657340 1.0
C      1  0.5107537073184  0.5693807745002  0.3428713403214 1.0
C      1  0.5937927216594  0.3755057539129  0.3306474478121 1.0
C      1  0.6105518255804  0.6124271158211  0.5973618682414 1.0
C      1  0.4200817079234  0.6220131838470  0.4762681526575 1.0
C      1  0.4412794256845  0.4713683026350  0.6885278441893 1.0
C      1  0.6353190512991  0.3919215516237  0.4132421552030 1.0
C      1  0.4439059629536  0.6477673137793  0.6321657746039 1.0
C      1  0.5905661288266  0.5271025699527  0.3116627945739 1.0
C      1  0.3510858387864  0.5166941061462  0.5747758020874 1.0
C      1  0.3420774570631  0.4591880995285  0.5033671280845 1.0
C      1  0.6104891947727  0.4529074690066  0.5647525269335 1.0
C      1  0.3625543978835  0.4673670222977  0.6566969164787 1.0
C      1  0.3907387096225  0.6063153259142  0.5614745548750 1.0
C      1  0.5952392961235  0.5181494625704  0.6247757819026 1.0
C      1  0.3996390254244  0.4037862382240  0.4665518586651 1.0
C      1  0.5224512779934  0.5134205353483  0.6976472819884 1.0
C      1  0.5873583124082  0.3986106409012  0.4981259665147 1.0
END
