TITL C-12521-6401-111 -2.642 3375.00 -429.05182509 0 0 53 () n - 1
REM
REM Run started: at 2020.12.24 11:22:31 in /gpfs/home/chem/mssmkc/CARBON/AIRSS/Generating-Clusters/Str-Search/Only-C1/C10-100
REM VASP from code version vasp.5.4.4.18Apr17-6-g9f103f2a35 (build Oct 11 2019 16:45:47) gamma-only
REM
REM
REM
REM
REM ./C.cell (67c5d0192afd7a3ce4a0888e5fe73b87)
REM AIRSS Version 0.9.1 bugfix July 2018 build 013d7b7c2542+ Fri, 06 Jul 2018 19:26:36 +0100
REM compiler GCC version 6.3.0
REM options -cpp -iprefix /gpfs/warwick/csc/orac/software/Core/GCCcore/6.3.0/bin/../lib/gcc/x86_64-pc-linux-gnu/6.3.0/ -mtune=generic -march=x86-64 -g -O0
REM seed 1362198488 -93545899 1674666901 1447810744 701175781 -1568896035 -472610218 -994845187 1424350186 2024280988 -1769259812 -2067178994
REM
REM C.POTCAR (d86ddea03c3ceb6dc662c8ad6801f873)
REM 
CELL 1.54180   15.00000   15.00000   15.00000   90.00000   90.00000   90.00000
LATT -1
SFAC C  
C      1  0.5582503569935  0.6749468980235  0.6479194098153 1.0
C      1  0.5652900845617  0.2655679974999  0.4959158635040 1.0
C      1  0.6385663094577  0.5311019246056  0.3519751628434 1.0
C      1  0.6983086482122  0.6272732064243  0.5617530107902 1.0
C      1  0.4125701275278  0.4035113077171  0.3832959275250 1.0
C      1  0.2996450725833  0.5886674025808  0.5141415439113 1.0
C      1  0.4247318752155  0.5441429125849  0.7165607487365 1.0
C      1  0.5729081052253  0.5749122914497  0.4104878879325 1.0
C      1  0.2964982676839  0.5496918165039  0.4233046434196 1.0
C      1  0.3634434105141  0.3039513383559  0.5520775855589 1.0
C      1  0.5632274030406  0.5775804492769  0.5077289450834 1.0
C      1  0.7530171291613  0.4459918878346  0.4425457616966 1.0
C      1  0.3507850058386  0.4616607040209  0.6129665280143 1.0
C      1  0.5108644424710  0.5088841409413  0.4756489708130 1.0
C      1  0.5618052656534  0.3471391335963  0.6484159489257 1.0
C      1  0.6497110769385  0.3712258385602  0.6441145069493 1.0
C      1  0.3657305870949  0.5980766845455  0.3719807101003 1.0
C      1  0.4376110323004  0.2999975926516  0.6093369148211 1.0
C      1  0.4836867219272  0.4100070876108  0.3203302051637 1.0
C      1  0.2984079456296  0.3444764312213  0.5104742157323 1.0
C      1  0.3190162587523  0.3954803093031  0.3636795342247 1.0
C      1  0.7694499220109  0.5913381411646  0.5342722698373 1.0
C      1  0.2551625161090  0.3749270387346  0.4300508967978 1.0
C      1  0.4954837136837  0.4960958248197  0.2829830396326 1.0
C      1  0.4694921325525  0.3738582446181  0.6725630045855 1.0
C      1  0.5081660590385  0.7676012398881  0.4633540116780 1.0
C      1  0.7204629203556  0.3782649140761  0.5997012123509 1.0
C      1  0.5631103854575  0.3587965422608  0.3385838528468 1.0
C      1  0.4817058542286  0.7260216133286  0.6117226024241 1.0
C      1  0.4932297679503  0.5821403461197  0.7669263276694 1.0
C      1  0.3511765722148  0.6700576117757  0.5145728246437 1.0
C      1  0.5130579248039  0.6364841669177  0.3541576075384 1.0
C      1  0.4159136902455  0.4524750854184  0.6843235624323 1.0
C      1  0.5770053402815  0.2941038637751  0.4079547308677 1.0
C      1  0.4459428357933  0.5760552785717  0.3190913868340 1.0
C      1  0.6362408527596  0.2290953849555  0.4440573596996 1.0
C      1  0.3726087562644  0.6024762591449  0.6563557210888 1.0
C      1  0.5928245577066  0.4987420370791  0.2747443111699 1.0
C      1  0.5254690814665  0.2836553952382  0.5804244907449 1.0
C      1  0.3699646646067  0.4113786728624  0.5344191923821 1.0
C      1  0.5459357365488  0.6352834141561  0.7279404939154 1.0
C      1  0.3974396621120  0.6797995277952  0.6046638575390 1.0
C      1  0.6344812122999  0.4146893259807  0.3097977009280 1.0
C      1  0.7008361662621  0.4575549064061  0.3685675703414 1.0
C      1  0.4731752348306  0.7092252448397  0.4024695463868 1.0
C      1  0.6087765997612  0.6331613748283  0.5752556967624 1.0
C      1  0.3177580928847  0.5472130059437  0.5984707462870 1.0
C      1  0.7851744666770  0.5056186338500  0.5108873022062 1.0
C      1  0.7701177744612  0.4160641128172  0.5332089143544 1.0
C      1  0.2647457020392  0.4669733595377  0.3964811875431 1.0
C      1  0.4988073602233  0.7883962144803  0.5439069847246 1.0
C      1  0.3858262833927  0.6773962369776  0.4252001346259 1.0
C      1  0.4363829341952  0.4407693263304  0.4682371336011 1.0
END
