TITL C-12556-9949-36 -1.586 3375.00 -253.05340217 0 0 32 () n - 1
REM
REM Run started: at 2020.12.25 07:19:07 in /gpfs/home/chem/mssmkc/CARBON/AIRSS/Generating-Clusters/Str-Search/Only-C1/C10-100
REM VASP from code version vasp.5.4.4.18Apr17-6-g9f103f2a35 (build Oct 11 2019 16:45:47) gamma-only
REM
REM
REM
REM
REM ./C.cell (67c5d0192afd7a3ce4a0888e5fe73b87)
REM AIRSS Version 0.9.1 bugfix July 2018 build 013d7b7c2542+ Fri, 06 Jul 2018 19:26:36 +0100
REM compiler GCC version 6.3.0
REM options -cpp -iprefix /gpfs/warwick/csc/orac/software/Core/GCCcore/6.3.0/bin/../lib/gcc/x86_64-pc-linux-gnu/6.3.0/ -mtune=generic -march=x86-64 -g -O0
REM seed 1715976037 -478004562 -1766426311 75916539 -377258113 2035182139 1509443785 1709525210 -2113342506 848207758 -118866631 -2031634596
REM
REM C.POTCAR (d86ddea03c3ceb6dc662c8ad6801f873)
REM 
CELL 1.54180   15.00000   15.00000   15.00000   90.00000   90.00000   90.00000
LATT -1
SFAC C  
C      1  0.5992423366694  0.3414530631527  0.6066864446015 1.0
C      1  0.6265468014427  0.5996363315741  0.5354845736701 1.0
C      1  0.3251706012039  0.3883046999205  0.4983087497812 1.0
C      1  0.4051958438886  0.6069645312845  0.4884318350147 1.0
C      1  0.5773782084954  0.5079801465026  0.6574747020160 1.0
C      1  0.3115069766178  0.4707793267308  0.5507519591888 1.0
C      1  0.5590793386424  0.4261109021170  0.6269394772289 1.0
C      1  0.5821624334804  0.5931127180136  0.6235255863980 1.0
C      1  0.3969761990880  0.3658931773477  0.4529831435322 1.0
C      1  0.3527165721942  0.5766382619864  0.6738522376431 1.0
C      1  0.4186140509993  0.6277227406566  0.6731633654388 1.0
C      1  0.5850801618120  0.3458332775112  0.4367046479507 1.0
C      1  0.3152097948925  0.4913913512828  0.6521129318477 1.0
C      1  0.5995890708378  0.3231831267455  0.5249083730050 1.0
C      1  0.4613332317772  0.4454515749089  0.4803557787545 1.0
C      1  0.4809088289234  0.6526322867679  0.5241459668492 1.0
C      1  0.6418148622439  0.4134520495264  0.3974949661238 1.0
C      1  0.3365892316540  0.5471292983545  0.4893652910127 1.0
C      1  0.5956696647339  0.4633050357085  0.3291846534936 1.0
C      1  0.4730663909186  0.4421648014374  0.5790118850327 1.0
C      1  0.4461689280961  0.5193500099362  0.3381273068934 1.0
C      1  0.6838370519827  0.5342171084626  0.5008883517219 1.0
C      1  0.5677875822988  0.6252032960189  0.3807575212420 1.0
C      1  0.4131032492590  0.5235763113889  0.4319666728793 1.0
C      1  0.5981544971759  0.5588544819807  0.3189281840959 1.0
C      1  0.3923682465550  0.4541276260635  0.6173905001507 1.0
C      1  0.5064555912490  0.5893737463538  0.3194794222324 1.0
C      1  0.4943853387834  0.6395857767537  0.6188054545200 1.0
C      1  0.6965537807462  0.4669898226342  0.4536827662873 1.0
C      1  0.5018879308935  0.4410063151657  0.3327263188284 1.0
C      1  0.5651213119256  0.6403214963371  0.4751470518623 1.0
C      1  0.4903257905195  0.3782553073752  0.4112136807033 1.0
END
