TITL C-12521-6401-162 -1.309 3375.00 -208.81768005 0 0 27 () n - 1
REM
REM Run started: at 2020.12.24 23:51:50 in /gpfs/home/chem/mssmkc/CARBON/AIRSS/Generating-Clusters/Str-Search/Only-C1/C10-100
REM VASP from code version vasp.5.4.4.18Apr17-6-g9f103f2a35 (build Oct 11 2019 16:45:47) gamma-only
REM
REM
REM
REM
REM ./C.cell (67c5d0192afd7a3ce4a0888e5fe73b87)
REM AIRSS Version 0.9.1 bugfix July 2018 build 013d7b7c2542+ Fri, 06 Jul 2018 19:26:36 +0100
REM compiler GCC version 6.3.0
REM options -cpp -iprefix /gpfs/warwick/csc/orac/software/Core/GCCcore/6.3.0/bin/../lib/gcc/x86_64-pc-linux-gnu/6.3.0/ -mtune=generic -march=x86-64 -g -O0
REM seed 1219237609 -1773763549 -1710022534 -980373500 -1882366619 -1032521688 51440639 1053782023 -431958433 -1705511901 -1098619331 -1779036632
REM
REM C.POTCAR (d86ddea03c3ceb6dc662c8ad6801f873)
REM 
CELL 1.54180   15.00000   15.00000   15.00000   90.00000   90.00000   90.00000
LATT -1
SFAC C  
C      1  0.4877962693581  0.4361180822190  0.6446214973959 1.0
C      1  0.2919958423829  0.5351937571898  0.5113335019255 1.0
C      1  0.4162497753962  0.4986331818121  0.6214121087276 1.0
C      1  0.5477407570115  0.3580354029793  0.5870819328842 1.0
C      1  0.5497190553265  0.6583801862021  0.4551246630353 1.0
C      1  0.5957954875572  0.4265372733660  0.3499742062505 1.0
C      1  0.6278130334349  0.5226729558028  0.3721602547493 1.0
C      1  0.5054500249915  0.6321801357895  0.6140136393312 1.0
C      1  0.4294021496511  0.3707982115107  0.4012267449420 1.0
C      1  0.4663689145322  0.6734820604294  0.4236503605145 1.0
C      1  0.4606058272132  0.4578175395491  0.4200175937321 1.0
C      1  0.3166677667381  0.5938363701817  0.4362844426471 1.0
C      1  0.6173801586982  0.5929993202148  0.4314151909263 1.0
C      1  0.3861675557165  0.6481559145157  0.4221446327314 1.0
C      1  0.5807064460749  0.3588127311850  0.4961586331682 1.0
C      1  0.3752629968605  0.4343813843468  0.4622503624993 1.0
C      1  0.4386845576925  0.5893996901612  0.6391827591545 1.0
C      1  0.5815623796438  0.4451000071247  0.6264233839572 1.0
C      1  0.3537901952207  0.4730363218491  0.5581194402621 1.0
C      1  0.6521787152436  0.4203097115410  0.4956644657266 1.0
C      1  0.3018891521993  0.4976104719992  0.4270389568455 1.0
C      1  0.6684601963276  0.4442736344753  0.4041287821388 1.0
C      1  0.5278618980836  0.3805245085041  0.4127587545543 1.0
C      1  0.6375047657985  0.5793283945994  0.5299967860582 1.0
C      1  0.6391476237206  0.4882821111293  0.5649481784039 1.0
C      1  0.5715393736409  0.6464884578114  0.5513745449065 1.0
C      1  0.4722588814853  0.3376120835113  0.6414945825321 1.0
END
