TITL C-12521-6401-64 -3.316 3375.00 -572.85972087 0 0 70 () n - 1
REM
REM Run started: at 2020.12.24 01:09:15 in /gpfs/home/chem/mssmkc/CARBON/AIRSS/Generating-Clusters/Str-Search/Only-C1/C10-100
REM VASP from code version vasp.5.4.4.18Apr17-6-g9f103f2a35 (build Oct 11 2019 16:45:47) gamma-only
REM
REM
REM
REM
REM ./C.cell (67c5d0192afd7a3ce4a0888e5fe73b87)
REM AIRSS Version 0.9.1 bugfix July 2018 build 013d7b7c2542+ Fri, 06 Jul 2018 19:26:36 +0100
REM compiler GCC version 6.3.0
REM options -cpp -iprefix /gpfs/warwick/csc/orac/software/Core/GCCcore/6.3.0/bin/../lib/gcc/x86_64-pc-linux-gnu/6.3.0/ -mtune=generic -march=x86-64 -g -O0
REM seed 948076895 -639781706 -1766621043 1543330079 727278103 334617329 61214884 -1170498622 1210881985 -1183776247 2139376500 825380787
REM
REM C.POTCAR (d86ddea03c3ceb6dc662c8ad6801f873)
REM 
CELL 1.54180   15.00000   15.00000   15.00000   90.00000   90.00000   90.00000
LATT -1
SFAC C  
C      1  0.6476237027125  0.6886336795853  0.6094178197503 1.0
C      1  0.3856821761575  0.2724299561135  0.5889885221486 1.0
C      1  0.5620725589730  0.6214664444589  0.3125516561855 1.0
C      1  0.5431145807636  0.6187509527763  0.7027515154452 1.0
C      1  0.5932333587404  0.3302753376829  0.5544470785615 1.0
C      1  0.5863161292415  0.3088536326791  0.4496353839159 1.0
C      1  0.3222126877433  0.5460273393714  0.3431579511239 1.0
C      1  0.4312927857787  0.5824140857454  0.5568495662146 1.0
C      1  0.5212245863111  0.3171283714031  0.3765339433416 1.0
C      1  0.7372490449004  0.6562538996434  0.4846635539334 1.0
C      1  0.4815201460087  0.5534202798860  0.3138310849679 1.0
C      1  0.2615422284585  0.6121007707710  0.5544928470815 1.0
C      1  0.4295186367342  0.2994162874663  0.3667770620976 1.0
C      1  0.6264025312036  0.5994621850843  0.3835144256083 1.0
C      1  0.7329910686045  0.3559169540471  0.4874390824555 1.0
C      1  0.3952575073388  0.5058503942566  0.5091150389715 1.0
C      1  0.5486698864677  0.5444197018924  0.2462091801280 1.0
C      1  0.4097994941043  0.3823126571691  0.3159288622992 1.0
C      1  0.5635353003792  0.4057406123834  0.7005236159138 1.0
C      1  0.4320663690385  0.5041551732337  0.7580757501488 1.0
C      1  0.3086102628681  0.3218003327336  0.4649210038639 1.0
C      1  0.5540644550259  0.5147802023833  0.5021802900130 1.0
C      1  0.4725121678321  0.4691796933752  0.4715361660662 1.0
C      1  0.4138098543688  0.3716840311359  0.7198430347762 1.0
C      1  0.6874615316477  0.6082750887767  0.6462755690674 1.0
C      1  0.4302647394590  0.6877283174479  0.3849723640636 1.0
C      1  0.6941240300862  0.5265831208770  0.3685240525029 1.0
C      1  0.2961243140850  0.4784495509960  0.6585725084467 1.0
C      1  0.3401314529155  0.4414006539784  0.3466816332311 1.0
C      1  0.4309935501058  0.7530900314014  0.5370837870917 1.0
C      1  0.4536970055516  0.5861795997080  0.7163430114364 1.0
C      1  0.3558719278434  0.4492334791018  0.7250708617432 1.0
C      1  0.5998278966339  0.5097961175488  0.4168444469752 1.0
C      1  0.3788029098615  0.2618560627813  0.4380034171906 1.0
C      1  0.2704815039699  0.5937686458202  0.4136437811400 1.0
C      1  0.5386368428269  0.3362839347244  0.6333885701820 1.0
C      1  0.5142730287102  0.4009042591640  0.3140877854053 1.0
C      1  0.6738412887760  0.4506466109220  0.3035026485828 1.0
C      1  0.7746162575953  0.4152389549683  0.4232709444436 1.0
C      1  0.7326588750283  0.5421592528304  0.5933552632264 1.0
C      1  0.2987740339951  0.6669389783902  0.4748668750439 1.0
C      1  0.2367717322434  0.5471008274733  0.4882732623969 1.0
C      1  0.5570739869726  0.6956364353234  0.6426671588959 1.0
C      1  0.6955793559291  0.4529796545757  0.6196554913918 1.0
C      1  0.4187815522991  0.2247610098550  0.5147108707371 1.0
C      1  0.6629068515697  0.6989635971483  0.5160177767573 1.0
C      1  0.7667301950669  0.5076361427428  0.4307683793972 1.0
C      1  0.6745203985890  0.3211303056154  0.4189666333202 1.0
C      1  0.7634511399555  0.5688911877285  0.5061746405999 1.0
C      1  0.7155296995264  0.3798223949911  0.3508028271326 1.0
C      1  0.3001429278372  0.5761188945347  0.6331631637485 1.0
C      1  0.3804414761812  0.7138521949275  0.4642995045164 1.0
C      1  0.5863275579831  0.6661952650563  0.4550783940634 1.0
C      1  0.2977793757231  0.4044241392516  0.4248142570411 1.0
C      1  0.5230570332888  0.6934916927550  0.3747529898231 1.0
C      1  0.3280903689837  0.6044973485703  0.2595725887991 1.0
C      1  0.6311928447267  0.4695017550688  0.6866936907424 1.0
C      1  0.5873117261412  0.4576450497397  0.2590697996171 1.0
C      1  0.4882518465593  0.4251750226467  0.7523110325651 1.0
C      1  0.3084885261642  0.3289628535741  0.5626465477166 1.0
C      1  0.4883468686080  0.7442636236254  0.5967188895498 1.0
C      1  0.5265651179409  0.5992975145371  0.5230187770435 1.0
C      1  0.6225438807186  0.5655216813036  0.7025902705529 1.0
C      1  0.2916786500147  0.4676645042505  0.5002262985916 1.0
C      1  0.6831376662559  0.3751251348585  0.5644089363461 1.0
C      1  0.4017384897947  0.6111373676421  0.3247546300927 1.0
C      1  0.2847135229815  0.4173338246754  0.5855088829647 1.0
C      1  0.4437390407446  0.3130006566778  0.6523419476965 1.0
C      1  0.3935448437616  0.6024433305701  0.6430048463508 1.0
C      1  0.5106605145934  0.4764212555675  0.3791158567650 1.0
END
