TITL C-12521-6401-115 -1.15 3375.00 -177.56668033 0 0 23 () n - 1
REM
REM Run started: at 2020.12.24 12:15:47 in /gpfs/home/chem/mssmkc/CARBON/AIRSS/Generating-Clusters/Str-Search/Only-C1/C10-100
REM VASP from code version vasp.5.4.4.18Apr17-6-g9f103f2a35 (build Oct 11 2019 16:45:47) gamma-only
REM
REM
REM
REM
REM ./C.cell (67c5d0192afd7a3ce4a0888e5fe73b87)
REM AIRSS Version 0.9.1 bugfix July 2018 build 013d7b7c2542+ Fri, 06 Jul 2018 19:26:36 +0100
REM compiler GCC version 6.3.0
REM options -cpp -iprefix /gpfs/warwick/csc/orac/software/Core/GCCcore/6.3.0/bin/../lib/gcc/x86_64-pc-linux-gnu/6.3.0/ -mtune=generic -march=x86-64 -g -O0
REM seed -857313677 1927469019 266070525 -624848746 -1327853750 1252379129 518388489 46056386 -1553965546 -1022951314 -1926715341 359495600
REM
REM C.POTCAR (d86ddea03c3ceb6dc662c8ad6801f873)
REM 
CELL 1.54180   15.00000   15.00000   15.00000   90.00000   90.00000   90.00000
LATT -1
SFAC C  
C      1  0.4526510134636  0.4247378832492  0.4838088857152 1.0
C      1  0.6530609896628  0.3566213151374  0.4751785605522 1.0
C      1  0.3917192053806  0.5024456445720  0.5919202791615 1.0
C      1  0.4537869194849  0.4030250835386  0.5808603817125 1.0
C      1  0.6428123825450  0.5467231138726  0.4684933673040 1.0
C      1  0.6113105571579  0.4543531725207  0.5971055808158 1.0
C      1  0.5246345454835  0.4476235736588  0.6390338092942 1.0
C      1  0.4886520484240  0.4442645109605  0.3967332270304 1.0
C      1  0.4802800460623  0.5304604203873  0.6280374675130 1.0
C      1  0.6269775368350  0.3490696224460  0.3903196601657 1.0
C      1  0.3384225776261  0.6119673477185  0.4137858160311 1.0
C      1  0.4257637217860  0.4969687968560  0.3483537379361 1.0
C      1  0.6390139101108  0.5131969949050  0.3906514548931 1.0
C      1  0.3531101901548  0.4155362895607  0.5959268153897 1.0
C      1  0.4346028083376  0.7042085014436  0.5091453526143 1.0
C      1  0.3693037192034  0.4704761982144  0.4966521274326 1.0
C      1  0.5003255817930  0.6726025538346  0.5503481601651 1.0
C      1  0.5372904549681  0.5960189522361  0.5859893233645 1.0
C      1  0.3568867186180  0.5213178499123  0.4095071686076 1.0
C      1  0.6144901535724  0.5451209113540  0.5567377591819 1.0
C      1  0.6489216280032  0.3792237199570  0.5574560193367 1.0
C      1  0.3696086142849  0.6786645908055  0.4541601102657 1.0
C      1  0.5863744770420  0.4353731528590  0.3797948355170 1.0
END
