TITL C-12556-9949-44 -0.601 3375.00 -88.89485953 0 0 12 () n - 1
REM
REM Run started: at 2020.12.25 09:11:16 in /gpfs/home/chem/mssmkc/CARBON/AIRSS/Generating-Clusters/Str-Search/Only-C1/C10-100
REM VASP from code version vasp.5.4.4.18Apr17-6-g9f103f2a35 (build Oct 11 2019 16:45:47) gamma-only
REM
REM
REM
REM
REM ./C.cell (67c5d0192afd7a3ce4a0888e5fe73b87)
REM AIRSS Version 0.9.1 bugfix July 2018 build 013d7b7c2542+ Fri, 06 Jul 2018 19:26:36 +0100
REM compiler GCC version 6.3.0
REM options -cpp -iprefix /gpfs/warwick/csc/orac/software/Core/GCCcore/6.3.0/bin/../lib/gcc/x86_64-pc-linux-gnu/6.3.0/ -mtune=generic -march=x86-64 -g -O0
REM seed -1625435032 490072277 1984015320 911148805 2035699453 -457230045 816732992 1781329034 414657202 1371451067 258638627 -279735710
REM
REM C.POTCAR (d86ddea03c3ceb6dc662c8ad6801f873)
REM 
CELL 1.54180   15.00000   15.00000   15.00000   90.00000   90.00000   90.00000
LATT -1
SFAC C  
C      1  0.6106683618739  0.4359500460838  0.3721652043908 1.0
C      1  0.5313383295405  0.4663394806499  0.5094630358990 1.0
C      1  0.5766073810311  0.4090156434688  0.4465198651880 1.0
C      1  0.4511351783335  0.5779604348308  0.4003392579728 1.0
C      1  0.5756272257726  0.5218558797199  0.3572546093364 1.0
C      1  0.3948384767883  0.4692813412772  0.8280038775365 1.0
C      1  0.5068949891341  0.5603104421662  0.3086923288662 1.0
C      1  0.4979931337068  0.4598410154952  0.5920541800191 1.0
C      1  0.5227625980290  0.5444112999870  0.4488427951684 1.0
C      1  0.4283470256377  0.4677575226044  0.7486204093676 1.0
C      1  0.4399226897970  0.6219732634582  0.3192585222344 1.0
C      1  0.4638648103554  0.4653037302585  0.6687860140206 1.0
END
