TITL C-12556-9949-14 -4.442 3375.00 -770.91890420 0 0 94 () n - 1
REM
REM Run started: at 2020.12.25 03:18:33 in /gpfs/home/chem/mssmkc/CARBON/AIRSS/Generating-Clusters/Str-Search/Only-C1/C10-100
REM VASP from code version vasp.5.4.4.18Apr17-6-g9f103f2a35 (build Oct 11 2019 16:45:47) gamma-only
REM
REM
REM
REM
REM ./C.cell (67c5d0192afd7a3ce4a0888e5fe73b87)
REM AIRSS Version 0.9.1 bugfix July 2018 build 013d7b7c2542+ Fri, 06 Jul 2018 19:26:36 +0100
REM compiler GCC version 6.3.0
REM options -cpp -iprefix /gpfs/warwick/csc/orac/software/Core/GCCcore/6.3.0/bin/../lib/gcc/x86_64-pc-linux-gnu/6.3.0/ -mtune=generic -march=x86-64 -g -O0
REM seed -135809813 -107730490 1488116256 959902946 173511184 -983379171 1427151095 -152249834 -1440709607 -948727828 1510134695 1546966980
REM
REM C.POTCAR (d86ddea03c3ceb6dc662c8ad6801f873)
REM 
CELL 1.54180   15.00000   15.00000   15.00000   90.00000   90.00000   90.00000
LATT -1
SFAC C  
C      1  0.4379806650246  0.2278146036279  0.5702956878912 1.0
C      1  0.4768674818272  0.4580656525362  0.2594392887243 1.0
C      1  0.4245160114162  0.4373604256613  0.7678303299028 1.0
C      1  0.3495166602347  0.2734249713361  0.5801807439120 1.0
C      1  0.4177263187853  0.4434899319381  0.6104492373825 1.0
C      1  0.2317011941182  0.7343640535819  0.5479671311491 1.0
C      1  0.5334587516122  0.2298909745908  0.4250519137307 1.0
C      1  0.7575537451906  0.4759096722546  0.6367096168275 1.0
C      1  0.4112727542175  0.4090496142069  0.5185506309090 1.0
C      1  0.6685982563515  0.7196973770537  0.5022197553233 1.0
C      1  0.5153994144165  0.5865044348938  0.5787873748644 1.0
C      1  0.7620349217912  0.4916630892445  0.4556370248431 1.0
C      1  0.5808694729452  0.5314852772791  0.7613207515907 1.0
C      1  0.6692723085321  0.3465064209032  0.6921055342029 1.0
C      1  0.5027067960238  0.2669947618039  0.3401440616380 1.0
C      1  0.3770790324506  0.2346566860458  0.4294678898517 1.0
C      1  0.6835906424669  0.3035288031347  0.6077595637112 1.0
C      1  0.5406287974298  0.3573184608870  0.3150370589695 1.0
C      1  0.5329351211655  0.7976975309273  0.5054636335949 1.0
C      1  0.5830525186768  0.6469152164076  0.6340433536127 1.0
C      1  0.4553787095944  0.6316452961266  0.3542443741348 1.0
C      1  0.5824466060075  0.3443741046946  0.7323838613507 1.0
C      1  0.3268199313710  0.3940448770129  0.4559267353956 1.0
C      1  0.4605903253146  0.5565288044430  0.4139309135073 1.0
C      1  0.7127799171822  0.5075701403838  0.3088000491831 1.0
C      1  0.7448231119006  0.6426664109609  0.5924756935532 1.0
C      1  0.6288357219947  0.6480460227171  0.3150284513352 1.0
C      1  0.7322969260663  0.3392500306913  0.5323803268678 1.0
C      1  0.4206711851903  0.3712766983099  0.6927370847093 1.0
C      1  0.2332872393996  0.5454931335729  0.3772968603607 1.0
C      1  0.4108914347170  0.5803510447787  0.7883453110146 1.0
C      1  0.2701874281642  0.3957802994832  0.6831008291822 1.0
C      1  0.6119318462294  0.6129295447535  0.7161015288989 1.0
C      1  0.3598815747357  0.5221977546880  0.6332935551659 1.0
C      1  0.2771213730452  0.5841274283373  0.3026717740752 1.0
C      1  0.3412523389038  0.5540682747680  0.2295369435108 1.0
C      1  0.7138985033482  0.4294376537983  0.7093825303526 1.0
C      1  0.7035327538054  0.5939097467747  0.3454511213256 1.0
C      1  0.5483088634150  0.5137639673947  0.4345978152794 1.0
C      1  0.5977570363528  0.7530928191817  0.4515568283346 1.0
C      1  0.2615912993861  0.5430794338488  0.5026009917078 1.0
C      1  0.5986717690416  0.2741952551000  0.5659206698233 1.0
C      1  0.3858619326893  0.6907413277477  0.4749395072251 1.0
C      1  0.7373155774400  0.4410211811267  0.5424259116999 1.0
C      1  0.5140417647807  0.2563367054225  0.6161622632186 1.0
C      1  0.3179237380834  0.6899895859935  0.5369304284302 1.0
C      1  0.4535340351132  0.2072486830097  0.4775773755360 1.0
C      1  0.4864185121874  0.5142641217584  0.7473450855901 1.0
C      1  0.4801597354407  0.6524007641970  0.2589892101272 1.0
C      1  0.7039558710025  0.5838293215311  0.7296745862855 1.0
C      1  0.2028840133418  0.6874749688294  0.4808086411953 1.0
C      1  0.4981922651056  0.8043559439722  0.5822739386126 1.0
C      1  0.6705709574249  0.4979209862378  0.7643070799332 1.0
C      1  0.7007578968524  0.3603869919606  0.3681886534890 1.0
C      1  0.5658245461857  0.6044685639200  0.2531726335181 1.0
C      1  0.2583730884427  0.4674760883831  0.4486822461861 1.0
C      1  0.6357057657038  0.3739650238812  0.2989535551605 1.0
C      1  0.4631070400915  0.5270009011488  0.6445700805611 1.0
C      1  0.6589739127110  0.6887300371756  0.5917709693894 1.0
C      1  0.6422050100397  0.4633550476269  0.2632561381088 1.0
C      1  0.3863725096068  0.6392460967547  0.2306550882543 1.0
C      1  0.4421892762735  0.4660870000662  0.3585836171447 1.0
C      1  0.4532449318504  0.7862208147515  0.6562463797904 1.0
C      1  0.5805562407221  0.7195769524189  0.3631642558116 1.0
C      1  0.5194093991789  0.4201680432466  0.3986067381060 1.0
C      1  0.3241459613678  0.2918943495430  0.4871242393369 1.0
C      1  0.6296212378783  0.4502644291593  0.5463754867731 1.0
C      1  0.3600041698109  0.3268060528185  0.2993620741353 1.0
C      1  0.4278229501787  0.7343013590268  0.7194379930336 1.0
C      1  0.7467465989914  0.5868882484633  0.4339606504377 1.0
C      1  0.4078338336595  0.2597422262165  0.3409749789281 1.0
C      1  0.3541687101736  0.4986682913925  0.7862272723307 1.0
C      1  0.2027370449331  0.6010934839215  0.4511405932128 1.0
C      1  0.3310343250869  0.3325298901320  0.6572478799398 1.0
C      1  0.6138512704065  0.2534330899602  0.4700852100101 1.0
C      1  0.3783767561079  0.4700904484494  0.2166577401740 1.0
C      1  0.6919904695091  0.3068621281845  0.4483705702723 1.0
C      1  0.4882374759032  0.7237218000367  0.3297297404986 1.0
C      1  0.3600754909140  0.4093199589335  0.3621967269788 1.0
C      1  0.2979935286951  0.4797935134114  0.7077032969992 1.0
C      1  0.3283127379109  0.4006168752262  0.2652059738567 1.0
C      1  0.3362998357306  0.5821698923816  0.5553936159208 1.0
C      1  0.4035694699625  0.6666228157329  0.7688205048640 1.0
C      1  0.5784374177866  0.5286541135193  0.5187146982680 1.0
C      1  0.3299646765516  0.6683565195605  0.3054476096877 1.0
C      1  0.7419022674196  0.6542371477105  0.4964037370928 1.0
C      1  0.4269367681348  0.6026947865800  0.5028126090443 1.0
C      1  0.5728840172385  0.3786865783936  0.5434191281236 1.0
C      1  0.5626692872691  0.5102594656196  0.2414088630691 1.0
C      1  0.4939455609169  0.3882955463395  0.4877865229113 1.0
C      1  0.7576120177093  0.5721037994743  0.6529570078164 1.0
C      1  0.5058622770001  0.3178755559925  0.6887041985382 1.0
C      1  0.3925716631307  0.7062847606913  0.3769545426471 1.0
C      1  0.7470973995131  0.4453013218350  0.3758671200246 1.0
END
