TITL C-12556-9949-4 -0.522 3375.00 -75.41859387 0 0 10 () n - 1
REM
REM Run started: at 2020.12.25 00:35:48 in /gpfs/home/chem/mssmkc/CARBON/AIRSS/Generating-Clusters/Str-Search/Only-C1/C10-100
REM VASP from code version vasp.5.4.4.18Apr17-6-g9f103f2a35 (build Oct 11 2019 16:45:47) gamma-only
REM
REM
REM
REM
REM ./C.cell (67c5d0192afd7a3ce4a0888e5fe73b87)
REM AIRSS Version 0.9.1 bugfix July 2018 build 013d7b7c2542+ Fri, 06 Jul 2018 19:26:36 +0100
REM compiler GCC version 6.3.0
REM options -cpp -iprefix /gpfs/warwick/csc/orac/software/Core/GCCcore/6.3.0/bin/../lib/gcc/x86_64-pc-linux-gnu/6.3.0/ -mtune=generic -march=x86-64 -g -O0
REM seed 411697895 -404586896 415301398 -778391864 -1546708078 828314694 -2129096074 724955606 -1183121100 -2062069566 -885948425 1153328969
REM
REM C.POTCAR (d86ddea03c3ceb6dc662c8ad6801f873)
REM 
CELL 1.54180   15.00000   15.00000   15.00000   90.00000   90.00000   90.00000
LATT -1
SFAC C  
C      1  0.5436997611308  0.4303105740394  0.4062585934351 1.0
C      1  0.5408701030312  0.5613725637838  0.6273260570197 1.0
C      1  0.4708918232602  0.4272707427111  0.3612660725529 1.0
C      1  0.4483019978670  0.5245072566968  0.5115556549973 1.0
C      1  0.6291556028376  0.5328387742063  0.6302623562020 1.0
C      1  0.5948578866627  0.4998170411812  0.5559440204742 1.0
C      1  0.5366092147959  0.4787890190162  0.4855713992472 1.0
C      1  0.4623763535971  0.5682931266065  0.5941278159302 1.0
C      1  0.3798592785350  0.5110713166858  0.4494535570953 1.0
C      1  0.3933779782825  0.4657296850730  0.3782342730463 1.0
END
