TITL C-12556-9949-1 -0.949 3375.00 -145.72715291 0 0 19 () n - 1
REM
REM Run started: at 2020.12.25 00:07:46 in /gpfs/home/chem/mssmkc/CARBON/AIRSS/Generating-Clusters/Str-Search/Only-C1/C10-100
REM VASP from code version vasp.5.4.4.18Apr17-6-g9f103f2a35 (build Oct 11 2019 16:45:47) gamma-only
REM
REM
REM
REM
REM ./C.cell (67c5d0192afd7a3ce4a0888e5fe73b87)
REM AIRSS Version 0.9.1 bugfix July 2018 build 013d7b7c2542+ Fri, 06 Jul 2018 19:26:36 +0100
REM compiler GCC version 6.3.0
REM options -cpp -iprefix /gpfs/warwick/csc/orac/software/Core/GCCcore/6.3.0/bin/../lib/gcc/x86_64-pc-linux-gnu/6.3.0/ -mtune=generic -march=x86-64 -g -O0
REM seed -1382584746 228337310 -852546392 347290880 859220891 -1835711647 -923100258 -1459483073 -1383291826 1300491320 1636555571 1135306867
REM
REM C.POTCAR (d86ddea03c3ceb6dc662c8ad6801f873)
REM 
CELL 1.54180   15.00000   15.00000   15.00000   90.00000   90.00000   90.00000
LATT -1
SFAC C  
C      1  0.5735182346041  0.5324594515281  0.5899801086200 1.0
C      1  0.5447966336777  0.4872847485919  0.3748700091821 1.0
C      1  0.4359289693946  0.2640282735689  0.3562846423941 1.0
C      1  0.5665194002156  0.6502953839956  0.4406306095733 1.0
C      1  0.4219637531234  0.5227701056574  0.6398277555461 1.0
C      1  0.4001397608587  0.2013593929197  0.3099819971654 1.0
C      1  0.4758792681819  0.3303557743238  0.4035222673212 1.0
C      1  0.4795591541601  0.6723503500372  0.4690508796939 1.0
C      1  0.4043000281030  0.6100841008093  0.6111316763420 1.0
C      1  0.5857443818432  0.5580752694607  0.4180610963385 1.0
C      1  0.6275420655256  0.6481647195666  0.5216614296167 1.0
C      1  0.5613623247881  0.6274509596197  0.5922771627252 1.0
C      1  0.6267084299561  0.5520368650127  0.5082881345876 1.0
C      1  0.4729672991010  0.6554946631786  0.5627499354753 1.0
C      1  0.4877032183896  0.3965594650226  0.5606594774405 1.0
C      1  0.4806885952049  0.3432770267486  0.4979322907040 1.0
C      1  0.5162308179305  0.4099944191709  0.3704470204852 1.0
C      1  0.3391353249763  0.5634080115741  0.6627962371298 1.0
C      1  0.4993124399655  0.4745510192136  0.6098472696592 1.0
END
