TITL C-12556-9949-32 -1.484 3375.00 -230.03621181 0 0 30 () n - 1
REM
REM Run started: at 2020.12.25 06:41:13 in /gpfs/home/chem/mssmkc/CARBON/AIRSS/Generating-Clusters/Str-Search/Only-C1/C10-100
REM VASP from code version vasp.5.4.4.18Apr17-6-g9f103f2a35 (build Oct 11 2019 16:45:47) gamma-only
REM
REM
REM
REM
REM ./C.cell (67c5d0192afd7a3ce4a0888e5fe73b87)
REM AIRSS Version 0.9.1 bugfix July 2018 build 013d7b7c2542+ Fri, 06 Jul 2018 19:26:36 +0100
REM compiler GCC version 6.3.0
REM options -cpp -iprefix /gpfs/warwick/csc/orac/software/Core/GCCcore/6.3.0/bin/../lib/gcc/x86_64-pc-linux-gnu/6.3.0/ -mtune=generic -march=x86-64 -g -O0
REM seed 766603653 1015538829 1419104057 -546893667 163771923 -386794716 -2049381157 -370454198 -110740770 904254687 161244464 1449119653
REM
REM C.POTCAR (d86ddea03c3ceb6dc662c8ad6801f873)
REM 
CELL 1.54180   15.00000   15.00000   15.00000   90.00000   90.00000   90.00000
LATT -1
SFAC C  
C      1  0.4002729844259  0.6187740702442  0.6333440220828 1.0
C      1  0.7085547713316  0.5946950624918  0.5317776217757 1.0
C      1  0.4990352291524  0.5016401539929  0.3289861845781 1.0
C      1  0.3449836298912  0.4613270360638  0.4366498013372 1.0
C      1  0.3183565163894  0.4066287183460  0.6216462757368 1.0
C      1  0.6278118564023  0.4698351000869  0.5199279950627 1.0
C      1  0.3840495603909  0.7025961887183  0.4934984503504 1.0
C      1  0.6233960692554  0.6354738969601  0.4199597253725 1.0
C      1  0.6948542710376  0.5149362384731  0.5643280458994 1.0
C      1  0.6156025854860  0.4702232004101  0.4219271705621 1.0
C      1  0.4614101049637  0.6194776480147  0.5628124810419 1.0
C      1  0.5307078147862  0.3721651422588  0.6148766224670 1.0
C      1  0.5446280405250  0.4564295925737  0.5738031405788 1.0
C      1  0.5293560865607  0.6544167092287  0.4098662694200 1.0
C      1  0.3955219568852  0.3830419879489  0.4744556115917 1.0
C      1  0.5028615825879  0.5977796579447  0.3359788059390 1.0
C      1  0.3485317969202  0.5629328701695  0.6710117954549 1.0
C      1  0.5272149637500  0.2899809092127  0.5624109036906 1.0
C      1  0.5301713512500  0.4326541828086  0.3885126372330 1.0
C      1  0.4029638239957  0.4875137139216  0.4989256346932 1.0
C      1  0.4746000298061  0.5185462391741  0.5471687617760 1.0
C      1  0.6416857946300  0.5489718033991  0.3703242928661 1.0
C      1  0.4510781192305  0.3173794787609  0.6127966359474 1.0
C      1  0.5772621508711  0.5513807768656  0.2999265376744 1.0
C      1  0.5383613407513  0.2940917341365  0.4732490842291 1.0
C      1  0.3744982777260  0.3539705113016  0.5674807560688 1.0
C      1  0.4858684865282  0.3581694455860  0.4321567765384 1.0
C      1  0.6823124469951  0.6651661826122  0.4883960490855 1.0
C      1  0.3142727728201  0.4811178838589  0.6600894781784 1.0
C      1  0.4697754846542  0.6786838644361  0.4837123327681 1.0
END
