TITL C-12556-9949-23 -1.863 3375.00 -315.05232657 0 0 39 () n - 1
REM
REM Run started: at 2020.12.25 04:54:40 in /gpfs/home/chem/mssmkc/CARBON/AIRSS/Generating-Clusters/Str-Search/Only-C1/C10-100
REM VASP from code version vasp.5.4.4.18Apr17-6-g9f103f2a35 (build Oct 11 2019 16:45:47) gamma-only
REM
REM
REM
REM
REM ./C.cell (67c5d0192afd7a3ce4a0888e5fe73b87)
REM AIRSS Version 0.9.1 bugfix July 2018 build 013d7b7c2542+ Fri, 06 Jul 2018 19:26:36 +0100
REM compiler GCC version 6.3.0
REM options -cpp -iprefix /gpfs/warwick/csc/orac/software/Core/GCCcore/6.3.0/bin/../lib/gcc/x86_64-pc-linux-gnu/6.3.0/ -mtune=generic -march=x86-64 -g -O0
REM seed 870110827 546000127 -359640628 347135302 438798237 1089466793 -1543382634 -801612729 -2004425540 -71146568 -1846224363 54796164
REM
REM C.POTCAR (d86ddea03c3ceb6dc662c8ad6801f873)
REM 
CELL 1.54180   15.00000   15.00000   15.00000   90.00000   90.00000   90.00000
LATT -1
SFAC C  
C      1  0.5459348097560  0.3652322907082  0.6210017765887 1.0
C      1  0.3973032811843  0.3288226168654  0.4732166589124 1.0
C      1  0.3896849776200  0.4997147258844  0.6591459760131 1.0
C      1  0.6165768414080  0.4966668802939  0.3180465587134 1.0
C      1  0.4151816742819  0.5108761405924  0.3467137913012 1.0
C      1  0.4497782775482  0.4859219159250  0.5649579855311 1.0
C      1  0.3348640683171  0.3750185367876  0.5310189417058 1.0
C      1  0.6115997504362  0.4293481834296  0.6512141252396 1.0
C      1  0.5446839660301  0.6036516446712  0.4884159115739 1.0
C      1  0.2937759684389  0.4197369757263  0.4542113700828 1.0
C      1  0.6914067160632  0.4933858726825  0.3866542497379 1.0
C      1  0.6002604518105  0.6072143155586  0.4126173144832 1.0
C      1  0.4659275240052  0.5480816334084  0.4983189171991 1.0
C      1  0.5624729248402  0.3452421201724  0.5284237074316 1.0
C      1  0.3819137972981  0.5536773970980  0.4338614722462 1.0
C      1  0.5440630371461  0.6361971633696  0.6424371210853 1.0
C      1  0.4668204213682  0.5881622991407  0.3305798637280 1.0
C      1  0.4944637478250  0.3345369921249  0.4616332190984 1.0
C      1  0.4247486934661  0.5856508975730  0.6878693150983 1.0
C      1  0.5219325883696  0.5727596133140  0.7114123504706 1.0
C      1  0.3544039665997  0.3716650787995  0.3940172852918 1.0
C      1  0.5642511225818  0.5761135356601  0.3295759264890 1.0
C      1  0.3101029520557  0.5068266981560  0.4866000003462 1.0
C      1  0.6677913809885  0.4548668258230  0.5750132645727 1.0
C      1  0.4488948691609  0.6625783611847  0.6266305146920 1.0
C      1  0.5078710676451  0.3753333301204  0.3741010037744 1.0
C      1  0.4153859559874  0.7011767690847  0.5501215452620 1.0
C      1  0.4146350720480  0.7065613325433  0.4642939903802 1.0
C      1  0.6476280377767  0.3868822447899  0.5042263677701 1.0
C      1  0.5924450038545  0.4067756590913  0.3489646858567 1.0
C      1  0.4116492473704  0.6443771271187  0.3964901451651 1.0
C      1  0.6653511413211  0.4040787539007  0.4144165835959 1.0
C      1  0.5973811077945  0.6101348724824  0.5700351166700 1.0
C      1  0.4771506913371  0.4400532120310  0.6525863561973 1.0
C      1  0.5497237706252  0.4845394405953  0.6995835162086 1.0
C      1  0.6810258513651  0.5612619763667  0.4479102081630 1.0
C      1  0.3499174267398  0.4675570988450  0.5727845801209 1.0
C      1  0.6693125236353  0.5449311326846  0.5450801781731 1.0
C      1  0.4216853939003  0.4143887353968  0.3458180050305 1.0
END
