TITL C-12556-9949-205 -3.593 3375.00 -600.14104490 0 0 74 () n - 1
REM
REM Run started: at 2020.12.26 21:57:56 in /gpfs/home/chem/mssmkc/CARBON/AIRSS/Generating-Clusters/Str-Search/Only-C1/C10-100
REM VASP from code version vasp.5.4.4.18Apr17-6-g9f103f2a35 (build Oct 11 2019 16:45:47) gamma-only
REM
REM
REM
REM
REM ./C.cell (67c5d0192afd7a3ce4a0888e5fe73b87)
REM AIRSS Version 0.9.1 bugfix July 2018 build 013d7b7c2542+ Fri, 06 Jul 2018 19:26:36 +0100
REM compiler GCC version 6.3.0
REM options -cpp -iprefix /gpfs/warwick/csc/orac/software/Core/GCCcore/6.3.0/bin/../lib/gcc/x86_64-pc-linux-gnu/6.3.0/ -mtune=generic -march=x86-64 -g -O0
REM seed 468915813 -148134633 -688747923 1878765136 1321177828 -1039486983 -1161936019 -1370155378 882234936 -732209465 -2089083985 1103420265
REM
REM C.POTCAR (d86ddea03c3ceb6dc662c8ad6801f873)
REM 
CELL 1.54180   15.00000   15.00000   15.00000   90.00000   90.00000   90.00000
LATT -1
SFAC C  
C      1  0.5914851337813  0.6499499912828  0.2884791650324 1.0
C      1  0.6423467127174  0.4376462977368  0.7017296677320 1.0
C      1  0.2854287701854  0.3731164439719  0.3524449975355 1.0
C      1  0.6137374660074  0.7193900328081  0.4322422134630 1.0
C      1  0.3939446975709  0.5718861631407  0.7495799098701 1.0
C      1  0.4002317695093  0.2680280443104  0.6411011513454 1.0
C      1  0.3876638924224  0.6091407365964  0.5744830174395 1.0
C      1  0.7093466345781  0.4079879692639  0.2605398136795 1.0
C      1  0.6270217035752  0.4174451883315  0.2274916621020 1.0
C      1  0.2631730192844  0.5807299859342  0.4238436044072 1.0
C      1  0.4930570037850  0.2548317655346  0.5127657940354 1.0
C      1  0.5948785476999  0.3190839128892  0.4053495980832 1.0
C      1  0.5669021342855  0.7242489316721  0.3444612137658 1.0
C      1  0.7352626576151  0.5806805594381  0.5829444596919 1.0
C      1  0.5639512308897  0.3090756973264  0.6409452166263 1.0
C      1  0.2392958868145  0.4933531764354  0.4592817914201 1.0
C      1  0.2689925692924  0.5216175816573  0.6477523462871 1.0
C      1  0.4864630345117  0.2607123014931  0.6081863874772 1.0
C      1  0.2677509144473  0.6426091735631  0.4978828702086 1.0
C      1  0.4392040055960  0.3146343438924  0.3649218728949 1.0
C      1  0.3226626924156  0.5947297737568  0.3459179239290 1.0
C      1  0.5220406212631  0.5582415858121  0.5206150276574 1.0
C      1  0.7669245998060  0.4088975303518  0.4933336553619 1.0
C      1  0.3977562649988  0.7069959955084  0.5622669932436 1.0
C      1  0.3690768362369  0.3589587194319  0.5136239024401 1.0
C      1  0.7169447474913  0.4089209617457  0.6557866064732 1.0
C      1  0.4267086939785  0.2999281715436  0.4591050070205 1.0
C      1  0.4560249833947  0.7548964135191  0.6284035148841 1.0
C      1  0.7668179906773  0.3983793810803  0.3245642113536 1.0
C      1  0.4194429255080  0.7308313174923  0.7112594342086 1.0
C      1  0.3719721262783  0.4549912710846  0.5305420408639 1.0
C      1  0.5582724999798  0.3870140051349  0.7013472513009 1.0
C      1  0.5669531723315  0.6256472011647  0.5647537303469 1.0
C      1  0.5470435997908  0.3634854317082  0.2517364976300 1.0
C      1  0.4857956554113  0.4332617937784  0.2233764794549 1.0
C      1  0.6076413162225  0.4125548323165  0.4244109210056 1.0
C      1  0.5883591842543  0.6508009336802  0.6595954760820 1.0
C      1  0.7342350565041  0.6025262513070  0.4909403674436 1.0
C      1  0.6051164463960  0.6226231943580  0.3855913138244 1.0
C      1  0.6300239550600  0.3030392936061  0.5701378225629 1.0
C      1  0.5607098272073  0.5801614866429  0.7287973514582 1.0
C      1  0.3707398933185  0.3652496963953  0.3172906051687 1.0
C      1  0.5490616109137  0.7396639829356  0.6149328594390 1.0
C      1  0.4793029396791  0.4353610154573  0.7345458678586 1.0
C      1  0.7020454117303  0.3714359374431  0.5670951912079 1.0
C      1  0.5645985426248  0.4963626740839  0.2098689534962 1.0
C      1  0.3844447547512  0.4187172623065  0.7195388913204 1.0
C      1  0.3336496652136  0.5035711392673  0.7151630614507 1.0
C      1  0.4330808908554  0.5302497027169  0.5462122096380 1.0
C      1  0.5455462561067  0.4720255369625  0.3919114503162 1.0
C      1  0.6873850091378  0.6505275793233  0.4294958318732 1.0
C      1  0.5854174439829  0.2742246247537  0.4886153157613 1.0
C      1  0.3872944840044  0.6646202489513  0.7512765150953 1.0
C      1  0.3548029661145  0.3405704195978  0.6814132149245 1.0
C      1  0.5295778981007  0.3140336582890  0.3313602959890 1.0
C      1  0.4014394046397  0.4414577713787  0.2630749814170 1.0
C      1  0.3405858203468  0.7456798129725  0.4060913043911 1.0
C      1  0.5759887300678  0.7110611226602  0.5240189609414 1.0
C      1  0.7343166669851  0.5079700862648  0.5133945479425 1.0
C      1  0.2896308433577  0.5882268226202  0.5788990161302 1.0
C      1  0.2800657805189  0.4888970668505  0.5538130354175 1.0
C      1  0.3410686542471  0.6858970296423  0.3462155887248 1.0
C      1  0.6668519540638  0.4400170296224  0.4966806570898 1.0
C      1  0.5374203975607  0.5635505318314  0.4247812733782 1.0
C      1  0.3351954030206  0.3156115539013  0.5908791581809 1.0
C      1  0.3907539221268  0.5252890983243  0.3191890595536 1.0
C      1  0.7903707895128  0.3869784625457  0.4058154853038 1.0
C      1  0.6408478387625  0.5329332688633  0.7153794690106 1.0
C      1  0.4823734747782  0.5324438516980  0.7496435988741 1.0
C      1  0.5754352316323  0.5834259595597  0.2315667190065 1.0
C      1  0.4701913385393  0.5207283313422  0.3660554470844 1.0
C      1  0.6810509485866  0.5985134213416  0.6564009182130 1.0
C      1  0.3288634739594  0.7190095804123  0.4951020084207 1.0
C      1  0.2399405809856  0.4226418773835  0.4017462257386 1.0
END
