TITL C-12556-9949-113 -4.187 3375.00 -714.70897197 0 0 89 () n - 1
REM
REM Run started: at 2020.12.26 01:42:59 in /gpfs/home/chem/mssmkc/CARBON/AIRSS/Generating-Clusters/Str-Search/Only-C1/C10-100
REM VASP from code version vasp.5.4.4.18Apr17-6-g9f103f2a35 (build Oct 11 2019 16:45:47) gamma-only
REM
REM
REM
REM
REM ./C.cell (67c5d0192afd7a3ce4a0888e5fe73b87)
REM AIRSS Version 0.9.1 bugfix July 2018 build 013d7b7c2542+ Fri, 06 Jul 2018 19:26:36 +0100
REM compiler GCC version 6.3.0
REM options -cpp -iprefix /gpfs/warwick/csc/orac/software/Core/GCCcore/6.3.0/bin/../lib/gcc/x86_64-pc-linux-gnu/6.3.0/ -mtune=generic -march=x86-64 -g -O0
REM seed -1731879432 -593504993 2044198193 -270458375 -356283734 1159189488 -1119046433 -866627770 -207887940 -1847209113 427832260 -394178665
REM
REM C.POTCAR (d86ddea03c3ceb6dc662c8ad6801f873)
REM 
CELL 1.54180   15.00000   15.00000   15.00000   90.00000   90.00000   90.00000
LATT -1
SFAC C  
C      1  0.6725328437252  0.5266002793071  0.4040960449939 1.0
C      1  0.2665969972876  0.5682387670147  0.6237121209422 1.0
C      1  0.5019602224751  0.7457034298821  0.4047695750722 1.0
C      1  0.3957521221884  0.6681727152285  0.2911561063716 1.0
C      1  0.5296625163385  0.5152641199464  0.7125704476858 1.0
C      1  0.3680733836606  0.5944911541974  0.5957854712902 1.0
C      1  0.3468037928871  0.4349525420177  0.2050276269411 1.0
C      1  0.5683129114082  0.2150643232511  0.5799035202542 1.0
C      1  0.3263356378145  0.4079222323998  0.7060118331002 1.0
C      1  0.3732779268595  0.3565170726055  0.5642642204281 1.0
C      1  0.6429006867292  0.6852435649762  0.7074974525953 1.0
C      1  0.6146911837850  0.5716589203510  0.1816445275124 1.0
C      1  0.6055661201396  0.2560203022728  0.4167039769635 1.0
C      1  0.4208799167162  0.5617876282913  0.4391710854353 1.0
C      1  0.6949382980299  0.6415664208918  0.6448635029383 1.0
C      1  0.5569048872455  0.5328230865325  0.6231860636308 1.0
C      1  0.4598135081709  0.2453114614793  0.4619503069775 1.0
C      1  0.5483964360097  0.2188129666119  0.4841432567886 1.0
C      1  0.5841263758800  0.5093423565200  0.2389110264756 1.0
C      1  0.6161095544018  0.3985567291885  0.5704797935690 1.0
C      1  0.6943305243178  0.2885200868009  0.4373596516587 1.0
C      1  0.5156260744377  0.5576178515062  0.4666751695644 1.0
C      1  0.4906755006064  0.7474109607281  0.6629413019800 1.0
C      1  0.7153030898955  0.6251956890417  0.4072213086465 1.0
C      1  0.5386098091245  0.7620589191676  0.4954165246806 1.0
C      1  0.4048796001371  0.4404762848942  0.7476110055569 1.0
C      1  0.2447016439674  0.5123140648148  0.4030305392889 1.0
C      1  0.7278588783679  0.5444137274418  0.6374376053884 1.0
C      1  0.4998829793152  0.5018398468626  0.5470972048540 1.0
C      1  0.5767699187426  0.5501956822063  0.3982065134310 1.0
C      1  0.4339171935962  0.5236049679863  0.3393847644603 1.0
C      1  0.3345870274366  0.6712732444392  0.5374741874428 1.0
C      1  0.4509583859776  0.3417773967172  0.5030931891497 1.0
C      1  0.4809921242151  0.7865552324515  0.5682579344159 1.0
C      1  0.4135851999466  0.7079662911264  0.7026281434274 1.0
C      1  0.3836414872323  0.3673693394547  0.2586085892983 1.0
C      1  0.5872615844592  0.7171275906268  0.2579234669560 1.0
C      1  0.7174356144266  0.3683986507712  0.3971211929165 1.0
C      1  0.2913155129422  0.3101529735625  0.5122077986625 1.0
C      1  0.3469831031307  0.5188596918633  0.2064265657772 1.0
C      1  0.7212172359442  0.3765647083719  0.6858732223633 1.0
C      1  0.5330579066443  0.3877098462690  0.3242814825699 1.0
C      1  0.6949304226623  0.5182520778595  0.5013100426261 1.0
C      1  0.5748895788878  0.3305403734760  0.2505614296323 1.0
C      1  0.2568740394006  0.4299824620896  0.4063249290347 1.0
C      1  0.2860886594144  0.4696598534171  0.6356671955883 1.0
C      1  0.6527413847009  0.6992433267265  0.4081744672266 1.0
C      1  0.4369029107403  0.4206338163206  0.3350220809643 1.0
C      1  0.3024771093445  0.2735894539865  0.5913899993285 1.0
C      1  0.7455569973338  0.6207946114732  0.5000718453556 1.0
C      1  0.5074889252694  0.2428060635716  0.6427167170417 1.0
C      1  0.4463451908312  0.2719313491274  0.3653260013796 1.0
C      1  0.6878902180244  0.3313956673001  0.6031634310286 1.0
C      1  0.7785291959702  0.5400439334074  0.5456315357505 1.0
C      1  0.4810146361451  0.3757543124209  0.7447562120840 1.0
C      1  0.6030011943775  0.6569566208699  0.2009701203135 1.0
C      1  0.4541404226149  0.2970601258369  0.6935381565502 1.0
C      1  0.3187731718833  0.7241593467843  0.6823063579975 1.0
C      1  0.3406050608124  0.4475662177181  0.5648859277120 1.0
C      1  0.5630838171029  0.4275107995405  0.7474613455458 1.0
C      1  0.4051169163110  0.3601210263222  0.4097904744239 1.0
C      1  0.5293891423845  0.4014409670359  0.5355934179942 1.0
C      1  0.6931760115225  0.6798046153107  0.5564097207717 1.0
C      1  0.7253258027849  0.4689287865451  0.7005270265144 1.0
C      1  0.3895606762754  0.2790229851275  0.2822954731492 1.0
C      1  0.2931366608775  0.6316796027477  0.6970359874348 1.0
C      1  0.5726215034071  0.7296805078980  0.6979373168119 1.0
C      1  0.6852205243162  0.4369904601118  0.3516185027976 1.0
C      1  0.3036275789830  0.3523861214778  0.4272432890159 1.0
C      1  0.4151356147250  0.7042901157199  0.3741067422078 1.0
C      1  0.3318215015236  0.7567430727111  0.5913720719187 1.0
C      1  0.3812259186161  0.5805630241162  0.2697263767272 1.0
C      1  0.3586127880334  0.3226151827403  0.6607382568361 1.0
C      1  0.6627757695620  0.2358944387833  0.5922637123308 1.0
C      1  0.6415803257938  0.4979086003917  0.5841109030686 1.0
C      1  0.6321658220889  0.7280978119996  0.4981215539422 1.0
C      1  0.6139069674139  0.4205530386647  0.2749745708130 1.0
C      1  0.3587786234706  0.6479353560202  0.4398913271533 1.0
C      1  0.6551160098020  0.4163366543127  0.7414489396360 1.0
C      1  0.3935681132393  0.8124181429652  0.5567880761871 1.0
C      1  0.3996132068376  0.5186791676621  0.5350838112668 1.0
C      1  0.2640895657378  0.5949175074565  0.4418918210381 1.0
C      1  0.7193170123484  0.2686157612994  0.5293228917469 1.0
C      1  0.2516031208129  0.6147454593254  0.5333316369526 1.0
C      1  0.5802610281350  0.7270004824975  0.3484861816916 1.0
C      1  0.5313098670174  0.5414680970668  0.3186817393578 1.0
C      1  0.4394489725355  0.5298427965881  0.7366102534668 1.0
C      1  0.3938353079518  0.6089521617747  0.6998562036952 1.0
C      1  0.5501009953610  0.2930344233321  0.3433381034346 1.0
END
