TITL C-12521-6401-199 -0.582 3375.00 -84.88335179 0 0 11 () n - 1
REM
REM Run started: at 2020.12.25 08:46:39 in /gpfs/home/chem/mssmkc/CARBON/AIRSS/Generating-Clusters/Str-Search/Only-C1/C10-100
REM VASP from code version vasp.5.4.4.18Apr17-6-g9f103f2a35 (build Oct 11 2019 16:45:47) gamma-only
REM
REM
REM
REM
REM ./C.cell (67c5d0192afd7a3ce4a0888e5fe73b87)
REM AIRSS Version 0.9.1 bugfix July 2018 build 013d7b7c2542+ Fri, 06 Jul 2018 19:26:36 +0100
REM compiler GCC version 6.3.0
REM options -cpp -iprefix /gpfs/warwick/csc/orac/software/Core/GCCcore/6.3.0/bin/../lib/gcc/x86_64-pc-linux-gnu/6.3.0/ -mtune=generic -march=x86-64 -g -O0
REM seed 741046604 -1355822285 1586013174 1313671213 -1965101391 1784892666 -1186349993 -1955476254 730794431 -323440497 -785509389 -478848783
REM
REM C.POTCAR (d86ddea03c3ceb6dc662c8ad6801f873)
REM 
CELL 1.54180   15.00000   15.00000   15.00000   90.00000   90.00000   90.00000
LATT -1
SFAC C  
C      1  0.5046669890123  0.4697927455381  0.3301093128884 1.0
C      1  0.5458114669269  0.3047659378180  0.1361201831239 1.0
C      1  0.4957567290905  0.5099930208181  0.4052680230310 1.0
C      1  0.4838896221150  0.5817709990136  0.9091203330768 1.0
C      1  0.4831653252880  0.5818156402209  0.7359457823671 1.0
C      1  0.5170885645412  0.4190213113932  0.2628436594700 1.0
C      1  0.4877966793667  0.5437404326005  0.4834436129352 1.0
C      1  0.5306240475817  0.3644160551347  0.1971259505704 1.0
C      1  0.4829164675953  0.5776658437243  0.6509820958221 1.0
C      1  0.4846857717682  0.5632590839807  0.5665185085276 1.0
C      1  0.4835984367141  0.5837588297578  0.8225225381874 1.0
END
