TITL C-12556-9949-109 -4.092 3375.00 -695.77870863 0 0 87 () n - 1
REM
REM Run started: at 2020.12.26 00:51:59 in /gpfs/home/chem/mssmkc/CARBON/AIRSS/Generating-Clusters/Str-Search/Only-C1/C10-100
REM VASP from code version vasp.5.4.4.18Apr17-6-g9f103f2a35 (build Oct 11 2019 16:45:47) gamma-only
REM
REM
REM
REM
REM ./C.cell (67c5d0192afd7a3ce4a0888e5fe73b87)
REM AIRSS Version 0.9.1 bugfix July 2018 build 013d7b7c2542+ Fri, 06 Jul 2018 19:26:36 +0100
REM compiler GCC version 6.3.0
REM options -cpp -iprefix /gpfs/warwick/csc/orac/software/Core/GCCcore/6.3.0/bin/../lib/gcc/x86_64-pc-linux-gnu/6.3.0/ -mtune=generic -march=x86-64 -g -O0
REM seed 1386883751 -991159347 -863064404 421335642 615488594 2023997801 1529665697 -1990357200 1230059932 325427841 -2120727030 -1357551113
REM
REM C.POTCAR (d86ddea03c3ceb6dc662c8ad6801f873)
REM 
CELL 1.54180   15.00000   15.00000   15.00000   90.00000   90.00000   90.00000
LATT -1
SFAC C  
C      1  0.2662529485484  0.6346734664710  0.4054995943481 1.0
C      1  0.3733991019079  0.3258331278438  0.5377280059207 1.0
C      1  0.5954413310189  0.4122055126887  0.4228833632681 1.0
C      1  0.4202948518814  0.5981228649302  0.3744144942597 1.0
C      1  0.5586215123975  0.5671351340092  0.1708630055755 1.0
C      1  0.3897009378591  0.7151668809577  0.3252552750716 1.0
C      1  0.1962250123500  0.5423595845523  0.5812128832955 1.0
C      1  0.4740152348471  0.3268749472232  0.5332975410586 1.0
C      1  0.6698422529211  0.4396801730452  0.4856449380059 1.0
C      1  0.3426911766203  0.2901298400401  0.4467468583759 1.0
C      1  0.6033485009222  0.5701926197344  0.3833384767227 1.0
C      1  0.5060089589373  0.7394938577402  0.4056258635982 1.0
C      1  0.2818994715409  0.4277121364513  0.3602044914694 1.0
C      1  0.7698075808540  0.5844529339479  0.4999927908111 1.0
C      1  0.5361200633617  0.3940986097023  0.4921226096016 1.0
C      1  0.2644447470653  0.3476010720923  0.4201085528832 1.0
C      1  0.3812497994392  0.7731750526382  0.5603898274618 1.0
C      1  0.5470072898848  0.6884083140844  0.4761178600774 1.0
C      1  0.7507268348325  0.6415486844927  0.4183352741911 1.0
C      1  0.6190290965005  0.2321256835281  0.4222684551089 1.0
C      1  0.7025745128757  0.5591144054673  0.3781163988509 1.0
C      1  0.5821428233178  0.6484014777863  0.3223379608854 1.0
C      1  0.6136117823051  0.3322605314344  0.2886997211659 1.0
C      1  0.6832958687569  0.6961567917637  0.5435694021749 1.0
C      1  0.3908255578775  0.5680551176353  0.1864103581966 1.0
C      1  0.4708123107843  0.6742899327199  0.6735810595149 1.0
C      1  0.3240749511483  0.4567375173218  0.2807475958750 1.0
C      1  0.6091082624122  0.7244692217084  0.3914730055641 1.0
C      1  0.3500111333152  0.3316348137383  0.7009259926488 1.0
C      1  0.5941722331171  0.2357949484077  0.5860925302558 1.0
C      1  0.5360197248709  0.6253726740431  0.6087700135919 1.0
C      1  0.2462446807584  0.6228895387223  0.5783965674573 1.0
C      1  0.3176528280763  0.6458856305096  0.6416309556685 1.0
C      1  0.4375187958530  0.5250865424931  0.5404582759558 1.0
C      1  0.3279406134734  0.4136523220835  0.5372569531306 1.0
C      1  0.6122000328218  0.4026002738359  0.6375614965660 1.0
C      1  0.3688979626257  0.4812908161210  0.5914710291414 1.0
C      1  0.5387751460229  0.5407748686899  0.5591946853352 1.0
C      1  0.4384752695129  0.6008222477020  0.7341487668147 1.0
C      1  0.5060560127483  0.5451617930069  0.7719350270104 1.0
C      1  0.4801158241359  0.2415055581714  0.4826066066375 1.0
C      1  0.7295905013512  0.5119621323435  0.4590476878100 1.0
C      1  0.4213874060997  0.2535202742554  0.4073824444333 1.0
C      1  0.6845300029393  0.2622278569112  0.5690765123877 1.0
C      1  0.5634278402099  0.2068356750827  0.4985161833076 1.0
C      1  0.3371064709243  0.5512185301397  0.2604691693377 1.0
C      1  0.3861216261409  0.7119503365147  0.6290351891429 1.0
C      1  0.3315250762668  0.6269791465115  0.3345755876194 1.0
C      1  0.3521408380474  0.5805554472198  0.7061944048982 1.0
C      1  0.5454814210685  0.3716830071439  0.7044694152644 1.0
C      1  0.2523936619607  0.6455257593561  0.4865063899138 1.0
C      1  0.5425470310800  0.4569607715257  0.7598246857549 1.0
C      1  0.7341151013134  0.6248025805147  0.5817515502070 1.0
C      1  0.3765763403407  0.3845986967191  0.2476756276222 1.0
C      1  0.4734419826029  0.2649017657185  0.3263881652410 1.0
C      1  0.4102531881638  0.7759367175194  0.3974055117068 1.0
C      1  0.4286692872177  0.3222649345705  0.2652834188609 1.0
C      1  0.6416245933655  0.5100080291698  0.3078814107991 1.0
C      1  0.6958460803437  0.2668225632676  0.4688272633064 1.0
C      1  0.2982346867679  0.4503760370110  0.4479958583687 1.0
C      1  0.1730307694595  0.4701039229708  0.5444059626333 1.0
C      1  0.7097852169036  0.4008291933935  0.6671979040257 1.0
C      1  0.3740198611869  0.7960183873897  0.4802463562428 1.0
C      1  0.6930140993832  0.7094562374120  0.4455540582879 1.0
C      1  0.5715661460367  0.2645330936137  0.3388838820617 1.0
C      1  0.7217027112769  0.3552675115990  0.5026204167905 1.0
C      1  0.3185873589194  0.4066670783710  0.7265216132038 1.0
C      1  0.6361072446720  0.6391559307230  0.7164917246097 1.0
C      1  0.5979981785887  0.5818898792715  0.7816123685962 1.0
C      1  0.3962187651215  0.2865532535523  0.6379174494427 1.0
C      1  0.4479550028472  0.5587035534231  0.4520095566671 1.0
C      1  0.5698017891330  0.6982445852924  0.6694221599460 1.0
C      1  0.5886867339332  0.7059830130311  0.5677819178839 1.0
C      1  0.5914466335676  0.4496638006763  0.5559923064308 1.0
C      1  0.7454164664344  0.3393918779449  0.5937273779955 1.0
C      1  0.6401320071894  0.3388178275053  0.7050097704931 1.0
C      1  0.6172147195457  0.4134107241966  0.3266209395351 1.0
C      1  0.7052523470320  0.4964825498068  0.7039855992345 1.0
C      1  0.7072720386470  0.5894998749176  0.6678516143658 1.0
C      1  0.4815342911719  0.6681351132547  0.3359333918826 1.0
C      1  0.5437557360972  0.5832876390009  0.4638248940559 1.0
C      1  0.6082430118501  0.5794643382100  0.2440649313369 1.0
C      1  0.3411624497494  0.4867219803714  0.6826603055493 1.0
C      1  0.4712388224668  0.5803757056663  0.1641520488761 1.0
C      1  0.2319832700012  0.4035073075680  0.5047933759266 1.0
C      1  0.6374166746779  0.4964269770711  0.7726245008906 1.0
C      1  0.4977920874037  0.2993310627372  0.6323523335072 1.0
END
