TITL C-12556-9949-77 -1.107 3375.00 -166.23280684 0 0 22 () n - 1
REM
REM Run started: at 2020.12.25 16:15:34 in /gpfs/home/chem/mssmkc/CARBON/AIRSS/Generating-Clusters/Str-Search/Only-C1/C10-100
REM VASP from code version vasp.5.4.4.18Apr17-6-g9f103f2a35 (build Oct 11 2019 16:45:47) gamma-only
REM
REM
REM
REM
REM ./C.cell (67c5d0192afd7a3ce4a0888e5fe73b87)
REM AIRSS Version 0.9.1 bugfix July 2018 build 013d7b7c2542+ Fri, 06 Jul 2018 19:26:36 +0100
REM compiler GCC version 6.3.0
REM options -cpp -iprefix /gpfs/warwick/csc/orac/software/Core/GCCcore/6.3.0/bin/../lib/gcc/x86_64-pc-linux-gnu/6.3.0/ -mtune=generic -march=x86-64 -g -O0
REM seed 722132491 1766945803 -788832991 987560540 -1607870979 1061549200 2136048945 439560694 810749673 -1774897258 -1271134336 -1928351556
REM
REM C.POTCAR (d86ddea03c3ceb6dc662c8ad6801f873)
REM 
CELL 1.54180   15.00000   15.00000   15.00000   90.00000   90.00000   90.00000
LATT -1
SFAC C  
C      1  0.4279520770862  0.4284948869454  0.5824281042184 1.0
C      1  0.5053952774968  0.5527260550577  0.2542599866230 1.0
C      1  0.6566853160335  0.4075809375073  0.3993648329400 1.0
C      1  0.5691118749494  0.5066286674353  0.3032416874983 1.0
C      1  0.6333294084593  0.4488271942193  0.3304406450251 1.0
C      1  0.6555082721819  0.3884010419272  0.4905508873303 1.0
C      1  0.4241272272732  0.5930911331743  0.6671948955631 1.0
C      1  0.6410213365032  0.5068133340575  0.6020041647532 1.0
C      1  0.5071744729199  0.5703123513654  0.3463091668771 1.0
C      1  0.3481298900613  0.3975679403145  0.5535014678119 1.0
C      1  0.4577981586592  0.5245181420573  0.6033929674341 1.0
C      1  0.2939125410797  0.3932960941314  0.4712782808561 1.0
C      1  0.4443244909085  0.5850078195718  0.5114800897980 1.0
C      1  0.4354224058309  0.6761787517031  0.5445634519722 1.0
C      1  0.6864400562061  0.4578854848679  0.5480647899843 1.0
C      1  0.5033035180068  0.6883283612669  0.4802818367816 1.0
C      1  0.5718104052212  0.3510334221008  0.5147648319114 1.0
C      1  0.2640138564546  0.3584283579383  0.5505636832122 1.0
C      1  0.4833684759755  0.6065553538111  0.4266591436403 1.0
C      1  0.4186395270134  0.6721392053884  0.6373309159247 1.0
C      1  0.5515387450195  0.4861331823275  0.6087352021254 1.0
C      1  0.5209927666597  0.4000524828317  0.5735891677193 1.0
END
