TITL C-12521-6401-98 -1.84 3375.00 -308.24676189 0 0 40 () n - 1
REM
REM Run started: at 2020.12.24 08:31:34 in /gpfs/home/chem/mssmkc/CARBON/AIRSS/Generating-Clusters/Str-Search/Only-C1/C10-100
REM VASP from code version vasp.5.4.4.18Apr17-6-g9f103f2a35 (build Oct 11 2019 16:45:47) gamma-only
REM
REM
REM
REM
REM ./C.cell (67c5d0192afd7a3ce4a0888e5fe73b87)
REM AIRSS Version 0.9.1 bugfix July 2018 build 013d7b7c2542+ Fri, 06 Jul 2018 19:26:36 +0100
REM compiler GCC version 6.3.0
REM options -cpp -iprefix /gpfs/warwick/csc/orac/software/Core/GCCcore/6.3.0/bin/../lib/gcc/x86_64-pc-linux-gnu/6.3.0/ -mtune=generic -march=x86-64 -g -O0
REM seed -1627110184 1800733090 -1874356544 292376068 625952381 -22147316 1833469991 1375978233 850930126 -1667666598 1525078940 -2057030853
REM
REM C.POTCAR (d86ddea03c3ceb6dc662c8ad6801f873)
REM 
CELL 1.54180   15.00000   15.00000   15.00000   90.00000   90.00000   90.00000
LATT -1
SFAC C  
C      1  0.5757702959607  0.4556698206691  0.6060074882127 1.0
C      1  0.6350291319479  0.6136962885447  0.4472112259088 1.0
C      1  0.5204184536435  0.6103735149211  0.5468359250007 1.0
C      1  0.6512132654728  0.3448032145308  0.5033531755726 1.0
C      1  0.3543140979016  0.4501865493758  0.4103972297476 1.0
C      1  0.6213335897459  0.6026293821913  0.5420459668267 1.0
C      1  0.6047480622740  0.5331496191973  0.3231321855326 1.0
C      1  0.6412496602516  0.3532828439720  0.3546486522372 1.0
C      1  0.4177229921840  0.4227586816191  0.6436280050590 1.0
C      1  0.4859172853721  0.6845448219954  0.4820506078598 1.0
C      1  0.3947276601626  0.6318616945893  0.6470034797687 1.0
C      1  0.4885105230801  0.3788525059150  0.4719479488070 1.0
C      1  0.6407750142052  0.5342207836855  0.6132216483227 1.0
C      1  0.3262698906338  0.5913650819333  0.5968996932517 1.0
C      1  0.4864091804694  0.4922369275338  0.6409631212659 1.0
C      1  0.6811975319210  0.3145608209311  0.4318279967366 1.0
C      1  0.5733682403306  0.6171824726072  0.6913281219221 1.0
C      1  0.6772004404709  0.5612641332645  0.3817684444848 1.0
C      1  0.4865391226232  0.5940301850497  0.6434193894405 1.0
C      1  0.5730836649838  0.3964613662976  0.5273413288842 1.0
C      1  0.4847194478415  0.3167931305205  0.3913462247873 1.0
C      1  0.5546123975491  0.3436248544316  0.3297176793382 1.0
C      1  0.3550093881421  0.4240393267145  0.5700479877812 1.0
C      1  0.5255817414417  0.5878478391186  0.3249561237192 1.0
C      1  0.4961647337713  0.5474026611153  0.4685366582422 1.0
C      1  0.4048086766731  0.5512988250721  0.4193145609912 1.0
C      1  0.4662909807043  0.4120717366020  0.7219626162770 1.0
C      1  0.3151367205061  0.5255629868420  0.4527498913459 1.0
C      1  0.5424901360188  0.4591919092726  0.4469080493925 1.0
C      1  0.5879862638736  0.4389440353725  0.3540963604946 1.0
C      1  0.6166335471510  0.5374582379559  0.7109288063159 1.0
C      1  0.4102105037637  0.2906110867452  0.4359652271145 1.0
C      1  0.4026969093849  0.4593372385066  0.3237589434513 1.0
C      1  0.3175168733872  0.5107904582830  0.5487593370791 1.0
C      1  0.5398309646316  0.6350461692228  0.4126273131742 1.0
C      1  0.3852648905552  0.3844476275112  0.4824225765464 1.0
C      1  0.4368039835873  0.5468272349636  0.3267039374839 1.0
C      1  0.3618535107969  0.6789758024882  0.5720438620017 1.0
C      1  0.5576316540398  0.4499830020511  0.7035394138296 1.0
C      1  0.4029586725462  0.7166151283875  0.4985829957920 1.0
END
