TITL C-12556-9949-78 -1.669 3375.00 -256.69469974 0 0 33 () n - 1
REM
REM Run started: at 2020.12.25 16:21:16 in /gpfs/home/chem/mssmkc/CARBON/AIRSS/Generating-Clusters/Str-Search/Only-C1/C10-100
REM VASP from code version vasp.5.4.4.18Apr17-6-g9f103f2a35 (build Oct 11 2019 16:45:47) gamma-only
REM
REM
REM
REM
REM ./C.cell (67c5d0192afd7a3ce4a0888e5fe73b87)
REM AIRSS Version 0.9.1 bugfix July 2018 build 013d7b7c2542+ Fri, 06 Jul 2018 19:26:36 +0100
REM compiler GCC version 6.3.0
REM options -cpp -iprefix /gpfs/warwick/csc/orac/software/Core/GCCcore/6.3.0/bin/../lib/gcc/x86_64-pc-linux-gnu/6.3.0/ -mtune=generic -march=x86-64 -g -O0
REM seed -214858951 -1740113324 435945453 -894426279 1040040023 -1105539296 -2072997225 -2147341210 -2101387971 -741430036 1993386759 1610205176
REM
REM C.POTCAR (d86ddea03c3ceb6dc662c8ad6801f873)
REM 
CELL 1.54180   15.00000   15.00000   15.00000   90.00000   90.00000   90.00000
LATT -1
SFAC C  
C      1  0.3809321827561  0.4168078158485  0.6799140486691 1.0
C      1  0.5905727463010  0.3677615476443  0.5642203742942 1.0
C      1  0.5278771750785  0.4279678813401  0.3841897138381 1.0
C      1  0.5023078330517  0.5210776993261  0.3433319672734 1.0
C      1  0.4935122181953  0.6166622545351  0.4972626357132 1.0
C      1  0.7301890958424  0.4587351464700  0.5250501683968 1.0
C      1  0.4885131655876  0.3524936547181  0.4255854162556 1.0
C      1  0.8110982460301  0.4866206570164  0.5306255289714 1.0
C      1  0.6025122262920  0.6231086513750  0.6657909462326 1.0
C      1  0.3301149333187  0.5215893231548  0.3354072012289 1.0
C      1  0.3018974885100  0.4411254205634  0.3625617839446 1.0
C      1  0.5979519513113  0.3941127066432  0.6536535312480 1.0
C      1  0.5153844250175  0.3322794651567  0.5199694917037 1.0
C      1  0.5794116559796  0.5990367155026  0.3392427644400 1.0
C      1  0.6042217518346  0.6397116616895  0.4150738984046 1.0
C      1  0.5387205770558  0.5530503470048  0.4354242468443 1.0
C      1  0.4215101491299  0.3234903429148  0.5439873503206 1.0
C      1  0.3950176145165  0.3345501155654  0.4489416947842 1.0
C      1  0.3303595127535  0.6165440117217  0.3560378055297 1.0
C      1  0.6460672530849  0.4282470599203  0.5091864195332 1.0
C      1  0.6030425976787  0.4643500146478  0.6984585983344 1.0
C      1  0.5671842163168  0.5497297588340  0.7139404634222 1.0
C      1  0.3952073355805  0.6448233471204  0.2868887552656 1.0
C      1  0.6164486823620  0.6591081634619  0.5916896201044 1.0
C      1  0.3856339753854  0.3572245275109  0.6208743085269 1.0
C      1  0.4136946552535  0.4860313360414  0.7241519192306 1.0
C      1  0.3314036592009  0.6454083365794  0.4464364763437 1.0
C      1  0.5897204700402  0.4681045836761  0.4431732925296 1.0
C      1  0.3262620799094  0.3729982083570  0.4047539472001 1.0
C      1  0.4766831066227  0.5398383303676  0.7382246873575 1.0
C      1  0.4182817900416  0.5526014143324  0.3064508475929 1.0
C      1  0.5808211525429  0.6645379587290  0.5056254036970 1.0
C      1  0.4074442774186  0.6402715422315  0.4838745927687 1.0
END
