TITL C-12521-6401-124 -4.028 3375.00 -681.17329401 0 0 84 () n - 1
REM
REM Run started: at 2020.12.24 14:28:30 in /gpfs/home/chem/mssmkc/CARBON/AIRSS/Generating-Clusters/Str-Search/Only-C1/C10-100
REM VASP from code version vasp.5.4.4.18Apr17-6-g9f103f2a35 (build Oct 11 2019 16:45:47) gamma-only
REM
REM
REM
REM
REM ./C.cell (67c5d0192afd7a3ce4a0888e5fe73b87)
REM AIRSS Version 0.9.1 bugfix July 2018 build 013d7b7c2542+ Fri, 06 Jul 2018 19:26:36 +0100
REM compiler GCC version 6.3.0
REM options -cpp -iprefix /gpfs/warwick/csc/orac/software/Core/GCCcore/6.3.0/bin/../lib/gcc/x86_64-pc-linux-gnu/6.3.0/ -mtune=generic -march=x86-64 -g -O0
REM seed 550907324 1498119168 -1375863048 -2130344471 2015664947 -1457244217 1772490775 -1038703497 -1265391288 1710294920 878780753 990708699
REM
REM C.POTCAR (d86ddea03c3ceb6dc662c8ad6801f873)
REM 
CELL 1.54180   15.00000   15.00000   15.00000   90.00000   90.00000   90.00000
LATT -1
SFAC C  
C      1  0.2713490801310  0.3641529678687  0.3528700336827 1.0
C      1  0.5902705765124  0.6112939932407  0.7016621702143 1.0
C      1  0.4990950253546  0.7911475837425  0.4547381671937 1.0
C      1  0.4333380466896  0.5162393330192  0.2162022171003 1.0
C      1  0.5085016553821  0.8161431269651  0.5471938903063 1.0
C      1  0.4475047419207  0.5776327150983  0.5108221364918 1.0
C      1  0.2487710532129  0.6140440685798  0.5811501466650 1.0
C      1  0.6907855915956  0.3897902868418  0.6493736479644 1.0
C      1  0.4493463209912  0.2450420575375  0.4031912920779 1.0
C      1  0.3577200016325  0.5270960940899  0.7356672063151 1.0
C      1  0.6113299576562  0.3881194522425  0.7044376871244 1.0
C      1  0.4936003032716  0.5935346317883  0.2312733448886 1.0
C      1  0.3980693115612  0.5984149376192  0.2364006867287 1.0
C      1  0.4350463641300  0.6389701592559  0.4301167168256 1.0
C      1  0.3736788191554  0.3595713764099  0.5599288519720 1.0
C      1  0.7485523940643  0.4617426177240  0.6219765446391 1.0
C      1  0.2885174044302  0.5149456208335  0.3328991393906 1.0
C      1  0.4227561384728  0.4135992416725  0.5002058659295 1.0
C      1  0.5837650211748  0.6898978583690  0.3354064235060 1.0
C      1  0.6018419254156  0.6575660056101  0.4308873413506 1.0
C      1  0.2182176552226  0.4573630454515  0.5474185924109 1.0
C      1  0.4080936451723  0.1582966832569  0.3758381763279 1.0
C      1  0.4690095501928  0.3818089890552  0.2940841178741 1.0
C      1  0.4372793779360  0.1230680052728  0.4691899870170 1.0
C      1  0.6873036204647  0.6064988500336  0.6917521026914 1.0
C      1  0.3585081811721  0.7660247968960  0.6001404282512 1.0
C      1  0.6481654704815  0.5543145372774  0.2725085788302 1.0
C      1  0.5236117411148  0.5828529281498  0.4415546968130 1.0
C      1  0.7146942669345  0.4235668343255  0.4657084471696 1.0
C      1  0.5778849804760  0.6214120084568  0.2664180167933 1.0
C      1  0.4338742288110  0.5695404045158  0.6856261570600 1.0
C      1  0.3709740638496  0.1362458920064  0.2991098960731 1.0
C      1  0.5498775153897  0.2511132720035  0.5323703811345 1.0
C      1  0.6537240602152  0.3954784288979  0.2967187154165 1.0
C      1  0.6821630203093  0.6822334524863  0.6296273778732 1.0
C      1  0.5262804487806  0.5446104360292  0.7107878695224 1.0
C      1  0.5086534216368  0.3920945231387  0.4491306343238 1.0
C      1  0.5644163144184  0.3035570456376  0.6815640425662 1.0
C      1  0.6665280625408  0.3490333970864  0.5053348644270 1.0
C      1  0.4455516082055  0.7994685862534  0.6155294925262 1.0
C      1  0.3530317081997  0.7386474540523  0.5128798150447 1.0
C      1  0.4234791548819  0.7349783335257  0.4518267257266 1.0
C      1  0.3868840926972  0.4998908419166  0.4815719911755 1.0
C      1  0.3291353951747  0.5986606980231  0.3027660036834 1.0
C      1  0.5664156901002  0.7467736302138  0.4011602969994 1.0
C      1  0.6070511489750  0.2559731863536  0.6129128773945 1.0
C      1  0.5550817044901  0.4294715403581  0.3038659103176 1.0
C      1  0.8145509422969  0.6207468343807  0.5611355914778 1.0
C      1  0.3227752049631  0.3717039236509  0.6781041638544 1.0
C      1  0.2778748689344  0.3872706208048  0.5883888561396 1.0
C      1  0.3330735881369  0.6686854937162  0.5823872936645 1.0
C      1  0.6947510908070  0.6526001165110  0.4645651785067 1.0
C      1  0.8099029418061  0.5527711757375  0.4910088290027 1.0
C      1  0.4715714691502  0.3145799493921  0.6974567327211 1.0
C      1  0.4811924087023  0.2071900376288  0.4863197280048 1.0
C      1  0.3017163475955  0.5391703639492  0.4365112487969 1.0
C      1  0.5341079860059  0.7667279116522  0.6255759780740 1.0
C      1  0.3116515326653  0.4308233650692  0.2988444679021 1.0
C      1  0.7491007193922  0.5887948744098  0.4228281306675 1.0
C      1  0.5513371825436  0.4773546624670  0.4038502255269 1.0
C      1  0.5899589873078  0.6986311215573  0.6519093988405 1.0
C      1  0.2140083483880  0.3740463994770  0.5111729582250 1.0
C      1  0.5422437432173  0.4501318241248  0.7334812858134 1.0
C      1  0.3708329451622  0.4325082638002  0.7366428355416 1.0
C      1  0.2283061995276  0.3493870938123  0.4225908034278 1.0
C      1  0.4146377371603  0.6085372509233  0.6022124722455 1.0
C      1  0.7083984507245  0.5351627910767  0.3515010845309 1.0
C      1  0.4634314042218  0.3303890623056  0.3743817477448 1.0
C      1  0.2395768156633  0.5469315184859  0.5153934262770 1.0
C      1  0.7768261053560  0.4710539235378  0.5284560610937 1.0
C      1  0.6483290514602  0.4837461278805  0.4194733694301 1.0
C      1  0.6844570069429  0.3112980311057  0.5913944897771 1.0
C      1  0.3946099755403  0.3145249849552  0.6418358626015 1.0
C      1  0.8343840668259  0.5874897503538  0.6447829291962 1.0
C      1  0.2744098348408  0.5654552631880  0.7302275682174 1.0
C      1  0.6227179177365  0.4665082431460  0.2454955134854 1.0
C      1  0.3506283357455  0.6145638121873  0.3903541798078 1.0
C      1  0.2251579013112  0.5933276779487  0.6692055216343 1.0
C      1  0.7152385325998  0.4330463328161  0.3624040788641 1.0
C      1  0.4607313169737  0.3987396703468  0.7422090236362 1.0
C      1  0.7559379985076  0.5448828982324  0.6732554743015 1.0
C      1  0.5768219383906  0.3314873231093  0.4879173109889 1.0
C      1  0.4022499434989  0.4316564607550  0.2535039462269 1.0
C      1  0.7327690993002  0.6761534163228  0.5494225279432 1.0
END
