TITL C-12556-9949-60 -4.052 3375.00 -677.52264003 0 0 83 () n - 1
REM
REM Run started: at 2020.12.25 12:35:54 in /gpfs/home/chem/mssmkc/CARBON/AIRSS/Generating-Clusters/Str-Search/Only-C1/C10-100
REM VASP from code version vasp.5.4.4.18Apr17-6-g9f103f2a35 (build Oct 11 2019 16:45:47) gamma-only
REM
REM
REM
REM
REM ./C.cell (67c5d0192afd7a3ce4a0888e5fe73b87)
REM AIRSS Version 0.9.1 bugfix July 2018 build 013d7b7c2542+ Fri, 06 Jul 2018 19:26:36 +0100
REM compiler GCC version 6.3.0
REM options -cpp -iprefix /gpfs/warwick/csc/orac/software/Core/GCCcore/6.3.0/bin/../lib/gcc/x86_64-pc-linux-gnu/6.3.0/ -mtune=generic -march=x86-64 -g -O0
REM seed -788140649 1036596578 -270538326 1356741921 879782375 -1288352922 1568131555 -543687583 -984214581 1179541095 -913269777 1661354066
REM
REM C.POTCAR (d86ddea03c3ceb6dc662c8ad6801f873)
REM 
CELL 1.54180   15.00000   15.00000   15.00000   90.00000   90.00000   90.00000
LATT -1
SFAC C  
C      1  0.6398639636805  0.4323641602882  0.2889721157234 1.0
C      1  0.6127273877969  0.5643222084348  0.3845259388277 1.0
C      1  0.3151539526023  0.5067024880400  0.6378611468027 1.0
C      1  0.7325248208451  0.5985151285190  0.2090798942657 1.0
C      1  0.7973254265249  0.5186618910470  0.5570807418249 1.0
C      1  0.2019165082505  0.5629332842119  0.4784365308450 1.0
C      1  0.4639200044415  0.6156135208592  0.4506395718048 1.0
C      1  0.6110167253104  0.6872903363979  0.7329345984731 1.0
C      1  0.4439382118909  0.5171730268172  0.4477781734774 1.0
C      1  0.3750364776632  0.4351274836477  0.3124234208166 1.0
C      1  0.6845430192302  0.6234974101609  0.7358561701617 1.0
C      1  0.7603917754947  0.6279723795326  0.6750435367388 1.0
C      1  0.3092562320863  0.3815677007356  0.3547079455082 1.0
C      1  0.3952539426598  0.6860739006609  0.4657004714893 1.0
C      1  0.2253229731833  0.4060251033350  0.5413165191150 1.0
C      1  0.4936592777873  0.2766741351469  0.5105739013005 1.0
C      1  0.6204338358392  0.5320645672902  0.2887062467252 1.0
C      1  0.5470548164417  0.6330341205568  0.4105680983257 1.0
C      1  0.3428818245360  0.3447905593087  0.6393403742890 1.0
C      1  0.6093157631117  0.7694090435536  0.6892693619622 1.0
C      1  0.3192054002194  0.2821721948583  0.5688985536297 1.0
C      1  0.6600326535640  0.5076436820306  0.6656718588895 1.0
C      1  0.5778909863519  0.3323402856652  0.7276605591100 1.0
C      1  0.6611502263639  0.5159480481115  0.4444710991110 1.0
C      1  0.4075383243486  0.5304444485841  0.6679834978001 1.0
C      1  0.5813050847258  0.4999755134756  0.7953520095126 1.0
C      1  0.2539097067136  0.6235572907459  0.5352084036220 1.0
C      1  0.5080251449481  0.5627509804590  0.7814029694094 1.0
C      1  0.4946203825546  0.7117524563375  0.2819715950985 1.0
C      1  0.6056997967363  0.3831701320598  0.5119185404615 1.0
C      1  0.5559590142039  0.5668188038911  0.2138258061765 1.0
C      1  0.5467609556979  0.4071893244189  0.7781544874324 1.0
C      1  0.5492255974813  0.7146994923379  0.3590082621536 1.0
C      1  0.2482044634762  0.6046257454305  0.4011749242741 1.0
C      1  0.4174917458783  0.5633555566573  0.2214669907489 1.0
C      1  0.5509638630044  0.8014883547910  0.6385077741753 1.0
C      1  0.3551039877659  0.3028723484000  0.3884270596138 1.0
C      1  0.4712463512350  0.7619404718057  0.6113734917485 1.0
C      1  0.3555738842659  0.5289806596613  0.2904849432264 1.0
C      1  0.4300228834253  0.7792506782809  0.4358989573439 1.0
C      1  0.6403206383273  0.4728374154962  0.5328728912196 1.0
C      1  0.7205773828895  0.4641398471810  0.5995785152015 1.0
C      1  0.4818911047656  0.7788217051971  0.3550770643404 1.0
C      1  0.2986776452414  0.6627710841647  0.4606043467900 1.0
C      1  0.4349151816899  0.5060120446255  0.7566301066393 1.0
C      1  0.4867332150310  0.3330409760268  0.2760020900218 1.0
C      1  0.2476836561371  0.3186537235982  0.5180788139462 1.0
C      1  0.4309126282200  0.7631519193557  0.5233589305077 1.0
C      1  0.8070339411410  0.4912421239037  0.4706624134038 1.0
C      1  0.4251162342754  0.4928610924048  0.3604564518468 1.0
C      1  0.4896663533580  0.5071541958932  0.6026935929933 1.0
C      1  0.6864745624212  0.3149667247622  0.3863617024552 1.0
C      1  0.4818387882364  0.4999910040184  0.1885064860505 1.0
C      1  0.2824449682041  0.4222289184324  0.6192516057629 1.0
C      1  0.4991779105040  0.2929896752881  0.6795152666520 1.0
C      1  0.4926902639300  0.4095745848672  0.2132555944197 1.0
C      1  0.5205465005805  0.6495407636664  0.7361089286559 1.0
C      1  0.4186781411797  0.3454027974307  0.7000291002498 1.0
C      1  0.3862240915438  0.6248261047214  0.6495983472453 1.0
C      1  0.4473411299304  0.2878224969440  0.3517069739921 1.0
C      1  0.5826225532297  0.5111167849497  0.6088991237441 1.0
C      1  0.5129889918731  0.2534386438375  0.4149921946772 1.0
C      1  0.6485383544480  0.5847835871701  0.1953721804210 1.0
C      1  0.6625806134423  0.5319484679841  0.7589730735922 1.0
C      1  0.2074884871924  0.4699507580680  0.4705008853820 1.0
C      1  0.5150344324972  0.3756641037771  0.5114109151674 1.0
C      1  0.6071203925845  0.2572585788864  0.4087140033997 1.0
C      1  0.5688973323476  0.3777725328214  0.2555651312833 1.0
C      1  0.5023817772196  0.2562099046550  0.5958211534117 1.0
C      1  0.4813823516794  0.6356730728312  0.2317325566558 1.0
C      1  0.3178834251454  0.2759606930034  0.4722998442130 1.0
C      1  0.4531277663620  0.6869194842551  0.6718577677877 1.0
C      1  0.7059093033230  0.4003377096998  0.3476698717698 1.0
C      1  0.8083721440969  0.5932888586879  0.6162716986528 1.0
C      1  0.6540020644371  0.3097792435394  0.4722108398203 1.0
C      1  0.2703546073880  0.5386717803939  0.3401807139906 1.0
C      1  0.4510252543727  0.4130505225038  0.7615213852589 1.0
C      1  0.6624418968446  0.3357401688493  0.6882610037812 1.0
C      1  0.7423769328649  0.4666327771210  0.4127705172750 1.0
C      1  0.7210131064591  0.3760486187705  0.6446511154752 1.0
C      1  0.2446548924826  0.4510557160153  0.3801056705464 1.0
C      1  0.4672241626182  0.4615372675826  0.5186104110056 1.0
C      1  0.3021674271484  0.5983425100739  0.6115822782809 1.0
END
