TITL C-12521-6401-106 -2 3375.00 -328.63914930 0 0 42 () n - 1
REM
REM Run started: at 2020.12.24 10:17:14 in /gpfs/home/chem/mssmkc/CARBON/AIRSS/Generating-Clusters/Str-Search/Only-C1/C10-100
REM VASP from code version vasp.5.4.4.18Apr17-6-g9f103f2a35 (build Oct 11 2019 16:45:47) gamma-only
REM
REM
REM
REM
REM ./C.cell (67c5d0192afd7a3ce4a0888e5fe73b87)
REM AIRSS Version 0.9.1 bugfix July 2018 build 013d7b7c2542+ Fri, 06 Jul 2018 19:26:36 +0100
REM compiler GCC version 6.3.0
REM options -cpp -iprefix /gpfs/warwick/csc/orac/software/Core/GCCcore/6.3.0/bin/../lib/gcc/x86_64-pc-linux-gnu/6.3.0/ -mtune=generic -march=x86-64 -g -O0
REM seed 1163043300 -910330268 -1334540796 -752546147 874396762 759609411 1622610469 410752376 -1486105786 153917088 929833254 -1580785073
REM
REM C.POTCAR (d86ddea03c3ceb6dc662c8ad6801f873)
REM 
CELL 1.54180   15.00000   15.00000   15.00000   90.00000   90.00000   90.00000
LATT -1
SFAC C  
C      1  0.5381707114170  0.2932154636240  0.5317468967521 1.0
C      1  0.2593290644668  0.5362549122368  0.4577004364829 1.0
C      1  0.6197771832711  0.3440686609368  0.5187536422217 1.0
C      1  0.5132123149955  0.3947293221882  0.4114205608305 1.0
C      1  0.6013100086978  0.6164596270658  0.3614292470948 1.0
C      1  0.6239666029475  0.6369275529054  0.2715900517336 1.0
C      1  0.4658304519399  0.5371033278906  0.3043193102730 1.0
C      1  0.5872146788429  0.5326146598769  0.6974988285161 1.0
C      1  0.4708542278471  0.4477130147057  0.3421695675708 1.0
C      1  0.6032186036784  0.4110834663642  0.4499583390894 1.0
C      1  0.5055892735597  0.2392168164350  0.6011911951121 1.0
C      1  0.3739564230103  0.4836163890324  0.5381285338089 1.0
C      1  0.4718723622495  0.3612690595308  0.5041037472206 1.0
C      1  0.5465467990676  0.4473649674180  0.7014271707440 1.0
C      1  0.3040654686684  0.5602811141941  0.5424450168525 1.0
C      1  0.5463185741236  0.5863555251400  0.2935531496921 1.0
C      1  0.4258834987783  0.4068961552956  0.5731265245824 1.0
C      1  0.6576538481443  0.3720400572787  0.6041623388775 1.0
C      1  0.6757809767317  0.5308710711686  0.6566816982687 1.0
C      1  0.4675174178286  0.3925671262329  0.6626301427913 1.0
C      1  0.7029107374955  0.5092864951141  0.5277917537485 1.0
C      1  0.3452257770514  0.7229473837943  0.5299641813103 1.0
C      1  0.6898453072048  0.5905690068046  0.5801760548228 1.0
C      1  0.5897848440582  0.3679608553995  0.6730753070117 1.0
C      1  0.3526257696158  0.6365809993618  0.5659806409340 1.0
C      1  0.7052280436706  0.4516600787785  0.6044771870964 1.0
C      1  0.5111473605154  0.3067229909078  0.6688244252060 1.0
C      1  0.3117280295583  0.5310653874162  0.3711159126123 1.0
C      1  0.6215361789430  0.6437846398467  0.5423127176118 1.0
C      1  0.3727777171372  0.7169616169308  0.4484748948176 1.0
C      1  0.3962141072741  0.3901454307334  0.3371565629161 1.0
C      1  0.6353913071697  0.4992810896778  0.4631613142984 1.0
C      1  0.3137943625974  0.4309822036779  0.3607992997847 1.0
C      1  0.4266258026707  0.5764488561324  0.5393688073784 1.0
C      1  0.3130143010450  0.4564570255465  0.4534440034105 1.0
C      1  0.4223691245578  0.6543278623049  0.4025666679864 1.0
C      1  0.5667729253766  0.6576570817072  0.6161536913802 1.0
C      1  0.5832340094588  0.5939249564347  0.4556155985127 1.0
C      1  0.4636229342544  0.3250296964734  0.3384881164589 1.0
C      1  0.3896658437818  0.5830647287542  0.3415998773532 1.0
C      1  0.4808256822187  0.6039807362268  0.4659906394710 1.0
C      1  0.5475913440787  0.6205125884563  0.6894260473633 1.0
END
