TITL C-12521-6401-4 -2.268 3375.00 -385.90300863 0 0 47 () n - 1
REM
REM Run started: at 2020.12.23 09:59:30 in /gpfs/home/chem/mssmkc/CARBON/AIRSS/Generating-Clusters/Str-Search/Only-C1/C10-100
REM VASP from code version vasp.5.4.4.18Apr17-6-g9f103f2a35 (build Oct 11 2019 16:45:47) gamma-only
REM
REM
REM
REM
REM ./C.cell (67c5d0192afd7a3ce4a0888e5fe73b87)
REM AIRSS Version 0.9.1 bugfix July 2018 build 013d7b7c2542+ Fri, 06 Jul 2018 19:26:36 +0100
REM compiler GCC version 6.3.0
REM options -cpp -iprefix /gpfs/warwick/csc/orac/software/Core/GCCcore/6.3.0/bin/../lib/gcc/x86_64-pc-linux-gnu/6.3.0/ -mtune=generic -march=x86-64 -g -O0
REM seed 296775525 -1992662423 1903718280 1806229746 945624149 1825454913 -354509180 1146738276 -533588390 1640290645 240959246 -1964469276
REM
REM C.POTCAR (d86ddea03c3ceb6dc662c8ad6801f873)
REM 
CELL 1.54180   15.00000   15.00000   15.00000   90.00000   90.00000   90.00000
LATT -1
SFAC C  
C      1  0.4454411457207  0.2762612361424  0.5112820219776 1.0
C      1  0.4088157840727  0.3676593802173  0.6434094341484 1.0
C      1  0.3438830950058  0.4793918563241  0.4292673512771 1.0
C      1  0.6654962833819  0.5599340646813  0.4208476957573 1.0
C      1  0.6000740209669  0.6121611148359  0.6190231885082 1.0
C      1  0.4163506358334  0.4330554546297  0.4885132118553 1.0
C      1  0.5208476718472  0.6541095432018  0.5691665373913 1.0
C      1  0.4125316468972  0.3203161189460  0.3650476822110 1.0
C      1  0.6307074384230  0.5149331462343  0.5838763216195 1.0
C      1  0.6562404161804  0.4968324011115  0.4923597214227 1.0
C      1  0.5389258505897  0.5327473175664  0.7537249660803 1.0
C      1  0.4307196001050  0.3962550988837  0.3120737317232 1.0
C      1  0.6282311113857  0.4128564825595  0.4501726780283 1.0
C      1  0.3569811847576  0.5311587210903  0.6095470325228 1.0
C      1  0.6143340117864  0.5289328637585  0.3451440655783 1.0
C      1  0.5924777466390  0.6812952209413  0.3706379173856 1.0
C      1  0.5946817408481  0.4354466264897  0.3589110959740 1.0
C      1  0.5284484671191  0.3096796546162  0.6455219662815 1.0
C      1  0.5072771959508  0.2989965805158  0.3726338455772 1.0
C      1  0.3903042971598  0.5542189419435  0.6911966462099 1.0
C      1  0.3362794234540  0.5773346742025  0.4505936324893 1.0
C      1  0.3828158411957  0.3327174661467  0.4585853713217 1.0
C      1  0.3658521728546  0.6238153380680  0.3749373420654 1.0
C      1  0.3674349800211  0.4346398077957  0.5800606522647 1.0
C      1  0.4391008618164  0.6856498256991  0.3500943742261 1.0
C      1  0.5671017686390  0.6059306366850  0.3120558530040 1.0
C      1  0.3166529942820  0.4011340760032  0.4927947994889 1.0
C      1  0.6638888104846  0.6556973523014  0.4285169499429 1.0
C      1  0.4752189392320  0.6177815852963  0.2894465568677 1.0
C      1  0.5503332807962  0.4478449084412  0.7136367634550 1.0
C      1  0.5990991861510  0.3391467778492  0.5014267320573 1.0
C      1  0.3816319325077  0.4730213029120  0.3336978325365 1.0
C      1  0.6851184515222  0.6882182311278  0.5127389301902 1.0
C      1  0.4585060627891  0.5793077437654  0.7385431891204 1.0
C      1  0.5612393008307  0.6132817311508  0.7133936488553 1.0
C      1  0.4861577213515  0.3790692116746  0.7016433000288 1.0
C      1  0.4300713300945  0.6570505146984  0.5493866520395 1.0
C      1  0.4928493062038  0.7049680570325  0.4960579145018 1.0
C      1  0.3546227939377  0.5995957115377  0.5423860664718 1.0
C      1  0.6100605680385  0.4393596385985  0.6373564047933 1.0
C      1  0.6791605530243  0.6707314896241  0.5941587066148 1.0
C      1  0.5981740072544  0.3505125373958  0.5968653373882 1.0
C      1  0.5302167033139  0.2819495309790  0.4616248208114 1.0
C      1  0.4462437836048  0.2867668779237  0.6017379718716 1.0
C      1  0.5092835595805  0.7198362982335  0.4044176798919 1.0
C      1  0.5310138184927  0.3777821563956  0.3214966244756 1.0
C      1  0.3991023038567  0.5606149937731  0.3099889816960 1.0
END
