TITL C-128256-4848-25 -4.419 3375.00 -725.93336273 0 0 90 (C1) n - 1
REM
REM Run started: at 2020.12.24 20:38:08 in /rds/project/t2_vol4/rds-t2-cs072/BORA/CARBON/AIRSS/Generating-Clusters/Str-Search/Only-C1/C10-100
REM VASP from code version vasp.5.4.4.18Apr17-6-g9f103f2a35 (build Oct 11 2019 16:45:47) gamma-only
REM
REM
REM
REM
REM ./C.cell (67c5d0192afd7a3ce4a0888e5fe73b87)
REM AIRSS Version 0.9.1 bugfix July 2018 build 013d7b7c2542+ Fri, 06 Jul 2018 19:26:36 +0100
REM compiler GCC version 4.8.5 20150623 (Red Hat 4.8.5-39)
REM options -cpp -mtune=generic -march=x86-64 -g -O0
REM seed -1053496112 1398590127 -826228196 419933968 1638064257 -1288373481 70452094 -22029267 -664332613 -295935639 1960711689 -1469564180
REM
REM C.POTCAR (d86ddea03c3ceb6dc662c8ad6801f873)
REM 
CELL 1.54180   15.00000   15.00000   15.00000   90.00000   90.00000   90.00000
LATT -1
SFAC C  
C      1  0.5880489200465  0.5850009596056  0.7653639820276 1.0
C      1  0.3019476224027  0.4007359729075  0.5598327319661 1.0
C      1  0.7234280303919  0.5777674641860  0.4498713138319 1.0
C      1  0.6033786872474  0.3014055670160  0.6368453006815 1.0
C      1  0.2915051306738  0.3451833063500  0.4759385164992 1.0
C      1  0.6470640037071  0.2566929410386  0.3998461575350 1.0
C      1  0.2064866521143  0.5726345579283  0.4160203412837 1.0
C      1  0.3860038393511  0.2847045255706  0.7518124041672 1.0
C      1  0.5335385907911  0.5390363257186  0.2891199770676 1.0
C      1  0.2194997098158  0.4799406538939  0.4389841563529 1.0
C      1  0.5449392076156  0.3339280356004  0.7106178892284 1.0
C      1  0.5999081727343  0.4891664963731  0.2503232825259 1.0
C      1  0.2973529175907  0.5162281429519  0.6966123061087 1.0
C      1  0.4776567875558  0.3092735051698  0.2348706065412 1.0
C      1  0.5274048221827  0.3419163100872  0.8405194021856 1.0
C      1  0.5028243949653  0.5236106819462  0.4528003472358 1.0
C      1  0.6578722156372  0.5177026710187  0.7040491033243 1.0
C      1  0.6292888406314  0.4051390872875  0.2926006272089 1.0
C      1  0.4526725256474  0.8823997705345  0.5775944033088 1.0
C      1  0.8052918881790  0.5351673336803  0.5010047476321 1.0
C      1  0.2825269639896  0.3615189599648  0.6546502666868 1.0
C      1  0.7547444238237  0.4596135900921  0.5221852406510 1.0
C      1  0.3934199216319  0.4523893321908  0.5793776139166 1.0
C      1  0.7302728781433  0.6274990099463  0.3627689655018 1.0
C      1  0.4704884022394  0.3025901098765  0.7672891272438 1.0
C      1  0.5920081807839  0.2418460611833  0.5581330274317 1.0
C      1  0.5620268728525  0.2698820140803  0.3714587406412 1.0
C      1  0.7015323647242  0.4822157478680  0.4478070082763 1.0
C      1  0.5538454388790  0.4680175678242  0.5865929086504 1.0
C      1  0.6949512321473  0.7493709936897  0.6114326352699 1.0
C      1  0.5871547916198  0.5762283336093  0.2181218218247 1.0
C      1  0.6740748115027  0.4172894851615  0.3836538960610 1.0
C      1  0.7332637557174  0.3921431565584  0.3028421038878 1.0
C      1  0.2126446529296  0.6221155831354  0.3363596185398 1.0
C      1  0.3869074379474  0.5044586574593  0.6543885606638 1.0
C      1  0.4661851609880  0.4105333493683  0.3344250348997 1.0
C      1  0.6351442139133  0.7210341769172  0.4640128054241 1.0
C      1  0.5036077345622  0.6173617697906  0.7291587540810 1.0
C      1  0.5341353409148  0.8931494135097  0.5451531316172 1.0
C      1  0.4814968072918  0.4692365033860  0.5340217376244 1.0
C      1  0.7376735336143  0.3051397375565  0.4914853764262 1.0
C      1  0.5569705713179  0.6025019087658  0.4767327868005 1.0
C      1  0.6369070688303  0.7180535740817  0.2237910282726 1.0
C      1  0.2319410092491  0.7045811089237  0.3350816214821 1.0
C      1  0.2441576708685  0.3933176060381  0.4081702397513 1.0
C      1  0.6456154224524  0.6231343575076  0.4851065798367 1.0
C      1  0.6633979312144  0.2443296464884  0.4937966291361 1.0
C      1  0.2685607904278  0.7678134770051  0.4697154079777 1.0
C      1  0.6085715336234  0.6530138246005  0.1737236324862 1.0
C      1  0.4868189967653  0.7193242048691  0.5701162112548 1.0
C      1  0.2370949636309  0.4760947017247  0.5334945133607 1.0
C      1  0.5333461804473  0.6952770988129  0.4932784004051 1.0
C      1  0.2498876210306  0.7034723200413  0.5347205795588 1.0
C      1  0.2630481144867  0.4331962817396  0.7063779725935 1.0
C      1  0.7649352159669  0.5644193043053  0.2997245678870 1.0
C      1  0.2619233547078  0.5952488633877  0.6496922088108 1.0
C      1  0.2908894789941  0.6860426121788  0.6239481218176 1.0
C      1  0.6607751402708  0.7916545406451  0.5348986601516 1.0
C      1  0.3727656396170  0.7286737332411  0.6427356160978 1.0
C      1  0.2197837481391  0.5593414332384  0.5726268107287 1.0
C      1  0.7398972098729  0.3706542732816  0.5581470335913 1.0
C      1  0.3282714541208  0.3294164436391  0.2663428520257 1.0
C      1  0.4907145887168  0.2327518395996  0.4238422455075 1.0
C      1  0.3293908419631  0.2797497018326  0.6806710579259 1.0
C      1  0.6682442115594  0.6133269856819  0.7172550887466 1.0
C      1  0.4872940587033  0.5012080319909  0.3654918269932 1.0
C      1  0.4046800774042  0.2424734056431  0.3805441479746 1.0
C      1  0.4463085086139  0.5733808670497  0.6781187970564 1.0
C      1  0.6304023434096  0.4602063052505  0.6303372139366 1.0
C      1  0.2101749881136  0.6224971621938  0.5021352846268 1.0
C      1  0.6105847059567  0.4882238916114  0.7823059531170 1.0
C      1  0.4113100257252  0.3792840335806  0.2614977453970 1.0
C      1  0.7744767919309  0.4808014811528  0.2919670741634 1.0
C      1  0.3242226140218  0.2783243946148  0.4124985423957 1.0
C      1  0.4290031282661  0.2023489962603  0.5687318799401 1.0
C      1  0.5648309568002  0.4037183904570  0.7807911949591 1.0
C      1  0.6863434963363  0.6839596710927  0.6626624106293 1.0
C      1  0.7177755933816  0.3285229651227  0.3921892358621 1.0
C      1  0.6796889558948  0.7104937862010  0.3676675438942 1.0
C      1  0.4287305443127  0.7951310965144  0.5924419543242 1.0
C      1  0.6577058219060  0.7647564834743  0.2942823911070 1.0
C      1  0.2582952334582  0.7727292763646  0.3856624459354 1.0
C      1  0.6164284281780  0.8721238511648  0.5357349631932 1.0
C      1  0.6706211380976  0.3691345161004  0.6220740832693 1.0
C      1  0.4062960839366  0.2666981908781  0.2841033477501 1.0
C      1  0.5450323819423  0.3440191482190  0.3063783077835 1.0
C      1  0.2764381122920  0.3302535881529  0.3416498229613 1.0
C      1  0.4546702659341  0.6680849309380  0.6522944044365 1.0
C      1  0.3648841033761  0.2191875118267  0.6174189607684 1.0
C      1  0.5056750042377  0.2157804204823  0.5170839292874 1.0
END
