TITL C-12521-6401-30 -1.43 3375.00 -213.45100074 0 0 28 () n - 1
REM
REM Run started: at 2020.12.23 16:17:09 in /gpfs/home/chem/mssmkc/CARBON/AIRSS/Generating-Clusters/Str-Search/Only-C1/C10-100
REM VASP from code version vasp.5.4.4.18Apr17-6-g9f103f2a35 (build Oct 11 2019 16:45:47) gamma-only
REM
REM
REM
REM
REM ./C.cell (67c5d0192afd7a3ce4a0888e5fe73b87)
REM AIRSS Version 0.9.1 bugfix July 2018 build 013d7b7c2542+ Fri, 06 Jul 2018 19:26:36 +0100
REM compiler GCC version 6.3.0
REM options -cpp -iprefix /gpfs/warwick/csc/orac/software/Core/GCCcore/6.3.0/bin/../lib/gcc/x86_64-pc-linux-gnu/6.3.0/ -mtune=generic -march=x86-64 -g -O0
REM seed 1786859691 1906390442 -809365915 -1962210997 230502009 30653110 1855003440 2106062629 1850512172 -224705140 -1707772569 -597769200
REM
REM C.POTCAR (d86ddea03c3ceb6dc662c8ad6801f873)
REM 
CELL 1.54180   15.00000   15.00000   15.00000   90.00000   90.00000   90.00000
LATT -1
SFAC C  
C      1  0.7651860756212  0.4400977793111  0.5267470876161 1.0
C      1  0.3964529506725  0.5664943115106  0.3873150690928 1.0
C      1  0.3537693446660  0.4980636155581  0.4259663049574 1.0
C      1  0.6409446640463  0.5407411751855  0.6053299180497 1.0
C      1  0.5097992600570  0.3303144366680  0.5680607154345 1.0
C      1  0.2938721927825  0.5555419410926  0.5705176850559 1.0
C      1  0.5039225451699  0.6719930035989  0.4214852215752 1.0
C      1  0.5734207671695  0.5333246191211  0.6699024405886 1.0
C      1  0.4989875317467  0.7203718392512  0.4895120664872 1.0
C      1  0.5030471976684  0.2546842673443  0.4222244851393 1.0
C      1  0.7193650103069  0.4937270767666  0.5836373807474 1.0
C      1  0.5464562055746  0.5099246499660  0.3997718213103 1.0
C      1  0.6370095719819  0.5286244195749  0.4374846153070 1.0
C      1  0.4071387182875  0.3706446738319  0.3510517901532 1.0
C      1  0.7112490402521  0.4804396498283  0.4650885022894 1.0
C      1  0.5159038112531  0.4219351176336  0.4327291447175 1.0
C      1  0.4685851422480  0.6435085824002  0.6377940862969 1.0
C      1  0.4809386403297  0.6977431906086  0.5754716854081 1.0
C      1  0.3611503795593  0.5109051553587  0.5291097538136 1.0
C      1  0.4872217611796  0.5497550851610  0.6340740111233 1.0
C      1  0.6165313598876  0.5674477761924  0.5179947468811 1.0
C      1  0.4979023321773  0.4154948684039  0.5290791761281 1.0
C      1  0.4472339594206  0.4910566743602  0.5691198664876 1.0
C      1  0.4864303297446  0.5851825176303  0.3863005279637 1.0
C      1  0.2253964703279  0.5903224942191  0.6088228617201 1.0
C      1  0.5179906560835  0.2691841924970  0.5066844910089 1.0
C      1  0.4902651010237  0.3386241825701  0.3819448490794 1.0
C      1  0.3438289807622  0.4238527043562  0.3667796955677 1.0
END
