TITL C-12521-6401-12 -1.402 3375.00 -221.19544718 0 0 29 () n - 1
REM
REM Run started: at 2020.12.23 11:26:14 in /gpfs/home/chem/mssmkc/CARBON/AIRSS/Generating-Clusters/Str-Search/Only-C1/C10-100
REM VASP from code version vasp.5.4.4.18Apr17-6-g9f103f2a35 (build Oct 11 2019 16:45:47) gamma-only
REM
REM
REM
REM
REM ./C.cell (67c5d0192afd7a3ce4a0888e5fe73b87)
REM AIRSS Version 0.9.1 bugfix July 2018 build 013d7b7c2542+ Fri, 06 Jul 2018 19:26:36 +0100
REM compiler GCC version 6.3.0
REM options -cpp -iprefix /gpfs/warwick/csc/orac/software/Core/GCCcore/6.3.0/bin/../lib/gcc/x86_64-pc-linux-gnu/6.3.0/ -mtune=generic -march=x86-64 -g -O0
REM seed 2143803579 1571448856 -721740029 9361052 966418250 -1346589454 355178554 -391595579 1575354054 -61362869 -314575132 -1354999504
REM
REM C.POTCAR (d86ddea03c3ceb6dc662c8ad6801f873)
REM 
CELL 1.54180   15.00000   15.00000   15.00000   90.00000   90.00000   90.00000
LATT -1
SFAC C  
C      1  0.5123707234829  0.5422811405480  0.3268793258163 1.0
C      1  0.5353078085233  0.3378398188686  0.4529760714039 1.0
C      1  0.3338945473599  0.4576881128042  0.5272235570457 1.0
C      1  0.5068213970395  0.6679693279170  0.4482364328249 1.0
C      1  0.4456839838242  0.4726700536612  0.6395079479979 1.0
C      1  0.6466203947607  0.5652057786383  0.5285452800742 1.0
C      1  0.6201713395220  0.4431996020022  0.4035892603383 1.0
C      1  0.5332706953830  0.4999863666792  0.2545617339760 1.0
C      1  0.3494567923858  0.5024502588235  0.6090926336923 1.0
C      1  0.3911730582764  0.6650472439570  0.5797704133618 1.0
C      1  0.4784698260756  0.3766297027331  0.6204993818507 1.0
C      1  0.6336228653493  0.6558293327851  0.5435234597608 1.0
C      1  0.3231362632850  0.4198851886914  0.4424344619383 1.0
C      1  0.4849763772983  0.3740977376379  0.3706236028219 1.0
C      1  0.5981217738846  0.5208874657269  0.6053898268755 1.0
C      1  0.3968561905673  0.3992327925558  0.3930606350889 1.0
C      1  0.4782378254318  0.5174534604321  0.4887134882936 1.0
C      1  0.4639248833606  0.6935477285041  0.5277799951452 1.0
C      1  0.5054443705485  0.5239601677186  0.5778563834065 1.0
C      1  0.5238229639418  0.5723255280457  0.4181746089805 1.0
C      1  0.5578636178061  0.6997961675979  0.5329229833440 1.0
C      1  0.5233939007662  0.4195575112392  0.6898242538948 1.0
C      1  0.6251130412321  0.3641036826653  0.4579389298945 1.0
C      1  0.6083079565361  0.4543274060735  0.6689995829120 1.0
C      1  0.5469264611810  0.4369137505721  0.3311680628416 1.0
C      1  0.3487991182575  0.5966217188197  0.6025696360616 1.0
C      1  0.6263930915526  0.5301984074526  0.4403418142786 1.0
C      1  0.4232229527796  0.4321425241345  0.4883249850526 1.0
C      1  0.4785956795884  0.3581521227152  0.5294715510272 1.0
END
