TITL C-12556-9949-80 -3.737 3375.00 -639.41906864 0 0 79 () n - 1
REM
REM Run started: at 2020.12.25 16:49:06 in /gpfs/home/chem/mssmkc/CARBON/AIRSS/Generating-Clusters/Str-Search/Only-C1/C10-100
REM VASP from code version vasp.5.4.4.18Apr17-6-g9f103f2a35 (build Oct 11 2019 16:45:47) gamma-only
REM
REM
REM
REM
REM ./C.cell (67c5d0192afd7a3ce4a0888e5fe73b87)
REM AIRSS Version 0.9.1 bugfix July 2018 build 013d7b7c2542+ Fri, 06 Jul 2018 19:26:36 +0100
REM compiler GCC version 6.3.0
REM options -cpp -iprefix /gpfs/warwick/csc/orac/software/Core/GCCcore/6.3.0/bin/../lib/gcc/x86_64-pc-linux-gnu/6.3.0/ -mtune=generic -march=x86-64 -g -O0
REM seed 804249215 691612206 -980893270 25020703 33355143 1302447810 1861387480 987093085 -1347684159 1318496139 -994533192 974832198
REM
REM C.POTCAR (d86ddea03c3ceb6dc662c8ad6801f873)
REM 
CELL 1.54180   15.00000   15.00000   15.00000   90.00000   90.00000   90.00000
LATT -1
SFAC C  
C      1  0.7597266134189  0.5674997623013  0.5452088241974 1.0
C      1  0.2720899084930  0.4875058329289  0.4848953573219 1.0
C      1  0.2541035327808  0.4052962328815  0.5322328382604 1.0
C      1  0.4061874270915  0.3331846672894  0.6997927544243 1.0
C      1  0.4533154475244  0.4264512562291  0.5189978462034 1.0
C      1  0.4692351939025  0.3058460010953  0.6415812343779 1.0
C      1  0.6719752222656  0.3589994524107  0.3960351760495 1.0
C      1  0.3628461597330  0.4395784922578  0.2697902985551 1.0
C      1  0.3357497622012  0.6321108630510  0.4841700070662 1.0
C      1  0.5899199441129  0.5976128230911  0.3519804542951 1.0
C      1  0.4219219779389  0.7230948097367  0.3879497919543 1.0
C      1  0.4837121893870  0.4767803844221  0.1868459541064 1.0
C      1  0.6565256891309  0.6645895285673  0.3811723804196 1.0
C      1  0.5456901608251  0.5305308694525  0.6372738774670 1.0
C      1  0.5998884977206  0.3851924819972  0.2422628361019 1.0
C      1  0.4209584235547  0.6801959082639  0.4782383569657 1.0
C      1  0.5016031207280  0.3886046786048  0.2239949946814 1.0
C      1  0.3283439451249  0.6343311275072  0.6473373118021 1.0
C      1  0.7220068654093  0.3436733870596  0.4839996533992 1.0
C      1  0.7982979843404  0.4942837166598  0.5007099089678 1.0
C      1  0.4346587895637  0.7777846631484  0.4613289802532 1.0
C      1  0.5620692932974  0.2851964971004  0.5256852022321 1.0
C      1  0.5586969004487  0.5323684537763  0.2103984802972 1.0
C      1  0.4270545949202  0.5738993830365  0.7237125980539 1.0
C      1  0.6208797017446  0.4971966535504  0.5774110152020 1.0
C      1  0.4403591181591  0.2417417545177  0.4089991163361 1.0
C      1  0.4733252663060  0.7358334157334  0.7032410566705 1.0
C      1  0.4290363238029  0.6529313540023  0.6591966247780 1.0
C      1  0.5300359327334  0.6027500839321  0.2673158655080 1.0
C      1  0.5168119911975  0.6035711865063  0.7735467176289 1.0
C      1  0.3040813660873  0.2425019528137  0.4987260867603 1.0
C      1  0.3311535599014  0.5441618895096  0.5354258422902 1.0
C      1  0.2800112721523  0.5117726765040  0.3932495448590 1.0
C      1  0.5967237200050  0.2918682483284  0.3784520988737 1.0
C      1  0.4239487925925  0.3625163771233  0.2748150020220 1.0
C      1  0.7223415945985  0.6561373934942  0.5419173172247 1.0
C      1  0.5563762098360  0.2644405387486  0.6273015130643 1.0
C      1  0.2756964843846  0.3285764656076  0.4745968445027 1.0
C      1  0.6287948589636  0.4787959653698  0.2435747722156 1.0
C      1  0.5938254068283  0.5482748005566  0.7297605764085 1.0
C      1  0.6512333417426  0.4568628717541  0.4039105800174 1.0
C      1  0.4508482871217  0.4974808007310  0.6607949123129 1.0
C      1  0.6671092430722  0.6895735674173  0.4677703084806 1.0
C      1  0.6376370500913  0.3110007662168  0.6456148176066 1.0
C      1  0.4328984910060  0.5995533779476  0.2692671299655 1.0
C      1  0.5141144754841  0.6233640892991  0.6007331964943 1.0
C      1  0.3249084949470  0.5662374523818  0.7153245260340 1.0
C      1  0.5079508247274  0.7924113629392  0.5286117194992 1.0
C      1  0.5245180489971  0.6953682046707  0.7724852660991 1.0
C      1  0.5834504505861  0.7041275838253  0.6075071835859 1.0
C      1  0.3768245613796  0.2119364601028  0.4700748248498 1.0
C      1  0.5359041059796  0.2536845771695  0.4331225977235 1.0
C      1  0.6473388536808  0.5129505687898  0.3317447239578 1.0
C      1  0.5091761399132  0.6371146581414  0.5000835618281 1.0
C      1  0.4069646125105  0.5143075416106  0.2270060311468 1.0
C      1  0.6018325620641  0.4898615864823  0.4818922686978 1.0
C      1  0.5391077544015  0.5638018867592  0.4410025398995 1.0
C      1  0.3029087896312  0.4357817728122  0.3408488574511 1.0
C      1  0.7004672288848  0.5304740260482  0.6133719894423 1.0
C      1  0.6591274455092  0.3144514184183  0.5476213704038 1.0
C      1  0.4835776086327  0.3464116895752  0.5550077450061 1.0
C      1  0.3022523495877  0.4711785044242  0.6918314222933 1.0
C      1  0.5181017847657  0.7803174857738  0.6232410246283 1.0
C      1  0.6200461361559  0.4518290145407  0.7504567695339 1.0
C      1  0.5079128517690  0.4720844672396  0.4546818125550 1.0
C      1  0.2630276096387  0.4219671554868  0.6245594489334 1.0
C      1  0.6735842816801  0.5930406035607  0.6833815642180 1.0
C      1  0.6731258976057  0.6699916181829  0.6296000546605 1.0
C      1  0.6393131658171  0.3808567795322  0.7117566202354 1.0
C      1  0.3190718046479  0.6011657675944  0.3906662087423 1.0
C      1  0.3134197849652  0.3491443972479  0.3868025867949 1.0
C      1  0.5767060122251  0.7169362015921  0.5076417207733 1.0
C      1  0.3892956532882  0.4213881723757  0.6996678770924 1.0
C      1  0.7863184726324  0.4108624369454  0.5024182705752 1.0
C      1  0.6373154812512  0.3282859937473  0.3043935907387 1.0
C      1  0.3818951125521  0.6478449204753  0.3344444344139 1.0
C      1  0.2793549068333  0.6267863942595  0.5664434065918 1.0
C      1  0.4074894086062  0.4953271689733  0.5704292576970 1.0
C      1  0.3938910724097  0.3065545257888  0.3506626672231 1.0
END
