TITL C-13391-138-119 -2.776 3375.00 -474.46782843 0 0 58 () n - 1
REM
REM Run started: at 2020.12.24 12:43:08 in /gpfs/home/chem/mssmkc/CARBON/AIRSS/Generating-Clusters/Str-Search/Only-C1/C10-100
REM VASP from code version vasp.5.4.4.18Apr17-6-g9f103f2a35 (build Oct 11 2019 16:45:47) gamma-only
REM
REM
REM
REM
REM ./C.cell (67c5d0192afd7a3ce4a0888e5fe73b87)
REM AIRSS Version 0.9.1 bugfix July 2018 build 013d7b7c2542+ Fri, 06 Jul 2018 19:26:36 +0100
REM compiler GCC version 6.3.0
REM options -cpp -iprefix /gpfs/warwick/csc/orac/software/Core/GCCcore/6.3.0/bin/../lib/gcc/x86_64-pc-linux-gnu/6.3.0/ -mtune=generic -march=x86-64 -g -O0
REM seed 638266323 1362198488 324030181 -884412695 1215897197 -1432658817 -1121687980 -1052640659 -1193564173 -329459756 -64747782 -176641882
REM
REM C.POTCAR (d86ddea03c3ceb6dc662c8ad6801f873)
REM 
CELL 1.54180   15.00000   15.00000   15.00000   90.00000   90.00000   90.00000
LATT -1
SFAC C  
C      1  0.3368231901682  0.3903979681245  0.6160759455202 1.0
C      1  0.5598913622584  0.3526310165241  0.4131673040462 1.0
C      1  0.5326144035816  0.4504226335423  0.4431887291483 1.0
C      1  0.3859582195595  0.6060436773299  0.3436908684076 1.0
C      1  0.3855856758957  0.6432936790918  0.4380222881845 1.0
C      1  0.2455141985729  0.5732298965471  0.4721226409916 1.0
C      1  0.3299003079722  0.4244329434643  0.3579632455959 1.0
C      1  0.6410411520722  0.3342743124702  0.4678399507487 1.0
C      1  0.5246720736247  0.6136017581698  0.2694793762731 1.0
C      1  0.5124492159647  0.2703571520657  0.5348178643109 1.0
C      1  0.3000989354050  0.6447860451904  0.4905081044756 1.0
C      1  0.4860126472190  0.2980609382580  0.6222106190229 1.0
C      1  0.5196801685045  0.7214319213308  0.4916577151475 1.0
C      1  0.5344648641334  0.5191684403685  0.2498998980025 1.0
C      1  0.7011537221060  0.3971847158332  0.5064195059674 1.0
C      1  0.6118828621922  0.4741526012174  0.2864445517249 1.0
C      1  0.2676070702386  0.5062976669379  0.5325049304696 1.0
C      1  0.4164116985745  0.3539730278075  0.6522303575663 1.0
C      1  0.6881339732023  0.5234724116872  0.3051712243345 1.0
C      1  0.6474260525760  0.6576376969368  0.4846525011955 1.0
C      1  0.4579786449296  0.4219423069503  0.7163968534810 1.0
C      1  0.5047560974213  0.6197870057941  0.7078682613411 1.0
C      1  0.4367861803161  0.6451203946356  0.2836550475444 1.0
C      1  0.5536680625571  0.4108849225957  0.7125947810609 1.0
C      1  0.3531102696080  0.6853770076684  0.5623382833841 1.0
C      1  0.7043850943239  0.5802523375278  0.4731736863802 1.0
C      1  0.5938003709961  0.6588606227826  0.3260269894661 1.0
C      1  0.4005802049949  0.4961552113422  0.7214379006865 1.0
C      1  0.4465151435662  0.5709502994859  0.4812288328609 1.0
C      1  0.3216877794900  0.3731604332719  0.4414966931960 1.0
C      1  0.5289257117893  0.5759452868092  0.5293795439398 1.0
C      1  0.2974079001346  0.5416087552203  0.6180773320072 1.0
C      1  0.6854606491848  0.4656934402662  0.6289032532786 1.0
C      1  0.5769664701535  0.6544431976555  0.6557472895584 1.0
C      1  0.3952793903032  0.5010098304671  0.3527794736423 1.0
C      1  0.4814405473030  0.2983010713666  0.4458417693688 1.0
C      1  0.6168103294719  0.4839194042178  0.6946442136316 1.0
C      1  0.4160546206427  0.5925451357388  0.7035867605308 1.0
C      1  0.5544424303002  0.4204068749557  0.3436585441137 1.0
C      1  0.2996304537233  0.4091201966934  0.5257282070423 1.0
C      1  0.3249285335540  0.4706520186637  0.6697476234703 1.0
C      1  0.7242603971281  0.5697754760006  0.3835065757006 1.0
C      1  0.4654820941739  0.4487028676361  0.2947840304056 1.0
C      1  0.6767586943361  0.6161915096500  0.3158097356012 1.0
C      1  0.5750406634656  0.6639895252997  0.5565138879379 1.0
C      1  0.7041339572873  0.3779477368698  0.6015079762651 1.0
C      1  0.4461251501687  0.4942733674983  0.4361552089473 1.0
C      1  0.5859279305876  0.5734328993783  0.7034245209250 1.0
C      1  0.4270181010085  0.7161336363820  0.4958294842548 1.0
C      1  0.6095879357232  0.2756673620759  0.5363687009330 1.0
C      1  0.3967066415479  0.3691353459927  0.3166814425048 1.0
C      1  0.3512594074842  0.6216959392439  0.6359404812601 1.0
C      1  0.6446962471596  0.3043371563334  0.6218256788873 1.0
C      1  0.5870599755843  0.6954883953882  0.4187955733496 1.0
C      1  0.5684758414058  0.3251411994571  0.6716144069312 1.0
C      1  0.5799705824863  0.5022449291241  0.5090672008482 1.0
C      1  0.4011795770589  0.3180733696553  0.4023212918028 1.0
C      1  0.6783801248085  0.4967830270083  0.5274744423265 1.0
END
