TITL C-13391-138-131 -3.826 3375.00 -671.82309360 0 0 83 () n - 1
REM
REM Run started: at 2020.12.24 16:12:01 in /gpfs/home/chem/mssmkc/CARBON/AIRSS/Generating-Clusters/Str-Search/Only-C1/C10-100
REM VASP from code version vasp.5.4.4.18Apr17-6-g9f103f2a35 (build Oct 11 2019 16:45:47) gamma-only
REM
REM
REM
REM
REM ./C.cell (67c5d0192afd7a3ce4a0888e5fe73b87)
REM AIRSS Version 0.9.1 bugfix July 2018 build 013d7b7c2542+ Fri, 06 Jul 2018 19:26:36 +0100
REM compiler GCC version 6.3.0
REM options -cpp -iprefix /gpfs/warwick/csc/orac/software/Core/GCCcore/6.3.0/bin/../lib/gcc/x86_64-pc-linux-gnu/6.3.0/ -mtune=generic -march=x86-64 -g -O0
REM seed 63174206 770300987 623063676 -1322034442 1429285206 -355369085 -971746709 681237503 892613548 916787281 1171251119 1778286745
REM
REM C.POTCAR (d86ddea03c3ceb6dc662c8ad6801f873)
REM 
CELL 1.54180   15.00000   15.00000   15.00000   90.00000   90.00000   90.00000
LATT -1
SFAC C  
C      1  0.2463956959874  0.3765968595097  0.6640181574268 1.0
C      1  0.3448815409829  0.3657364239933  0.3370157353819 1.0
C      1  0.2983267339421  0.3723564006920  0.7293969105389 1.0
C      1  0.5573578708015  0.7043385940157  0.3853823089664 1.0
C      1  0.3917388115824  0.3602158040180  0.7392938480143 1.0
C      1  0.5355588985481  0.6455494432114  0.3148553150821 1.0
C      1  0.6617853216020  0.3581202710448  0.5266910539297 1.0
C      1  0.7686565267305  0.5977123339717  0.5081311335678 1.0
C      1  0.6838817769433  0.6119653313484  0.6666743430563 1.0
C      1  0.2543448073190  0.3855068337455  0.4850249116884 1.0
C      1  0.5177113553534  0.5959325238532  0.6496443350485 1.0
C      1  0.5049576274171  0.3897161783509  0.4380831020440 1.0
C      1  0.3334329540008  0.7101287693098  0.6534830881445 1.0
C      1  0.5612803228807  0.7481926103813  0.6041300370223 1.0
C      1  0.6607904858410  0.5428379353873  0.7366525975057 1.0
C      1  0.4860910506222  0.6075835021639  0.5525700941035 1.0
C      1  0.4207661651609  0.3800397340239  0.5931538102971 1.0
C      1  0.6660426592472  0.4601131506290  0.5392838967808 1.0
C      1  0.3173034021821  0.5472497441802  0.3054051497445 1.0
C      1  0.7262429566256  0.4869388443333  0.6135137961367 1.0
C      1  0.5981250811060  0.2813315285382  0.3013626989501 1.0
C      1  0.3490308662480  0.7693317311920  0.4950582943788 1.0
C      1  0.7091658437821  0.6403890677314  0.4475119397420 1.0
C      1  0.4456314337240  0.5229836484164  0.5203361086842 1.0
C      1  0.3784668960450  0.2925021592221  0.4827615443356 1.0
C      1  0.2616109369762  0.3533765460235  0.5743843458642 1.0
C      1  0.5025845742782  0.7617453475386  0.4367147746375 1.0
C      1  0.6881614041436  0.4557682079240  0.6974004134053 1.0
C      1  0.4997729260801  0.2567092175339  0.3227861698022 1.0
C      1  0.6643923269592  0.5672890533341  0.3903416463489 1.0
C      1  0.4243203025829  0.4766759177952  0.6109292731368 1.0
C      1  0.4472022025187  0.4303714555196  0.7694366526733 1.0
C      1  0.5724224154095  0.4484270439976  0.5753617923138 1.0
C      1  0.3911060779911  0.5705903985665  0.2461212303989 1.0
C      1  0.5904234333724  0.3522752610321  0.6030111846095 1.0
C      1  0.7888189883019  0.4506705490888  0.4259375624330 1.0
C      1  0.6710959603107  0.5149980505670  0.3076773254286 1.0
C      1  0.3495868004727  0.3081005657979  0.5754660201272 1.0
C      1  0.4165010979609  0.3009802959608  0.6534699163319 1.0
C      1  0.6793222395824  0.3230614965799  0.4412088460377 1.0
C      1  0.6227621811498  0.2622582777099  0.3923408690362 1.0
C      1  0.5685266159117  0.7648118989985  0.5106795968508 1.0
C      1  0.5427976911342  0.4424717880596  0.7391644752423 1.0
C      1  0.4101101269564  0.7510398585096  0.6854060429504 1.0
C      1  0.6071522032030  0.5810534041820  0.3109288466105 1.0
C      1  0.2835718840895  0.5833454074980  0.4664969845358 1.0
C      1  0.5281534321497  0.2393603842927  0.4131824529295 1.0
C      1  0.6165453518806  0.5276917732020  0.4744591991999 1.0
C      1  0.3182083556518  0.3370111579618  0.4257240935297 1.0
C      1  0.5210369448889  0.4926086444293  0.6451802914624 1.0
C      1  0.5534040040227  0.4105847293935  0.2097796298571 1.0
C      1  0.7314051228018  0.3889676777788  0.3848208075257 1.0
C      1  0.8098007460540  0.5206616743853  0.4657849877755 1.0
C      1  0.4407174028611  0.6399674719656  0.2910003735264 1.0
C      1  0.4578954561601  0.3855158427651  0.2091767913749 1.0
C      1  0.3196220368847  0.6107709407756  0.6387875522795 1.0
C      1  0.5832104038225  0.6157152530340  0.5235963656075 1.0
C      1  0.5279743951676  0.4692796519800  0.4878196392561 1.0
C      1  0.3580820737155  0.5153737512342  0.4785634699027 1.0
C      1  0.5755706619736  0.5325067207460  0.7718595021414 1.0
C      1  0.7496522961562  0.5799201378082  0.6039534395942 1.0
C      1  0.5013368913467  0.4577221254431  0.2761786286915 1.0
C      1  0.4087320682332  0.4706963824641  0.2329670405807 1.0
C      1  0.4344600626615  0.3284531338837  0.2982647227487 1.0
C      1  0.6210305927340  0.6913365247484  0.4628801160463 1.0
C      1  0.4973731777312  0.3138009795990  0.5847001065164 1.0
C      1  0.3023374169732  0.7280144806052  0.5601232795690 1.0
C      1  0.3632312220664  0.5347692979443  0.6731057343397 1.0
C      1  0.4801505552432  0.2952618070251  0.4809563048866 1.0
C      1  0.3803356080568  0.6785973172801  0.3588406160383 1.0
C      1  0.2854548369944  0.6334116374696  0.5497067627200 1.0
C      1  0.4852026312807  0.7691161635200  0.6520202727416 1.0
C      1  0.6217310097867  0.3617772464319  0.2596118843480 1.0
C      1  0.3089942987185  0.6141422704294  0.3746019582352 1.0
C      1  0.6009685298962  0.6504217609557  0.6229742690072 1.0
C      1  0.2778266314069  0.4806453822628  0.4765067697367 1.0
C      1  0.4912835874004  0.5845339388462  0.7509389582349 1.0
C      1  0.4163429221837  0.5264987439039  0.7574009380544 1.0
C      1  0.6848361374029  0.4197185686809  0.3064652145426 1.0
C      1  0.4064651093128  0.7450137413483  0.4267663294669 1.0
C      1  0.4867464080669  0.4000881743225  0.3532137609810 1.0
C      1  0.3338058682155  0.4508637304450  0.2959753308470 1.0
C      1  0.6198662760368  0.3897916151581  0.6974146263591 1.0
END
