TITL C-13391-138-53 -1.376 3375.00 -214.08226842 0 0 27 () n - 1
REM
REM Run started: at 2020.12.23 22:43:39 in /gpfs/home/chem/mssmkc/CARBON/AIRSS/Generating-Clusters/Str-Search/Only-C1/C10-100
REM VASP from code version vasp.5.4.4.18Apr17-6-g9f103f2a35 (build Oct 11 2019 16:45:47) gamma-only
REM
REM
REM
REM
REM ./C.cell (67c5d0192afd7a3ce4a0888e5fe73b87)
REM AIRSS Version 0.9.1 bugfix July 2018 build 013d7b7c2542+ Fri, 06 Jul 2018 19:26:36 +0100
REM compiler GCC version 6.3.0
REM options -cpp -iprefix /gpfs/warwick/csc/orac/software/Core/GCCcore/6.3.0/bin/../lib/gcc/x86_64-pc-linux-gnu/6.3.0/ -mtune=generic -march=x86-64 -g -O0
REM seed -211368700 1960082448 -1803961156 -1374685732 1048017494 873371238 1139069494 889355293 -1781784014 39054346 -77205245 1711018686
REM
REM C.POTCAR (d86ddea03c3ceb6dc662c8ad6801f873)
REM 
CELL 1.54180   15.00000   15.00000   15.00000   90.00000   90.00000   90.00000
LATT -1
SFAC C  
C      1  0.6280565631460  0.4500458997555  0.5853807396337 1.0
C      1  0.5321186015138  0.3425802161513  0.5181987883708 1.0
C      1  0.4569325485002  0.6396791943556  0.3335172387750 1.0
C      1  0.5602090914998  0.4186565787329  0.6482523926823 1.0
C      1  0.4959965009773  0.3589479995344  0.6047440042989 1.0
C      1  0.3845715599459  0.5690491023060  0.5314357502378 1.0
C      1  0.5229940808381  0.5638116037217  0.6960564403556 1.0
C      1  0.4857892711023  0.3321078578001  0.4328132647385 1.0
C      1  0.5130219686287  0.6293459063590  0.6294433273958 1.0
C      1  0.5910378043544  0.4373343055761  0.3329709352065 1.0
C      1  0.3574097154160  0.4116309726825  0.4960362134614 1.0
C      1  0.5490583220967  0.3593100346430  0.3686773029113 1.0
C      1  0.4530457082059  0.6367033211251  0.5535189415552 1.0
C      1  0.3768634262036  0.6041005130118  0.3707419573450 1.0
C      1  0.5652326372273  0.5156559562280  0.2936566622738 1.0
C      1  0.5996520537562  0.5932939335067  0.6391719296978 1.0
C      1  0.3460390089019  0.5823047498058  0.4449255358824 1.0
C      1  0.6238656526517  0.4000349676815  0.4128447912538 1.0
C      1  0.4830284419580  0.6965951950442  0.4040294176803 1.0
C      1  0.4748221812766  0.6992691334147  0.4868993943025 1.0
C      1  0.6555731357336  0.5404869154660  0.5904388924685 1.0
C      1  0.3968215510196  0.3598674526112  0.4442549742646 1.0
C      1  0.3810082499994  0.4758416235387  0.5621702568077 1.0
C      1  0.4984897255088  0.4754701816573  0.6926523461118 1.0
C      1  0.5172919634868  0.5833135857367  0.2912742303404 1.0
C      1  0.4350924901714  0.4324206999681  0.6283594645955 1.0
C      1  0.6159778458798  0.3921420995862  0.5075349073530 1.0
END
