TITL C-130697-9583-28 -1.692 3375.00 -273.94810977 0 0 34 (C1) n - 1
REM
REM Run started: at 2020.12.04 22:26:27 in /rds/project/t2_vol4/rds-t2-cs072/BORA/CARBON/AIRSS/Generating-Clusters/Str-Search/Only-C1/C10-100
REM VASP from code version vasp.5.4.4.18Apr17-6-g9f103f2a35 (build Oct 11 2019 16:45:47) gamma-only
REM
REM
REM
REM
REM ./C.cell (67c5d0192afd7a3ce4a0888e5fe73b87)
REM AIRSS Version 0.9.1 bugfix July 2018 build 013d7b7c2542+ Fri, 06 Jul 2018 19:26:36 +0100
REM compiler GCC version 4.8.5 20150623 (Red Hat 4.8.5-39)
REM options -cpp -mtune=generic -march=x86-64 -g -O0
REM seed -1990702403 962324570 -1685713241 -1465099878 1921053129 2053762411 1834832051 1566496530 686599586 1409060198 55147581 578341415
REM
REM C.POTCAR (d86ddea03c3ceb6dc662c8ad6801f873)
REM 
CELL 1.54180   15.00000   15.00000   15.00000   90.00000   90.00000   90.00000
LATT -1
SFAC C  
C      1  0.5972896131787  0.3644479520677  0.4368216435060 1.0
C      1  0.4171623625079  0.5584405158508  0.5542735084662 1.0
C      1  0.2811648825404  0.5694856045615  0.4806658156420 1.0
C      1  0.3609656286639  0.6182847322655  0.5001923920863 1.0
C      1  0.5663663921579  0.6452305427257  0.5318814164068 1.0
C      1  0.2729667767071  0.4953300515393  0.4235512336349 1.0
C      1  0.4867189138936  0.3449786389155  0.5119918994819 1.0
C      1  0.5773747433952  0.4416574608766  0.6679143491845 1.0
C      1  0.5345415901768  0.5678983280545  0.3246784871020 1.0
C      1  0.5105300026496  0.3991723293649  0.7130600257743 1.0
C      1  0.5854756368497  0.3478449846809  0.5320740407338 1.0
C      1  0.6257266780197  0.4475736351073  0.4013051601608 1.0
C      1  0.6271610346155  0.4040564784993  0.5933119576843 1.0
C      1  0.5246193352818  0.6504829427627  0.3592878874246 1.0
C      1  0.5038565658168  0.3517142434960  0.4159803631266 1.0
C      1  0.5833651369140  0.6527714177982  0.4336619021584 1.0
C      1  0.6663884675514  0.5591642340145  0.6120195775768 1.0
C      1  0.3941149237830  0.6845381647938  0.4425241396825 1.0
C      1  0.5104862936674  0.5811860702188  0.5818093700814 1.0
C      1  0.6784468389517  0.4808149564269  0.5560581991103 1.0
C      1  0.6723815272394  0.5053326940297  0.4625583944477 1.0
C      1  0.2889905522026  0.4797913088479  0.5158895067646 1.0
C      1  0.6598679939087  0.6019382296087  0.4631833337312 1.0
C      1  0.5742814102979  0.5366611685412  0.6392281289010 1.0
C      1  0.4224856966584  0.3836041365221  0.5697148122745 1.0
C      1  0.4779015468975  0.4169976838748  0.3512168287980 1.0
C      1  0.5537127683399  0.4797286824399  0.3412469950329 1.0
C      1  0.4359196160746  0.3621270830572  0.7541169983862 1.0
C      1  0.6601645845333  0.6337053865967  0.5559479649727 1.0
C      1  0.4335333766878  0.3698597347711  0.6613218628818 1.0
C      1  0.3893829685952  0.4370111126606  0.3352158033471 1.0
C      1  0.3098394186823  0.4590726079075  0.3470076559869 1.0
C      1  0.4421952829614  0.6995236102072  0.3762147983391 1.0
C      1  0.3746218395986  0.4695729769149  0.5540734471118 1.0
END
