TITL C-130697-9583-26 -0.579 3375.00 -85.76837660 0 0 12 (C1) n - 1
REM
REM Run started: at 2020.12.04 22:05:58 in /rds/project/t2_vol4/rds-t2-cs072/BORA/CARBON/AIRSS/Generating-Clusters/Str-Search/Only-C1/C10-100
REM VASP from code version vasp.5.4.4.18Apr17-6-g9f103f2a35 (build Oct 11 2019 16:45:47) gamma-only
REM
REM
REM
REM
REM ./C.cell (67c5d0192afd7a3ce4a0888e5fe73b87)
REM AIRSS Version 0.9.1 bugfix July 2018 build 013d7b7c2542+ Fri, 06 Jul 2018 19:26:36 +0100
REM compiler GCC version 4.8.5 20150623 (Red Hat 4.8.5-39)
REM options -cpp -mtune=generic -march=x86-64 -g -O0
REM seed -257799714 -1713143474 -1423042055 1757591565 -903182763 -1540976512 447436909 1237722165 -1648875248 -425273614 2004209726 -615862147
REM
REM C.POTCAR (d86ddea03c3ceb6dc662c8ad6801f873)
REM 
CELL 1.54180   15.00000   15.00000   15.00000   90.00000   90.00000   90.00000
LATT -1
SFAC C  
C      1  0.4280305774707  0.4259594878011  0.5514603701097 1.0
C      1  0.4058252773630  0.3492045743635  0.7059142586045 1.0
C      1  0.5311147218067  0.5417255033208  0.4672429945708 1.0
C      1  0.6371512507247  0.6297742625134  0.4365785281719 1.0
C      1  0.5969243174693  0.5895148902869  0.6079414117505 1.0
C      1  0.5987114331168  0.5926276286846  0.5196311095899 1.0
C      1  0.6236399874600  0.6304416372605  0.3446910372702 1.0
C      1  0.5591077277344  0.5751549175417  0.3814006333685 1.0
C      1  0.4128332460414  0.3895448250435  0.6297532338904 1.0
C      1  0.4680909494132  0.4793757480543  0.4872478504643 1.0
C      1  0.4019591567346  0.4230590934192  0.4494327998029 1.0
C      1  0.3366114546652  0.3736173317104  0.4187057724064 1.0
END
