TITL C-130697-9583-11 -3.019 3375.00 -525.07181996 0 0 64 (C1) n - 1
REM
REM Run started: at 2020.12.04 18:54:00 in /rds/project/t2_vol4/rds-t2-cs072/BORA/CARBON/AIRSS/Generating-Clusters/Str-Search/Only-C1/C10-100
REM VASP from code version vasp.5.4.4.18Apr17-6-g9f103f2a35 (build Oct 11 2019 16:45:47) gamma-only
REM
REM
REM
REM
REM ./C.cell (67c5d0192afd7a3ce4a0888e5fe73b87)
REM AIRSS Version 0.9.1 bugfix July 2018 build 013d7b7c2542+ Fri, 06 Jul 2018 19:26:36 +0100
REM compiler GCC version 4.8.5 20150623 (Red Hat 4.8.5-39)
REM options -cpp -mtune=generic -march=x86-64 -g -O0
REM seed -307512289 760913819 864117249 1306486772 855159133 70452094 -1735962546 -626090601 -288918274 243551532 1888098430 1350919618
REM
REM C.POTCAR (d86ddea03c3ceb6dc662c8ad6801f873)
REM 
CELL 1.54180   15.00000   15.00000   15.00000   90.00000   90.00000   90.00000
LATT -1
SFAC C  
C      1  0.7333651358148  0.5813894312843  0.6179372532973 1.0
C      1  0.6699469027739  0.6500730455495  0.4154208443747 1.0
C      1  0.6466702963688  0.4383887194043  0.6438329601486 1.0
C      1  0.6653575722410  0.4903390290016  0.3079394068022 1.0
C      1  0.2450563859187  0.4522050138379  0.5808754233813 1.0
C      1  0.4344727332767  0.6329130309546  0.3715381721454 1.0
C      1  0.2571993799384  0.5147210148746  0.4391174842149 1.0
C      1  0.4879825524313  0.3663256478872  0.6490601579660 1.0
C      1  0.5256659712825  0.4094222115909  0.3179503444217 1.0
C      1  0.4412969249598  0.4467011810527  0.2716490604126 1.0
C      1  0.3183468949333  0.2708224565207  0.4777759962852 1.0
C      1  0.3527538089838  0.6661800738082  0.4148211146535 1.0
C      1  0.3061304179576  0.5206816283005  0.3557737285677 1.0
C      1  0.4860471887369  0.7037402678309  0.5516434731477 1.0
C      1  0.4857275419536  0.5572570834297  0.5784047440788 1.0
C      1  0.7270799985331  0.5334115686627  0.5284992773323 1.0
C      1  0.3555008875191  0.4406185111478  0.3225511481493 1.0
C      1  0.5542125304934  0.6436407167112  0.6891489126611 1.0
C      1  0.2446762241280  0.4306549729063  0.4862097947752 1.0
C      1  0.4788966062870  0.4724554154172  0.4552708114036 1.0
C      1  0.4678861942412  0.5415986147399  0.3863257830653 1.0
C      1  0.5343118894221  0.7141841492712  0.4659304264436 1.0
C      1  0.6088180987380  0.5685677020355  0.7217874198197 1.0
C      1  0.5617644383993  0.7038527963772  0.6195348569777 1.0
C      1  0.3388179977251  0.6114426651110  0.3417175737427 1.0
C      1  0.3120488476171  0.5528799064655  0.6571713260449 1.0
C      1  0.4964415842715  0.2833699403097  0.5971563382255 1.0
C      1  0.5428568315986  0.2885155069869  0.5100023798377 1.0
C      1  0.3888799065058  0.2876380524584  0.4112324140986 1.0
C      1  0.4972138586579  0.3894063431943  0.4070088040190 1.0
C      1  0.5091781276892  0.5115979175277  0.3047720264812 1.0
C      1  0.4786815633974  0.3005261272198  0.4357507277072 1.0
C      1  0.2749277810762  0.3525333010906  0.4437489386144 1.0
C      1  0.5475974795424  0.5109322806699  0.5246762230686 1.0
C      1  0.5330775455738  0.5087074124178  0.7205619027825 1.0
C      1  0.2409560264899  0.5494437093756  0.5907477097824 1.0
C      1  0.6029094378002  0.6381808382012  0.3456461671876 1.0
C      1  0.3467745319568  0.2394395632439  0.5586991125041 1.0
C      1  0.5987479315959  0.5569897920251  0.2950474364035 1.0
C      1  0.2579391335121  0.5880076805724  0.5078753290054 1.0
C      1  0.4219406892269  0.2273731428995  0.5951795015679 1.0
C      1  0.4755340593583  0.5817399928482  0.6757875787081 1.0
C      1  0.6652936154677  0.3626634164828  0.4030484274771 1.0
C      1  0.7324208613737  0.5039191654188  0.3747527668919 1.0
C      1  0.6495884752862  0.7084520576692  0.5746079727116 1.0
C      1  0.3267388164614  0.6565637653248  0.5030862228746 1.0
C      1  0.7532878018094  0.4348572307685  0.5139898013535 1.0
C      1  0.7267555368635  0.5762036051343  0.4360726456301 1.0
C      1  0.5201531817298  0.6808027630099  0.3775769397277 1.0
C      1  0.6257829999980  0.3323736068265  0.4914218254763 1.0
C      1  0.4414225140011  0.4788349545433  0.5484185897502 1.0
C      1  0.7192479604970  0.6719090866183  0.6254847425956 1.0
C      1  0.3334320379143  0.3599635452172  0.3673078671366 1.0
C      1  0.3209046724989  0.4518643422824  0.6416357988433 1.0
C      1  0.6338085815872  0.4824907272458  0.5500355893122 1.0
C      1  0.5547596151207  0.4245093993205  0.6811707199939 1.0
C      1  0.3934031572788  0.6715074071864  0.5734205354079 1.0
C      1  0.6870981623353  0.5270465107796  0.6833080745363 1.0
C      1  0.6252867588934  0.4006785678078  0.3236310363124 1.0
C      1  0.7414649482522  0.4203921144868  0.4235655031056 1.0
C      1  0.3814976182147  0.6146471131222  0.6559327475564 1.0
C      1  0.6297115759993  0.7056028211700  0.4827971520152 1.0
C      1  0.4085646883685  0.4169755642373  0.6181824849345 1.0
C      1  0.6756862111215  0.3888735801331  0.5587723720500 1.0
END
