TITL C-13391-138-81 -2.649 3375.00 -433.20527303 0 0 54 () n - 1
REM
REM Run started: at 2020.12.24 05:19:45 in /gpfs/home/chem/mssmkc/CARBON/AIRSS/Generating-Clusters/Str-Search/Only-C1/C10-100
REM VASP from code version vasp.5.4.4.18Apr17-6-g9f103f2a35 (build Oct 11 2019 16:45:47) gamma-only
REM
REM
REM
REM
REM ./C.cell (67c5d0192afd7a3ce4a0888e5fe73b87)
REM AIRSS Version 0.9.1 bugfix July 2018 build 013d7b7c2542+ Fri, 06 Jul 2018 19:26:36 +0100
REM compiler GCC version 6.3.0
REM options -cpp -iprefix /gpfs/warwick/csc/orac/software/Core/GCCcore/6.3.0/bin/../lib/gcc/x86_64-pc-linux-gnu/6.3.0/ -mtune=generic -march=x86-64 -g -O0
REM seed 2070523587 -286332152 -1914295260 390650693 -1097733746 674216003 -556476757 681951328 1698958893 -1574358083 -1524351313 -246786690
REM
REM C.POTCAR (d86ddea03c3ceb6dc662c8ad6801f873)
REM 
CELL 1.54180   15.00000   15.00000   15.00000   90.00000   90.00000   90.00000
LATT -1
SFAC C  
C      1  0.3216414058036  0.5635268273510  0.6555322555985 1.0
C      1  0.4567651827193  0.4303827951021  0.3107347057678 1.0
C      1  0.2895490919145  0.4014744010651  0.4696601564835 1.0
C      1  0.5300492173736  0.6401216758292  0.6660277944703 1.0
C      1  0.6590343211010  0.2833609606254  0.4138717338343 1.0
C      1  0.3525406208132  0.3722546888980  0.6068878029270 1.0
C      1  0.5582614096413  0.2421754883676  0.5235865054638 1.0
C      1  0.3714308904981  0.7069482082952  0.4587204275175 1.0
C      1  0.5961681278255  0.2340002811783  0.4414811070526 1.0
C      1  0.5447490315953  0.6421126305955  0.3429730358875 1.0
C      1  0.6199605046535  0.3919328355254  0.2300597584706 1.0
C      1  0.2705930986544  0.5123922545446  0.5894287200603 1.0
C      1  0.3983075792004  0.3152956584566  0.5385627485102 1.0
C      1  0.5027058591511  0.5909035801079  0.2769009164167 1.0
C      1  0.6490489336071  0.5155276976489  0.5249699667963 1.0
C      1  0.3945864722555  0.5141741682028  0.6893327463812 1.0
C      1  0.4568181226346  0.5194565554363  0.2749710031709 1.0
C      1  0.6413725210629  0.4702436615836  0.6934598393289 1.0
C      1  0.3861640793641  0.4035890730175  0.3677860310429 1.0
C      1  0.5516132794315  0.4095239334331  0.2953028025794 1.0
C      1  0.5419879445788  0.7582631828101  0.4662852709686 1.0
C      1  0.4381206651047  0.5800308150772  0.4298009198466 1.0
C      1  0.4031132198038  0.4178902431524  0.6737021290218 1.0
C      1  0.5307934122285  0.5829484720408  0.4233860781658 1.0
C      1  0.5635658327891  0.5441636792759  0.5077315239014 1.0
C      1  0.3299872413148  0.6546069624048  0.6208021432179 1.0
C      1  0.3584731487799  0.6266951478768  0.3963482306067 1.0
C      1  0.5499283591426  0.4698818421192  0.6983816874045 1.0
C      1  0.6088670220809  0.3018389905147  0.5836853168973 1.0
C      1  0.5706856897407  0.6897623823633  0.6126657527250 1.0
C      1  0.3642572742905  0.3468246414421  0.4509314539294 1.0
C      1  0.6788148544743  0.6831897665641  0.4884678675955 1.0
C      1  0.6415083045665  0.4272367313049  0.3143189717741 1.0
C      1  0.3076073703553  0.4631895646363  0.3957446859184 1.0
C      1  0.3394416810724  0.6970294953740  0.5487181193048 1.0
C      1  0.7140365021509  0.6217635018375  0.4426343300350 1.0
C      1  0.4845731933089  0.5370033475426  0.5667075195111 1.0
C      1  0.6936646532613  0.4464049248218  0.3948989290567 1.0
C      1  0.4516704343744  0.7532463487783  0.4365595615056 1.0
C      1  0.2814739435972  0.4209237950944  0.5654283977516 1.0
C      1  0.4094827330925  0.5456838505804  0.5140032102538 1.0
C      1  0.6802307768875  0.4522394546103  0.5926627436319 1.0
C      1  0.6689430556750  0.3648431685088  0.5480456150343 1.0
C      1  0.4908014755935  0.5481005137908  0.6692588145276 1.0
C      1  0.6831015677595  0.3653573230932  0.4498396615304 1.0
C      1  0.6038087037724  0.7244992378748  0.5302367951789 1.0
C      1  0.4760659150480  0.2732348233663  0.5666557456039 1.0
C      1  0.2930570331221  0.5557044862045  0.4126643692823 1.0
C      1  0.4965269589501  0.3919359612443  0.6832172553359 1.0
C      1  0.7272816026231  0.4725159535817  0.6785135303000 1.0
C      1  0.5277310171773  0.3176044233862  0.6377918565529 1.0
C      1  0.3106369004471  0.5480038022431  0.5093174499929 1.0
C      1  0.7035815133775  0.5277372386617  0.4423577961854 1.0
C      1  0.5248203501582  0.7302489525582  0.3779861096921 1.0
END
