TITL C-13391-138-176 -3.244 3375.00 -556.89365532 0 0 67 () n - 1
REM
REM Run started: at 2020.12.25 03:17:00 in /gpfs/home/chem/mssmkc/CARBON/AIRSS/Generating-Clusters/Str-Search/Only-C1/C10-100
REM VASP from code version vasp.5.4.4.18Apr17-6-g9f103f2a35 (build Oct 11 2019 16:45:47) gamma-only
REM
REM
REM
REM
REM ./C.cell (67c5d0192afd7a3ce4a0888e5fe73b87)
REM AIRSS Version 0.9.1 bugfix July 2018 build 013d7b7c2542+ Fri, 06 Jul 2018 19:26:36 +0100
REM compiler GCC version 6.3.0
REM options -cpp -iprefix /gpfs/warwick/csc/orac/software/Core/GCCcore/6.3.0/bin/../lib/gcc/x86_64-pc-linux-gnu/6.3.0/ -mtune=generic -march=x86-64 -g -O0
REM seed -711594094 -1587121465 -1195738848 589978341 -2037555900 1449571730 582526715 1557788711 -2139773570 -62055391 1442323751 -1677092340
REM
REM C.POTCAR (d86ddea03c3ceb6dc662c8ad6801f873)
REM 
CELL 1.54180   15.00000   15.00000   15.00000   90.00000   90.00000   90.00000
LATT -1
SFAC C  
C      1  0.6331806128216  0.4456608449971  0.3311717714454 1.0
C      1  0.7835374306515  0.4473412909017  0.5308887880052 1.0
C      1  0.4084098984475  0.3447914363264  0.6328911615876 1.0
C      1  0.5489103226421  0.6642568851558  0.4021399985845 1.0
C      1  0.6842192254018  0.5272426462099  0.3404268262169 1.0
C      1  0.4539468682703  0.5145190232836  0.4571110985143 1.0
C      1  0.3949583486199  0.6930281613977  0.4729343012575 1.0
C      1  0.6701410361951  0.4553468652568  0.6617010129891 1.0
C      1  0.5003324165199  0.3630234138200  0.3061998299699 1.0
C      1  0.5401081474027  0.5186934990129  0.5137592163507 1.0
C      1  0.7038097104855  0.6205489930204  0.6271899599685 1.0
C      1  0.6499337369405  0.5946391413014  0.2853308255511 1.0
C      1  0.4196223073813  0.6506453190822  0.3162035339591 1.0
C      1  0.6365312108168  0.3642534766377  0.3829229941380 1.0
C      1  0.5132424420115  0.2782493759998  0.4396791998313 1.0
C      1  0.4119911097313  0.3509877157692  0.3374208700873 1.0
C      1  0.3065561902415  0.4032474141445  0.4682838111873 1.0
C      1  0.4307845805517  0.6920006589400  0.5653938764110 1.0
C      1  0.3300883373723  0.4970605242645  0.6730882000114 1.0
C      1  0.5701213304627  0.3109089288980  0.6092032417572 1.0
C      1  0.5774175983645  0.2927489970209  0.5150925000365 1.0
C      1  0.7334702828645  0.5656621649073  0.4129183751254 1.0
C      1  0.5402030856039  0.4462783521307  0.2813687836056 1.0
C      1  0.3821116984739  0.5034917414237  0.2794817492366 1.0
C      1  0.6545103435806  0.5510449036842  0.6793450366203 1.0
C      1  0.6012183483762  0.7270796853129  0.5468220119439 1.0
C      1  0.6499714623845  0.6984742590984  0.6274709253150 1.0
C      1  0.5664666213891  0.6782746365984  0.6685401729594 1.0
C      1  0.3988742455531  0.4490376881721  0.4924366091810 1.0
C      1  0.3136109152197  0.6403753306545  0.4719846837919 1.0
C      1  0.6582190790319  0.3382520382148  0.4749075870550 1.0
C      1  0.3981255739106  0.5653896657709  0.6854238655260 1.0
C      1  0.3771909998332  0.6320634261254  0.6169764117061 1.0
C      1  0.4968894059982  0.3167638570590  0.6737043800048 1.0
C      1  0.5677657220948  0.5890712248763  0.7048695689939 1.0
C      1  0.7470242728805  0.6086514910326  0.5439383580137 1.0
C      1  0.5157210040651  0.7163125476423  0.5937711522951 1.0
C      1  0.6237991659217  0.6966213334003  0.4613406812365 1.0
C      1  0.4433287858459  0.4157881672960  0.5680768499691 1.0
C      1  0.3443038427083  0.3075795591085  0.4808606251425 1.0
C      1  0.3498941857305  0.4219137590826  0.3172559023638 1.0
C      1  0.2749289625698  0.3644507466252  0.6119515144225 1.0
C      1  0.4163483112547  0.2953616028170  0.4204689438246 1.0
C      1  0.3365690177845  0.2996879202143  0.5747090079789 1.0
C      1  0.2515907127488  0.4355650270378  0.5491772880437 1.0
C      1  0.5283771487255  0.4550987947664  0.5787102528175 1.0
C      1  0.7384246809087  0.4186499606738  0.6086459256098 1.0
C      1  0.2869445225620  0.5911513114842  0.3926557572270 1.0
C      1  0.7758745254099  0.5321778958850  0.4950384705819 1.0
C      1  0.5576681171787  0.3153514152737  0.3644310269118 1.0
C      1  0.2797224609210  0.4355930981337  0.3800796847901 1.0
C      1  0.4493792031773  0.6954389104153  0.3952763164630 1.0
C      1  0.5100878235040  0.3787055672812  0.7445684360866 1.0
C      1  0.5230865276507  0.5727373290886  0.4433690910861 1.0
C      1  0.2749293576860  0.5186471116949  0.5943563662783 1.0
C      1  0.4768691626123  0.5161270333911  0.2573267942396 1.0
C      1  0.5953612663788  0.4064046906393  0.6293502473096 1.0
C      1  0.4891157110248  0.4575874502351  0.7647787102961 1.0
C      1  0.4921757903214  0.6119442250177  0.2674170907852 1.0
C      1  0.2348190261221  0.5126768444563  0.4015621061772 1.0
C      1  0.5750608827088  0.6389159544873  0.3040800437335 1.0
C      1  0.3031357434343  0.6025168539080  0.5612132913497 1.0
C      1  0.7050258867733  0.6456736197570  0.4595964062147 1.0
C      1  0.3335275498426  0.4012512039218  0.6792539510749 1.0
C      1  0.7286412860653  0.3697969237918  0.5257133076936 1.0
C      1  0.4840304232037  0.5434865276038  0.7278804016950 1.0
C      1  0.3477640966327  0.5876813383680  0.3178628193637 1.0
END
