TITL C-130697-9583-20 -2.782 3375.00 -479.80845577 0 0 59 (C1) n - 1
REM
REM Run started: at 2020.12.04 21:08:09 in /rds/project/t2_vol4/rds-t2-cs072/BORA/CARBON/AIRSS/Generating-Clusters/Str-Search/Only-C1/C10-100
REM VASP from code version vasp.5.4.4.18Apr17-6-g9f103f2a35 (build Oct 11 2019 16:45:47) gamma-only
REM
REM
REM
REM
REM ./C.cell (67c5d0192afd7a3ce4a0888e5fe73b87)
REM AIRSS Version 0.9.1 bugfix July 2018 build 013d7b7c2542+ Fri, 06 Jul 2018 19:26:36 +0100
REM compiler GCC version 4.8.5 20150623 (Red Hat 4.8.5-39)
REM options -cpp -mtune=generic -march=x86-64 -g -O0
REM seed -1272884065 -310578553 -1463025064 -418687413 719539284 1824186 1820573629 -533846695 745975334 -1116318795 -141858729 1915836250
REM
REM C.POTCAR (d86ddea03c3ceb6dc662c8ad6801f873)
REM 
CELL 1.54180   15.00000   15.00000   15.00000   90.00000   90.00000   90.00000
LATT -1
SFAC C  
C      1  0.4548694538534  0.3128787939583  0.3544034857841 1.0
C      1  0.5637748852173  0.7061544380780  0.5034704038747 1.0
C      1  0.4683520647849  0.7098158534411  0.5289251093538 1.0
C      1  0.6828246435189  0.5287735790822  0.5369224930591 1.0
C      1  0.6183883824356  0.6709593260243  0.5751342343008 1.0
C      1  0.3942670963693  0.6377787326589  0.6625768837228 1.0
C      1  0.3130666844906  0.6179553562984  0.6119658630661 1.0
C      1  0.4409450431584  0.3555464942413  0.6379541200663 1.0
C      1  0.3712179888268  0.3347823635573  0.3959401744893 1.0
C      1  0.6083061655706  0.2743835861548  0.4992668271563 1.0
C      1  0.3956969186513  0.5035248679779  0.3023911542447 1.0
C      1  0.6657282760505  0.4356594655646  0.3739375359887 1.0
C      1  0.5110960904464  0.2557452878714  0.5005556474077 1.0
C      1  0.6084616698031  0.3586261674652  0.3477028621823 1.0
C      1  0.5369759114123  0.7568162169416  0.2749668884052 1.0
C      1  0.5484475769093  0.7037486265166  0.3440114015492 1.0
C      1  0.3120429104664  0.4834679447665  0.3523606620199 1.0
C      1  0.3538233201755  0.3141202774137  0.4910693671861 1.0
C      1  0.5746776548567  0.5926106578167  0.7159387191755 1.0
C      1  0.4801210212123  0.5372404716702  0.5169389746130 1.0
C      1  0.2839984714499  0.6467837477691  0.5295167484892 1.0
C      1  0.5475433731795  0.4577189046751  0.5097655792982 1.0
C      1  0.3665385063795  0.4107022211167  0.6509575222718 1.0
C      1  0.3026489636996  0.4044173451665  0.3985243820353 1.0
C      1  0.3179210885930  0.4484860732028  0.5679175327088 1.0
C      1  0.6886146225256  0.6218976378279  0.5264588130752 1.0
C      1  0.6337349890888  0.4796679139434  0.4613897676045 1.0
C      1  0.4082604468873  0.4770126568473  0.5215949197133 1.0
C      1  0.6211695349129  0.5251478380347  0.3729121401594 1.0
C      1  0.5617489432036  0.6590333070520  0.6497213639057 1.0
C      1  0.6110869120059  0.7048480333211  0.4194357554577 1.0
C      1  0.4688054609553  0.6813091868408  0.6226479838417 1.0
C      1  0.5888699563268  0.4091934410446  0.5947542651426 1.0
C      1  0.7433082070272  0.5002940448553  0.3465359465898 1.0
C      1  0.5467283962580  0.4597337916393  0.7310944443296 1.0
C      1  0.5361454675993  0.5415346219937  0.3368399354297 1.0
C      1  0.3071814796246  0.5799397496881  0.3771575428059 1.0
C      1  0.2887343479223  0.3833237740172  0.4972392460762 1.0
C      1  0.4983179231476  0.5446895473715  0.7521499371265 1.0
C      1  0.4629605784660  0.4047889782807  0.4958287466482 1.0
C      1  0.7114234158897  0.3789254129701  0.6067120869317 1.0
C      1  0.4835939726461  0.6218905511464  0.3677019912491 1.0
C      1  0.4852996865324  0.4687135520208  0.3046318133523 1.0
C      1  0.2917843918382  0.5260241373402  0.6312474246028 1.0
C      1  0.6904637740268  0.6530982627409  0.4325390911180 1.0
C      1  0.7070051871154  0.5799404011088  0.3718080215032 1.0
C      1  0.3925936664363  0.5935731633189  0.3326101608881 1.0
C      1  0.6257148879282  0.5115493171072  0.7023428883810 1.0
C      1  0.4814157112694  0.6284095301187  0.4750141949174 1.0
C      1  0.2742151690339  0.6224712265805  0.4502075785328 1.0
C      1  0.5171383017250  0.3780134644012  0.3148341695676 1.0
C      1  0.5082487849732  0.2525808263186  0.4043261036574 1.0
C      1  0.6028487238361  0.2810953881258  0.4011248418604 1.0
C      1  0.3489202333764  0.4929046897359  0.6987170003016 1.0
C      1  0.6648336875895  0.4760311371415  0.6206886415082 1.0
C      1  0.4119312299210  0.5625712695080  0.7239634392879 1.0
C      1  0.4410419502190  0.3134474073706  0.5442113077214 1.0
C      1  0.5253029303092  0.3937491184333  0.6690881600059 1.0
C      1  0.6488227678717  0.3339000223259  0.5593557042584 1.0
END
