TITL C-130697-9583-37 -2.399 3375.00 -380.78604208 0 0 48 (C1) n - 1
REM
REM Run started: at 2020.12.05 01:52:21 in /rds/project/t2_vol4/rds-t2-cs072/BORA/CARBON/AIRSS/Generating-Clusters/Str-Search/Only-C1/C10-100
REM VASP from code version vasp.5.4.4.18Apr17-6-g9f103f2a35 (build Oct 11 2019 16:45:47) gamma-only
REM
REM
REM
REM
REM ./C.cell (67c5d0192afd7a3ce4a0888e5fe73b87)
REM AIRSS Version 0.9.1 bugfix July 2018 build 013d7b7c2542+ Fri, 06 Jul 2018 19:26:36 +0100
REM compiler GCC version 4.8.5 20150623 (Red Hat 4.8.5-39)
REM options -cpp -mtune=generic -march=x86-64 -g -O0
REM seed -1510219623 -1578827703 939606123 1098468846 -165946971 221328394 1309846236 1152157562 -1031135999 -249428152 924988796 -1134843698
REM
REM C.POTCAR (d86ddea03c3ceb6dc662c8ad6801f873)
REM 
CELL 1.54180   15.00000   15.00000   15.00000   90.00000   90.00000   90.00000
LATT -1
SFAC C  
C      1  0.5586470918991  0.4948334355260  0.0981026431446 1.0
C      1  0.7321327746891  0.5439219156461  0.5525208426830 1.0
C      1  0.3629959256144  0.2938876092613  0.4587568586537 1.0
C      1  0.2859722395544  0.6891008316937  0.5085782414531 1.0
C      1  0.4518939016989  0.3530001627704  0.6179384060332 1.0
C      1  0.5304770235734  0.3562242887937  0.6652832751694 1.0
C      1  0.5481237452383  0.4114411398616  0.1036625115105 1.0
C      1  0.4047435446806  0.6876159233301  0.6471226154963 1.0
C      1  0.3139484092078  0.5472269259249  0.4610049122925 1.0
C      1  0.5599124061914  0.5692651337513  0.1475021087811 1.0
C      1  0.5608308131207  0.4058434736966  0.4378905209977 1.0
C      1  0.5400546737842  0.3755636353926  0.2689224187111 1.0
C      1  0.3178477952444  0.2623612340767  0.5440084902169 1.0
C      1  0.4162120616828  0.4429504090915  0.5993642270143 1.0
C      1  0.6496801431197  0.6034874401210  0.5817743293704 1.0
C      1  0.6824508851938  0.4640038392291  0.5521105192104 1.0
C      1  0.6017224178871  0.3340307980536  0.4894248986439 1.0
C      1  0.4660166934326  0.6456238491166  0.7098880271507 1.0
C      1  0.6086260537193  0.6936415916897  0.4472836040800 1.0
C      1  0.5548549268221  0.5928295599007  0.3215555759601 1.0
C      1  0.4535432990402  0.2653537184107  0.4754734879568 1.0
C      1  0.5883487987899  0.6645542540141  0.3737459006700 1.0
C      1  0.5376610716755  0.4214310774929  0.3495185881450 1.0
C      1  0.3875107504463  0.5724839409384  0.5135866217170 1.0
C      1  0.6136224559471  0.6897199396912  0.5399998201631 1.0
C      1  0.5462509581773  0.7196862691533  0.5957607875895 1.0
C      1  0.3744195480882  0.6676726852255  0.5518447065415 1.0
C      1  0.5426049571599  0.2660395937855  0.4768702068287 1.0
C      1  0.6613565688804  0.3690019629336  0.5610138545213 1.0
C      1  0.3521570235165  0.4665204963494  0.6690525583242 1.0
C      1  0.4508265732157  0.5021322113701  0.5353405031749 1.0
C      1  0.3114288621514  0.4563057804266  0.4315350246723 1.0
C      1  0.6131229943082  0.5248727096554  0.5325551356113 1.0
C      1  0.5793626459468  0.4318156693443  0.7003866245793 1.0
C      1  0.5645347150784  0.5226997244128  0.7168916251773 1.0
C      1  0.4078388069411  0.2852204540736  0.5636568004351 1.0
C      1  0.5536061453850  0.6724709295717  0.6804823286091 1.0
C      1  0.5435919622984  0.3740447590315  0.1860989119947 1.0
C      1  0.4729357682012  0.5569223221687  0.7402918404548 1.0
C      1  0.6237104993215  0.3639398451026  0.6476697504648 1.0
C      1  0.5305073044942  0.5173402199453  0.3718695972309 1.0
C      1  0.6117379834999  0.5994953157916  0.6763980555595 1.0
C      1  0.3988231750911  0.5024650790221  0.7291302639370 1.0
C      1  0.5590687712306  0.5894732158895  0.2282036822710 1.0
C      1  0.5359163263049  0.4971887258556  0.4746573559349 1.0
C      1  0.3322095942915  0.3766827688562  0.4222322562517 1.0
C      1  0.2562774562337  0.6264726552476  0.4621315696826 1.0
C      1  0.4498814579311  0.7311406793131  0.5809068149286 1.0
END
