TITL C-13391-138-42 -3.73 3375.00 -646.10788836 0 0 79 () n - 1
REM
REM Run started: at 2020.12.23 19:50:32 in /gpfs/home/chem/mssmkc/CARBON/AIRSS/Generating-Clusters/Str-Search/Only-C1/C10-100
REM VASP from code version vasp.5.4.4.18Apr17-6-g9f103f2a35 (build Oct 11 2019 16:45:47) gamma-only
REM
REM
REM
REM
REM ./C.cell (67c5d0192afd7a3ce4a0888e5fe73b87)
REM AIRSS Version 0.9.1 bugfix July 2018 build 013d7b7c2542+ Fri, 06 Jul 2018 19:26:36 +0100
REM compiler GCC version 6.3.0
REM options -cpp -iprefix /gpfs/warwick/csc/orac/software/Core/GCCcore/6.3.0/bin/../lib/gcc/x86_64-pc-linux-gnu/6.3.0/ -mtune=generic -march=x86-64 -g -O0
REM seed 1251850998 2048786905 -497877120 1067057098 935536348 1964543242 328288446 1162780536 -945023819 1894531579 1696975072 1368459675
REM
REM C.POTCAR (d86ddea03c3ceb6dc662c8ad6801f873)
REM 
CELL 1.54180   15.00000   15.00000   15.00000   90.00000   90.00000   90.00000
LATT -1
SFAC C  
C      1  0.6496462409804  0.3364152852899  0.5510779739799 1.0
C      1  0.4254171630125  0.7268270317291  0.4699186716655 1.0
C      1  0.4836831982858  0.7267829299371  0.6213903454027 1.0
C      1  0.5399908312814  0.4469496174140  0.2537528507455 1.0
C      1  0.2716343407803  0.6124049697612  0.3747230337303 1.0
C      1  0.6014414852801  0.2952624099275  0.4752128132301 1.0
C      1  0.2523984538090  0.6268977241281  0.5404571451126 1.0
C      1  0.4646165403755  0.6187434795208  0.7521200896535 1.0
C      1  0.6888562422662  0.4698105291917  0.2977956051828 1.0
C      1  0.3841245266584  0.5900497114359  0.2948412495090 1.0
C      1  0.6082597196417  0.7805700630629  0.4168093936367 1.0
C      1  0.1835920033509  0.4048315418584  0.4351483792004 1.0
C      1  0.3412222113523  0.6683900629189  0.3368146832316 1.0
C      1  0.5636035789719  0.4178223652473  0.7619131480069 1.0
C      1  0.5829948387279  0.7188424026401  0.3458943564011 1.0
C      1  0.6882008921559  0.7493416872858  0.4548538009280 1.0
C      1  0.7948634856919  0.5220438804310  0.4108166389884 1.0
C      1  0.5429434790659  0.3819054250223  0.4579256988174 1.0
C      1  0.5871802377112  0.4681525978963  0.4389298070072 1.0
C      1  0.6640120788359  0.3098933367074  0.3939749608410 1.0
C      1  0.4841698736938  0.5377733166818  0.8021982064025 1.0
C      1  0.4440375147909  0.2302865256627  0.4659837454952 1.0
C      1  0.5806028811106  0.3710735421618  0.6131400014238 1.0
C      1  0.4160962971098  0.3177405917004  0.5973903574928 1.0
C      1  0.4109437765339  0.7209656645284  0.3722295430299 1.0
C      1  0.5211693702007  0.2162092072750  0.6048249852727 1.0
C      1  0.7252247383839  0.4757823187147  0.5709780765878 1.0
C      1  0.7586523153721  0.5949762818164  0.4588604891355 1.0
C      1  0.3712235520392  0.2657796071178  0.5270039119195 1.0
C      1  0.4785143119771  0.3870684714074  0.2964616576549 1.0
C      1  0.7316325717306  0.5697792116384  0.5467406201514 1.0
C      1  0.4058955001916  0.4128090489553  0.7245382436124 1.0
C      1  0.5181487362967  0.4247954988122  0.5501755159675 1.0
C      1  0.3216074609479  0.5339266432833  0.3427536423084 1.0
C      1  0.5775178201430  0.7394397792792  0.5901447492082 1.0
C      1  0.2842972084360  0.3105267098238  0.5212700410132 1.0
C      1  0.2204836868660  0.3319674154708  0.4537179730520 1.0
C      1  0.6087214319472  0.6644281060842  0.6484829102370 1.0
C      1  0.7193721626015  0.6704870387378  0.4115887786098 1.0
C      1  0.4883037733947  0.6634753919883  0.4834464945891 1.0
C      1  0.5181095335488  0.2999640633403  0.3125777989830 1.0
C      1  0.5313219037107  0.2236231203473  0.5113717750143 1.0
C      1  0.7190429349650  0.3909613915033  0.5219664079946 1.0
C      1  0.6594749059375  0.6565074321509  0.3375904085522 1.0
C      1  0.5047488295203  0.3055663570871  0.6481613554421 1.0
C      1  0.5639387983378  0.4945892186784  0.8166466761515 1.0
C      1  0.3976912569236  0.7288692782778  0.5681676159255 1.0
C      1  0.6158308368545  0.3170878782192  0.3096007237114 1.0
C      1  0.7320061483808  0.3707862028236  0.4236511028698 1.0
C      1  0.4029187636070  0.4986002279402  0.7624374254501 1.0
C      1  0.6162762044865  0.7707073498535  0.5125530511871 1.0
C      1  0.4951691144751  0.6909792403481  0.3246521507650 1.0
C      1  0.4869951028731  0.3624087340853  0.7332063166604 1.0
C      1  0.3214191304341  0.6785006654074  0.5923903891313 1.0
C      1  0.4774254860592  0.6044277158266  0.2831205223037 1.0
C      1  0.6312405033245  0.5029322298138  0.3720699100450 1.0
C      1  0.2412546835918  0.4705005483778  0.5672600314975 1.0
C      1  0.3629373822858  0.3888991996872  0.6375004415910 1.0
C      1  0.5153107461143  0.5911915392127  0.5131946843938 1.0
C      1  0.5457435781980  0.5097824691339  0.5113024052562 1.0
C      1  0.3900059877180  0.4270747349350  0.4573237170493 1.0
C      1  0.5163038968333  0.6675602840749  0.6914737556493 1.0
C      1  0.2545452750644  0.5562517184910  0.6058617235401 1.0
C      1  0.4550907558955  0.2781290180743  0.3848721157018 1.0
C      1  0.7587126974650  0.4492654274119  0.3703227663931 1.0
C      1  0.6193863358463  0.4262216792344  0.6867621224528 1.0
C      1  0.6701958040233  0.5946024791608  0.6277986468425 1.0
C      1  0.4210131295882  0.4133078616198  0.5538805114689 1.0
C      1  0.3217715825284  0.4748998531767  0.4193755777281 1.0
C      1  0.4541602289935  0.3797598695454  0.3977508265298 1.0
C      1  0.2298379004079  0.5929486537942  0.4556959781477 1.0
C      1  0.2302213454223  0.4884839689582  0.4673140262637 1.0
C      1  0.6260640136001  0.4018712540469  0.2648197412781 1.0
C      1  0.2763961968582  0.3857179134818  0.5894330712279 1.0
C      1  0.3748954322783  0.5835864436671  0.7264792548115 1.0
C      1  0.5469552964360  0.5426423392957  0.2645519334474 1.0
C      1  0.6739773319987  0.4955989694894  0.6501751505179 1.0
C      1  0.6402154027728  0.5658950852314  0.2985124201744 1.0
C      1  0.3160992106390  0.6080704616511  0.6618747794161 1.0
END
