TITL C-139784-8517-13 -8.36 3375.00 -1431.53101616 0 0 175 (C1) n - 1
REM
REM Run started: at 2021.01.21 15:16:15 in /rds/project/t2_vol4/rds-t2-cs072/BORA/CARBON/AIRSS/Generating-Clusters/Str-Search/Only-C1/C100-200
REM VASP from code version vasp.5.4.4.18Apr17-6-g9f103f2a35 (build Oct 11 2019 16:45:47) gamma-only
REM
REM
REM
REM
REM ./C.cell (efaf0b2bf1589a83377268d7ebe2c73f)
REM AIRSS Version 0.9.1 bugfix July 2018 build 013d7b7c2542+ Fri, 06 Jul 2018 19:26:36 +0100
REM compiler GCC version 4.8.5 20150623 (Red Hat 4.8.5-39)
REM options -cpp -mtune=generic -march=x86-64 -g -O0
REM seed 2007495014 -2052819031 -761222070 2103165197 658857974 -194787021 262884502 -1533854945 -175134364 -1296691543 776939287 560758301
REM
REM C.POTCAR (d86ddea03c3ceb6dc662c8ad6801f873)
REM 
CELL 1.54180   15.00000   15.00000   15.00000   90.00000   90.00000   90.00000
LATT -1
SFAC C  
C      1  0.6950757064401  0.7266381960629  0.1889697754200 1.0
C      1  0.2700305302948  0.2950275068010  0.8679850358602 1.0
C      1  0.6295451498368  0.4902343381984  0.7824429327551 1.0
C      1  0.4927099916439  0.6769978747735  0.6697332711017 1.0
C      1  0.1961588291592  0.3808614188549  0.2518327761528 1.0
C      1  0.5231743359846  0.7485396573241  0.8387071168521 1.0
C      1  0.2931277013314  0.7573294138428  0.2756201390760 1.0
C      1  0.7843373147089  0.2571757715350  0.3498533091977 1.0
C      1  0.5480019214958  0.8084302864645  0.2372619485515 1.0
C      1  0.1282920128567  0.5457008259420  0.4663022264677 1.0
C      1  0.6377574711314  0.2376631901888  0.4246702430955 1.0
C      1  0.5105809469129  0.1798042747030  0.7249223964047 1.0
C      1  0.4519767723843  0.2572669218140  0.7112185644471 1.0
C      1  0.2553256628516  0.7373927422646  0.6600436989997 1.0
C      1  0.4083318055304  0.2935463162853  0.4440195043169 1.0
C      1  0.6621959140410  0.6611545914353  0.1220656067580 1.0
C      1  0.1407297370989  0.5313351501197  0.5614694352497 1.0
C      1  0.2642449310305  0.2394396511942  0.3415175914056 1.0
C      1  0.4810537805838  0.3043782376558  0.3769131183591 1.0
C      1  0.6416808201091  0.6444886252177  0.8223053931300 1.0
C      1  0.3995660256845  0.6331781856687  0.5003478162585 1.0
C      1  0.6891019349738  0.5683419789593  0.7912247893775 1.0
C      1  0.4691845806629  0.4921062703969  0.5070268060734 1.0
C      1  0.6713180844611  0.4912300281305  0.1245518881593 1.0
C      1  0.3378144206580  0.3608280435364  0.1652261948355 1.0
C      1  0.2351671821488  0.2349349257682  0.6240202957357 1.0
C      1  0.3936159896319  0.4388281058536  0.6790977641936 1.0
C      1  0.5032988660183  0.2334933740785  0.2323583934430 1.0
C      1  0.2624782677018  0.3236199480990  0.4761017262723 1.0
C      1  0.1673179293982  0.3724507087132  0.6005516830658 1.0
C      1  0.8607410682888  0.5263636900507  0.5156463862963 1.0
C      1  0.5618487197712  0.2828694743407  0.1719445246321 1.0
C      1  0.7824552563829  0.3279611956634  0.2845293415307 1.0
C      1  0.3278197000017  0.5947483562425  0.5521553995396 1.0
C      1  0.3710120051784  0.7257736947131  0.8709969576188 1.0
C      1  0.5649046071930  0.4724174978687  0.5272069719322 1.0
C      1  0.4996053117477  0.6862533853904  0.1117615922865 1.0
C      1  0.2501107998564  0.3870754047272  0.7395336875492 1.0
C      1  0.2663374954584  0.2264608866251  0.4451530388729 1.0
C      1  0.5570311392899  0.4824562386267  0.3406237072371 1.0
C      1  0.7853059284523  0.3610944987733  0.6726771154560 1.0
C      1  0.3992367232988  0.3618427421824  0.2417707467393 1.0
C      1  0.7482767280705  0.3693564619968  0.4365442954353 1.0
C      1  0.1654997967363  0.6247544274720  0.5766384167171 1.0
C      1  0.6696308955164  0.7307288987686  0.7970131572007 1.0
C      1  0.2673152448300  0.6988449427752  0.2062190377042 1.0
C      1  0.4582576140044  0.8389273672370  0.6298084856203 1.0
C      1  0.6271858824476  0.6136880224555  0.6087828781495 1.0
C      1  0.4367125525765  0.3863949198602  0.9023802645747 1.0
C      1  0.5458970043157  0.6510361358485  0.8426841799375 1.0
C      1  0.5453286207215  0.2248509735306  0.3824842472983 1.0
C      1  0.2484031692519  0.3653370759035  0.1707634277524 1.0
C      1  0.6552286833782  0.3348414580987  0.4662783645751 1.0
C      1  0.3786897730887  0.8100638645374  0.2892768684433 1.0
C      1  0.5569467799537  0.1780518615989  0.6333115021531 1.0
C      1  0.3601278066337  0.1339711459974  0.5846701991091 1.0
C      1  0.1563323161426  0.6381890931283  0.4754359679875 1.0
C      1  0.8235533563744  0.5273285220291  0.6726703649326 1.0
C      1  0.7870764791363  0.6712888000891  0.7067135101886 1.0
C      1  0.6123717850734  0.8412275534379  0.7094075092269 1.0
C      1  0.7263987339755  0.6753222273616  0.3864020089590 1.0
C      1  0.7031158756313  0.8121571831567  0.6717542904482 1.0
C      1  0.4390145133493  0.7779248390412  0.8668793795020 1.0
C      1  0.5600551672231  0.1921507580736  0.2912418361179 1.0
C      1  0.5822023507514  0.6710588132419  0.6509487214762 1.0
C      1  0.2081328241272  0.2394535126152  0.5284103706062 1.0
C      1  0.3755624018188  0.4496478343847  0.4818074366148 1.0
C      1  0.6149125534218  0.6361496110066  0.4531831848270 1.0
C      1  0.7969405669582  0.6974911645875  0.3234773850702 1.0
C      1  0.1764549001918  0.3300225767163  0.5149565213267 1.0
C      1  0.2397360844001  0.5270131260429  0.3307074936878 1.0
C      1  0.7740063986510  0.4132802761977  0.3456412712373 1.0
C      1  0.3204031691981  0.5038152352394  0.5401822415516 1.0
C      1  0.6551921501477  0.1686466006460  0.6362959446308 1.0
C      1  0.8249247533181  0.6492640622060  0.3966046867646 1.0
C      1  0.6876316425130  0.4206172428223  0.1952925728956 1.0
C      1  0.2388798881304  0.4778347410044  0.6852825120362 1.0
C      1  0.2340449871560  0.6238002726766  0.1893376646958 1.0
C      1  0.6736047781264  0.4110110590039  0.7716416136321 1.0
C      1  0.2138948508712  0.3210360834386  0.6647834659179 1.0
C      1  0.8526410245636  0.5569449453166  0.4232676450317 1.0
C      1  0.4296752756596  0.2781502636282  0.2883830067075 1.0
C      1  0.2234190998796  0.3529731993437  0.8292750290217 1.0
C      1  0.8309546882152  0.4376861776210  0.6427608225381 1.0
C      1  0.2671486301416  0.5773224741502  0.7091560844019 1.0
C      1  0.3586467313836  0.3901173649524  0.7558553479245 1.0
C      1  0.4539481579355  0.7899720121739  0.2358838195222 1.0
C      1  0.4194754973316  0.1508817993573  0.5168451335590 1.0
C      1  0.7787273021763  0.5953661432964  0.1997773363136 1.0
C      1  0.6580271525842  0.3198220813542  0.5673119736017 1.0
C      1  0.6995177531180  0.2342197984893  0.5966377287310 1.0
C      1  0.5341201523659  0.3638918266265  0.1335100261113 1.0
C      1  0.3144685619050  0.5924147547020  0.8007687328306 1.0
C      1  0.7702267862400  0.5813741705697  0.7371059088792 1.0
C      1  0.7613439028170  0.3090256113006  0.5948243297102 1.0
C      1  0.5854188949160  0.9152681889162  0.5721695921068 1.0
C      1  0.7351117167823  0.7955403933333  0.5811625006504 1.0
C      1  0.1537304925045  0.6033045981779  0.3281966849275 1.0
C      1  0.4435464629264  0.4721787460753  0.4149771011238 1.0
C      1  0.3212031588463  0.4604153689771  0.6270147523906 1.0
C      1  0.6436668112128  0.5206063915744  0.3306263729950 1.0
C      1  0.3949014083205  0.6704264192546  0.4167103360134 1.0
C      1  0.5854183925240  0.4046215522301  0.4573194821608 1.0
C      1  0.1807048395790  0.6756115755200  0.3891519972906 1.0
C      1  0.5340484746558  0.1828506608705  0.8172118588880 1.0
C      1  0.3003828702200  0.1704267459779  0.6307092226434 1.0
C      1  0.5966782555049  0.7924325071584  0.7918847546619 1.0
C      1  0.6263831171015  0.7840277256433  0.2215714664588 1.0
C      1  0.4411304579233  0.5335225394696  0.2508067139665 1.0
C      1  0.4728964887650  0.5841066115746  0.5437901411069 1.0
C      1  0.6210014789962  0.8730602510401  0.5083927103150 1.0
C      1  0.4391031287631  0.6307701959869  0.2482827427744 1.0
C      1  0.6537665629023  0.1991261275586  0.2703540689282 1.0
C      1  0.7037813610403  0.2077071447486  0.3506985069773 1.0
C      1  0.7379386596213  0.3614848538206  0.7521302406575 1.0
C      1  0.3070616531833  0.6726785836541  0.8444552056640 1.0
C      1  0.8531420158942  0.4351953196367  0.5492870826345 1.0
C      1  0.3562295363408  0.2178282726573  0.3335486141062 1.0
C      1  0.4854631484079  0.4872737244775  0.6827034334397 1.0
C      1  0.5681144564689  0.1831913966479  0.4671889877920 1.0
C      1  0.6581105420497  0.2613404111648  0.1982571570581 1.0
C      1  0.5520831049537  0.4376057655298  0.6198994451996 1.0
C      1  0.3490599335199  0.6123445045763  0.6491107521967 1.0
C      1  0.6750183707994  0.8000616102823  0.5045927734271 1.0
C      1  0.4333191766397  0.3894084078056  0.1425748418920 1.0
C      1  0.4441430193162  0.2946100502473  0.8999721854119 1.0
C      1  0.2502074411519  0.7342059519951  0.3606917249483 1.0
C      1  0.5776651869164  0.5824559377823  0.5284455048771 1.0
C      1  0.2083721729241  0.6548738336037  0.6548359354658 1.0
C      1  0.3946373323257  0.4413759027467  0.8411989791243 1.0
C      1  0.8079865046323  0.7380208479524  0.5622780083167 1.0
C      1  0.4889682319377  0.5739292232295  0.8278186810326 1.0
C      1  0.7917052730685  0.5295723677594  0.2657564543433 1.0
C      1  0.7126039308063  0.4692209087826  0.2811007740387 1.0
C      1  0.3685970779951  0.2028808472738  0.4378034856451 1.0
C      1  0.5261545702955  0.2766160789105  0.6551692926685 1.0
C      1  0.8126971132653  0.3512639919643  0.5127249286783 1.0
C      1  0.4089890828404  0.8655588379567  0.4643813316858 1.0
C      1  0.1671915148799  0.4712485379982  0.2824695836188 1.0
C      1  0.6042203433498  0.4308309583195  0.1391384570589 1.0
C      1  0.1828771448716  0.5653704492393  0.2444182634356 1.0
C      1  0.3437676804978  0.7132077093803  0.6617093170004 1.0
C      1  0.4690631958177  0.5367050356372  0.3470381579317 1.0
C      1  0.3866836090402  0.2944052426281  0.7634378762680 1.0
C      1  0.8308842523748  0.5007796800646  0.3482371334984 1.0
C      1  0.7239796227265  0.3296358299530  0.2092211870528 1.0
C      1  0.8148070176603  0.2940527701026  0.4344870144456 1.0
C      1  0.5771065672074  0.6712172991386  0.0863636588936 1.0
C      1  0.4255244373194  0.4524292002030  0.2163142823696 1.0
C      1  0.5337910948577  0.5064197179931  0.7734534073694 1.0
C      1  0.4481042102197  0.7019070417283  0.1872565015101 1.0
C      1  0.8524068896962  0.5799122907877  0.5982051639660 1.0
C      1  0.4212206013192  0.8597578088413  0.5482565785954 1.0
C      1  0.5468031344208  0.8768815407540  0.6480404207931 1.0
C      1  0.5159549432027  0.4002904871665  0.3884286920290 1.0
C      1  0.6662457161830  0.7162699476442  0.4535431689311 1.0
C      1  0.3939986756787  0.5400199571048  0.8317540559221 1.0
C      1  0.5151233068764  0.1613278426331  0.5382227914273 1.0
C      1  0.4511439543191  0.5864973870587  0.6467322205514 1.0
C      1  0.6593190771158  0.5994214909583  0.3761699537243 1.0
C      1  0.7078757467310  0.5783067453035  0.1345658641094 1.0
C      1  0.3592653886818  0.2687525054964  0.8553788601124 1.0
C      1  0.7729732593896  0.6878365778530  0.2302450863624 1.0
C      1  0.1350617852586  0.5191407538867  0.3710115643170 1.0
C      1  0.3796421566917  0.8274245406155  0.3878189454757 1.0
C      1  0.5149027014106  0.2332927207094  0.8814376360722 1.0
C      1  0.4319757021706  0.7493424389140  0.6623878792733 1.0
C      1  0.5799656271631  0.3488414580069  0.6242933449927 1.0
C      1  0.2212749437871  0.3099843130981  0.2994408294108 1.0
C      1  0.1636260127517  0.4643002755886  0.6190239121112 1.0
C      1  0.7365735721766  0.7454513050062  0.7327975956123 1.0
C      1  0.3310629630061  0.7451863505280  0.4097760982894 1.0
C      1  0.3519244229436  0.3563034738028  0.4786947756078 1.0
C      1  0.8298962512020  0.6703176609075  0.6188305064359 1.0
C      1  0.4427331019492  0.6334550882088  0.3448058741470 1.0
END
