TITL C-13391-138-157 -3.95 3375.00 -658.00046197 0 0 81 () n - 1
REM
REM Run started: at 2020.12.24 22:39:23 in /gpfs/home/chem/mssmkc/CARBON/AIRSS/Generating-Clusters/Str-Search/Only-C1/C10-100
REM VASP from code version vasp.5.4.4.18Apr17-6-g9f103f2a35 (build Oct 11 2019 16:45:47) gamma-only
REM
REM
REM
REM
REM ./C.cell (67c5d0192afd7a3ce4a0888e5fe73b87)
REM AIRSS Version 0.9.1 bugfix July 2018 build 013d7b7c2542+ Fri, 06 Jul 2018 19:26:36 +0100
REM compiler GCC version 6.3.0
REM options -cpp -iprefix /gpfs/warwick/csc/orac/software/Core/GCCcore/6.3.0/bin/../lib/gcc/x86_64-pc-linux-gnu/6.3.0/ -mtune=generic -march=x86-64 -g -O0
REM seed 884303216 -1269743337 181618656 -2045627682 1852713665 1037250873 1274527959 -993845877 -419780671 -1349911134 758035731 -26546186
REM
REM C.POTCAR (d86ddea03c3ceb6dc662c8ad6801f873)
REM 
CELL 1.54180   15.00000   15.00000   15.00000   90.00000   90.00000   90.00000
LATT -1
SFAC C  
C      1  0.5610897822815  0.3657671323293  0.4100667569678 1.0
C      1  0.5228279280704  0.3203139446066  0.5802830287727 1.0
C      1  0.5996999939008  0.4405757553994  0.7564734231126 1.0
C      1  0.5371633441635  0.7066651543071  0.2984093868573 1.0
C      1  0.7079626374387  0.3858810031010  0.4931655599624 1.0
C      1  0.3757134235563  0.5339139325966  0.4687926883910 1.0
C      1  0.6572685858343  0.6246082959588  0.3784844944184 1.0
C      1  0.6581166485442  0.3920883015021  0.4092349176662 1.0
C      1  0.2293913227778  0.4152313148097  0.5390697507356 1.0
C      1  0.4928753076875  0.3240964251874  0.7375443676954 1.0
C      1  0.5943851958602  0.2652260532275  0.6001841195630 1.0
C      1  0.4251400591518  0.3227539697538  0.4679620374680 1.0
C      1  0.4327001746448  0.5196495202172  0.1803041256671 1.0
C      1  0.3922643420480  0.4467695264474  0.1899793498484 1.0
C      1  0.5708177700385  0.5629223539166  0.2522012705295 1.0
C      1  0.2630885463078  0.6037706234671  0.3916310014035 1.0
C      1  0.3879249846192  0.5648734373320  0.8220529790451 1.0
C      1  0.7849248018671  0.6146828178703  0.5220250632835 1.0
C      1  0.6930536344031  0.4780584718625  0.5243426941929 1.0
C      1  0.2171859468963  0.4619833644153  0.6212790090679 1.0
C      1  0.3808882458516  0.7053688350141  0.2516840310703 1.0
C      1  0.4541387766272  0.5490662668884  0.5151867627969 1.0
C      1  0.4714122790737  0.7197627473796  0.5476378786657 1.0
C      1  0.4953154854810  0.4590759628463  0.6398961272427 1.0
C      1  0.6176642023366  0.7469926256252  0.6169599997065 1.0
C      1  0.2553308610443  0.6219861426855  0.6300350423198 1.0
C      1  0.4266402458437  0.7710215309805  0.3969102964250 1.0
C      1  0.2721775291319  0.3280790440133  0.5386459406172 1.0
C      1  0.7287257203532  0.3233984268580  0.6438635963010 1.0
C      1  0.6269891148226  0.6680054604157  0.4588130101886 1.0
C      1  0.3570236250048  0.2693914190142  0.3689810571631 1.0
C      1  0.5463116672654  0.2616740028090  0.3967722857032 1.0
C      1  0.6091362702423  0.5123112167374  0.5379535935536 1.0
C      1  0.2930720084271  0.6914247586065  0.3916768559333 1.0
C      1  0.4938981378572  0.6280859108942  0.5465814030633 1.0
C      1  0.7023096611728  0.7067935877496  0.6175212558515 1.0
C      1  0.4497659650767  0.2568953261089  0.3995988657244 1.0
C      1  0.3340867453990  0.3055920231247  0.4657535423752 1.0
C      1  0.2968460346813  0.2921587643331  0.6203036926973 1.0
C      1  0.4905643404370  0.5876509400921  0.2052107494218 1.0
C      1  0.5904898266576  0.3460977281969  0.7495957209395 1.0
C      1  0.3991830891773  0.7504131492749  0.4886195673886 1.0
C      1  0.5148615278236  0.4722383879632  0.5408772204526 1.0
C      1  0.5959218409580  0.6107595256021  0.5454242719878 1.0
C      1  0.5184637726810  0.4271959838785  0.3398541341823 1.0
C      1  0.2322607452245  0.5387602750576  0.6514252273582 1.0
C      1  0.7239845503954  0.3116206160752  0.5452765211578 1.0
C      1  0.5275362949554  0.5115397295699  0.7224491669326 1.0
C      1  0.6256663360073  0.6452986247089  0.6394818234911 1.0
C      1  0.3750621222295  0.3835790148464  0.2587605867660 1.0
C      1  0.6037917428385  0.6392528220600  0.3005828400776 1.0
C      1  0.5795970948563  0.7498394481563  0.4533682537108 1.0
C      1  0.3459496275271  0.2773133487124  0.6879460688045 1.0
C      1  0.7112262342628  0.5459449209034  0.3869224186035 1.0
C      1  0.3639607397084  0.4834646817264  0.3879171683146 1.0
C      1  0.6672079179446  0.4679765961385  0.3529748720394 1.0
C      1  0.4852876454866  0.3703772551483  0.6519495231096 1.0
C      1  0.7527481288339  0.5437350452672  0.4760354355516 1.0
C      1  0.6530632036689  0.2456980552447  0.5215156055706 1.0
C      1  0.5840344519227  0.4804884377146  0.3010111131628 1.0
C      1  0.4150140375219  0.2803971704527  0.7435043474802 1.0
C      1  0.4672474858356  0.6776150866304  0.2369668012923 1.0
C      1  0.3584249976132  0.7369099398802  0.3358027011028 1.0
C      1  0.2769355817703  0.5679082644156  0.4835766265727 1.0
C      1  0.3138928649706  0.7138640628157  0.4875621042806 1.0
C      1  0.4211564261889  0.4363244347762  0.3324112443168 1.0
C      1  0.6698369149116  0.5041352197715  0.7378511094243 1.0
C      1  0.6128006657234  0.5725333690072  0.7065487312332 1.0
C      1  0.6441995626115  0.2974648353748  0.6800623911354 1.0
C      1  0.4555888675431  0.5443501691713  0.7771617406068 1.0
C      1  0.7784133365610  0.6780755048719  0.5783458113785 1.0
C      1  0.2769602800406  0.6511113533500  0.5497964947301 1.0
C      1  0.5193918612551  0.7592278415271  0.3761890640808 1.0
C      1  0.7571177442743  0.4689304676681  0.7240978360824 1.0
C      1  0.5060024029030  0.3764625938035  0.4979169399592 1.0
C      1  0.2639764127838  0.5038118649101  0.3780759674755 1.0
C      1  0.5564786845257  0.7690642182159  0.5488794678984 1.0
C      1  0.6114787514757  0.2227053720820  0.4454510987426 1.0
C      1  0.2292901160984  0.4816097033065  0.4720028750514 1.0
C      1  0.3410119388008  0.3054281507437  0.2868233848249 1.0
C      1  0.7685928272106  0.3959102404959  0.6855135112611 1.0
END
