TITL C-13391-138-37 -0.668 3375.00 -96.89198836 0 0 13 () n - 1
REM
REM Run started: at 2020.12.23 18:50:01 in /gpfs/home/chem/mssmkc/CARBON/AIRSS/Generating-Clusters/Str-Search/Only-C1/C10-100
REM VASP from code version vasp.5.4.4.18Apr17-6-g9f103f2a35 (build Oct 11 2019 16:45:47) gamma-only
REM
REM
REM
REM
REM ./C.cell (67c5d0192afd7a3ce4a0888e5fe73b87)
REM AIRSS Version 0.9.1 bugfix July 2018 build 013d7b7c2542+ Fri, 06 Jul 2018 19:26:36 +0100
REM compiler GCC version 6.3.0
REM options -cpp -iprefix /gpfs/warwick/csc/orac/software/Core/GCCcore/6.3.0/bin/../lib/gcc/x86_64-pc-linux-gnu/6.3.0/ -mtune=generic -march=x86-64 -g -O0
REM seed -1428001092 -1030050562 1125634552 -2013171455 -139239027 618881462 1475641980 2079739569 -1693792132 2144534501 247591114 -1513199473
REM
REM C.POTCAR (d86ddea03c3ceb6dc662c8ad6801f873)
REM 
CELL 1.54180   15.00000   15.00000   15.00000   90.00000   90.00000   90.00000
LATT -1
SFAC C  
C      1  0.4041790182625  0.5948564148178  0.5441865471586 1.0
C      1  0.3732974389817  0.4392255868115  0.4672878900273 1.0
C      1  0.3630826757750  0.5085969211327  0.5243552293893 1.0
C      1  0.5353986941465  0.3729388299569  0.4707069000080 1.0
C      1  0.6145880799119  0.3797947787484  0.5000397187642 1.0
C      1  0.5249656178662  0.7037900963834  0.4845378174995 1.0
C      1  0.3392898132883  0.5539776463893  0.6023358254644 1.0
C      1  0.3687898274510  0.3747251912030  0.4027986587415 1.0
C      1  0.7759496781442  0.3988983052608  0.5605853277559 1.0
C      1  0.5889868015627  0.7546823885074  0.4541812499905 1.0
C      1  0.4521585054297  0.3789984744943  0.4449478762684 1.0
C      1  0.4634076872198  0.6516390785202  0.5145454987294 1.0
C      1  0.6959061619604  0.3878761877742  0.5294915602030 1.0
END
