TITL C-13391-138-140 -4.503 3375.00 -749.83884538 0 0 94 () n - 1
REM
REM Run started: at 2020.12.24 18:36:57 in /gpfs/home/chem/mssmkc/CARBON/AIRSS/Generating-Clusters/Str-Search/Only-C1/C10-100
REM VASP from code version vasp.5.4.4.18Apr17-6-g9f103f2a35 (build Oct 11 2019 16:45:47) gamma-only
REM
REM
REM
REM
REM ./C.cell (67c5d0192afd7a3ce4a0888e5fe73b87)
REM AIRSS Version 0.9.1 bugfix July 2018 build 013d7b7c2542+ Fri, 06 Jul 2018 19:26:36 +0100
REM compiler GCC version 6.3.0
REM options -cpp -iprefix /gpfs/warwick/csc/orac/software/Core/GCCcore/6.3.0/bin/../lib/gcc/x86_64-pc-linux-gnu/6.3.0/ -mtune=generic -march=x86-64 -g -O0
REM seed 1119938243 -338926307 -61820280 1686959350 -352320614 501232081 453354980 -1767892481 186199903 1023247777 -566489399 -435752010
REM
REM C.POTCAR (d86ddea03c3ceb6dc662c8ad6801f873)
REM 
CELL 1.54180   15.00000   15.00000   15.00000   90.00000   90.00000   90.00000
LATT -1
SFAC C  
C      1  0.7733656715718  0.4695183289440  0.3716690946261 1.0
C      1  0.5602455037355  0.4979231528160  0.7963904752287 1.0
C      1  0.2458324741781  0.4951802589578  0.6991943697880 1.0
C      1  0.1946426339585  0.5764081518646  0.4993769486001 1.0
C      1  0.6247449798467  0.5328935994429  0.7297021363172 1.0
C      1  0.4141164635436  0.5941649558396  0.3882319510085 1.0
C      1  0.7423018531650  0.7531674449459  0.5674248884280 1.0
C      1  0.4398195154740  0.4593950442328  0.6479690095006 1.0
C      1  0.6934111405154  0.4010659540502  0.6737798799167 1.0
C      1  0.4032826845157  0.5931992345336  0.2886947574666 1.0
C      1  0.6252116283384  0.4830201831068  0.2588370390177 1.0
C      1  0.3520359172733  0.4615577362303  0.2698577292674 1.0
C      1  0.5378363923646  0.6461893611757  0.6307443362014 1.0
C      1  0.5252925143974  0.4159971200118  0.6177457003203 1.0
C      1  0.4462190661952  0.4992891797516  0.2648812348537 1.0
C      1  0.4049527430457  0.4920811872065  0.5591948865056 1.0
C      1  0.5330156931667  0.4571861657960  0.2777310081788 1.0
C      1  0.4819992543374  0.3537535841847  0.5470969196048 1.0
C      1  0.6326378066666  0.6394896412031  0.3850706898231 1.0
C      1  0.3619222854347  0.7179875143234  0.6571274588536 1.0
C      1  0.3275282393696  0.2315652403669  0.3772050008907 1.0
C      1  0.2985333246250  0.6585409087835  0.6176317421119 1.0
C      1  0.6216258165826  0.4811865477948  0.4901677367752 1.0
C      1  0.5299111989783  0.2460344945407  0.4440011797391 1.0
C      1  0.5793478245310  0.6336732806087  0.1884352823286 1.0
C      1  0.4760500482768  0.8019522826438  0.5313074189255 1.0
C      1  0.7810601648334  0.4016519410423  0.4399165421266 1.0
C      1  0.7014125466306  0.4383259938201  0.3051130049101 1.0
C      1  0.3254533291272  0.5464181736387  0.5716611825464 1.0
C      1  0.7985810751331  0.6134644324842  0.4645332634383 1.0
C      1  0.7962262873361  0.5534370805256  0.4058262868074 1.0
C      1  0.2832139948430  0.3108414684668  0.3655047045498 1.0
C      1  0.6313841022599  0.7788435050235  0.4626497664997 1.0
C      1  0.1836258899167  0.4854739255829  0.4854544871771 1.0
C      1  0.3271082698184  0.6116924544328  0.4224696634237 1.0
C      1  0.8075258627622  0.3978361143536  0.5315932556453 1.0
C      1  0.4859770507404  0.5417295721202  0.5202763072216 1.0
C      1  0.1879742830023  0.5457970983350  0.4085449948468 1.0
C      1  0.5050966970387  0.2337811362993  0.6443808167350 1.0
C      1  0.5647806999834  0.2295950030727  0.3576460111317 1.0
C      1  0.6636424180927  0.7986194181081  0.5590666584825 1.0
C      1  0.7696692804640  0.3845647143653  0.6155816014658 1.0
C      1  0.3430506021496  0.3869633347657  0.3366574436274 1.0
C      1  0.2786608024426  0.5658778656541  0.6526728926783 1.0
C      1  0.2874797175786  0.6169406697018  0.5168186743939 1.0
C      1  0.6281237353422  0.3838619584181  0.4720041853393 1.0
C      1  0.4811533234649  0.4612264996429  0.3618527510711 1.0
C      1  0.5834793742208  0.5679547467046  0.6479764458636 1.0
C      1  0.4972453331350  0.5434370528007  0.4196427739168 1.0
C      1  0.5821850963487  0.2009470813120  0.2688023354498 1.0
C      1  0.6701476415346  0.6467413138451  0.2151555937156 1.0
C      1  0.3129334041594  0.5462050370993  0.2815675275391 1.0
C      1  0.4963468368932  0.7217703080635  0.6772005308676 1.0
C      1  0.8640082316595  0.3935765044220  0.6075747410228 1.0
C      1  0.5544010047836  0.3266098147609  0.4865972729880 1.0
C      1  0.2916307192991  0.4189896996242  0.7074327383834 1.0
C      1  0.6366876253865  0.5557921490615  0.2026017152624 1.0
C      1  0.4671989130701  0.7055173627262  0.4985033496324 1.0
C      1  0.5528883852775  0.4006227588091  0.7812703223396 1.0
C      1  0.4367545589920  0.7684791970317  0.4384752561078 1.0
C      1  0.4903808401941  0.5563381366783  0.8127538284586 1.0
C      1  0.4960449733173  0.6353630936474  0.5443540518795 1.0
C      1  0.4079744753694  0.4064294195468  0.3999993409176 1.0
C      1  0.2618555800707  0.5743126277260  0.3587719633533 1.0
C      1  0.5720904824167  0.2720167994366  0.6731280734644 1.0
C      1  0.3415941168669  0.2915852305012  0.6102302817613 1.0
C      1  0.5651314937517  0.4981159726352  0.5701475690529 1.0
C      1  0.4224556327967  0.6849848586644  0.7305010622986 1.0
C      1  0.4464871769730  0.2156708826298  0.4839843580065 1.0
C      1  0.6797410892310  0.3499284669184  0.3298260098887 1.0
C      1  0.4421653727912  0.6934957275259  0.2874166105307 1.0
C      1  0.5304169592532  0.6888767129290  0.2514129357753 1.0
C      1  0.4382965877418  0.6192790785876  0.7915743165053 1.0
C      1  0.4373306705126  0.7724060760347  0.6181478761313 1.0
C      1  0.5998632257137  0.5581824532535  0.4213790518361 1.0
C      1  0.6107834434320  0.6781604385725  0.2982431010328 1.0
C      1  0.6226480156608  0.2800689922382  0.3053985373024 1.0
C      1  0.2510899223677  0.3361013513747  0.4532886920223 1.0
C      1  0.3875763780145  0.4274396599975  0.7125853179463 1.0
C      1  0.5776838571792  0.8173632686910  0.5249841710700 1.0
C      1  0.3776112518120  0.1890187818637  0.4303510631272 1.0
C      1  0.3102475465588  0.3504867506250  0.5327443572411 1.0
C      1  0.3996373326664  0.3997798292903  0.5019726879922 1.0
C      1  0.6818442685710  0.7075112853248  0.4322957772812 1.0
C      1  0.5941317018735  0.3670455453582  0.6861884871360 1.0
C      1  0.4362641563998  0.2597050206557  0.5785917219712 1.0
C      1  0.3245645106459  0.3205063001862  0.6984065280814 1.0
C      1  0.6968666324642  0.4815024790507  0.7132489787309 1.0
C      1  0.4055153023049  0.3427092373921  0.7585073251681 1.0
C      1  0.4815732644054  0.3486861886586  0.8030242597927 1.0
C      1  0.7048407745611  0.3481438997308  0.4245444710023 1.0
C      1  0.2204278805767  0.4014275485320  0.5059639309698 1.0
C      1  0.7531479487117  0.6906389146656  0.4945291671604 1.0
C      1  0.4287267029872  0.7607130316074  0.3490102236271 1.0
END
