TITL C-130697-9583-9 -3.335 3375.00 -573.57480919 0 0 70 (C1) n - 1
REM
REM Run started: at 2020.12.04 18:11:45 in /rds/project/t2_vol4/rds-t2-cs072/BORA/CARBON/AIRSS/Generating-Clusters/Str-Search/Only-C1/C10-100
REM VASP from code version vasp.5.4.4.18Apr17-6-g9f103f2a35 (build Oct 11 2019 16:45:47) gamma-only
REM
REM
REM
REM
REM ./C.cell (67c5d0192afd7a3ce4a0888e5fe73b87)
REM AIRSS Version 0.9.1 bugfix July 2018 build 013d7b7c2542+ Fri, 06 Jul 2018 19:26:36 +0100
REM compiler GCC version 4.8.5 20150623 (Red Hat 4.8.5-39)
REM options -cpp -mtune=generic -march=x86-64 -g -O0
REM seed 558869350 1870582224 665897229 -822524934 640612758 864008637 983991287 699076762 -584003660 -911851627 -1121311256 -1251460186
REM
REM C.POTCAR (d86ddea03c3ceb6dc662c8ad6801f873)
REM 
CELL 1.54180   15.00000   15.00000   15.00000   90.00000   90.00000   90.00000
LATT -1
SFAC C  
C      1  0.6711527538626  0.4961477462336  0.2938197183506 1.0
C      1  0.2361042890836  0.5395481678921  0.5404741994277 1.0
C      1  0.3801187405987  0.3297548493786  0.6870353821182 1.0
C      1  0.4344933204335  0.6593510473578  0.3249073442210 1.0
C      1  0.3869802297149  0.3691511014617  0.3509248913401 1.0
C      1  0.6518183249624  0.5816972549479  0.3291700837882 1.0
C      1  0.6646762051101  0.5701954157911  0.6349890229296 1.0
C      1  0.4773707757150  0.4092990114973  0.5534074681619 1.0
C      1  0.3924963831570  0.6267173950571  0.6915204727741 1.0
C      1  0.6557244300192  0.3629392450969  0.3047192915449 1.0
C      1  0.7707366829432  0.4811480337787  0.4776657091753 1.0
C      1  0.3013235984010  0.6058263409532  0.3990269186323 1.0
C      1  0.3081181722250  0.3621284280556  0.3999006263986 1.0
C      1  0.4025337910674  0.4693508408468  0.5709032470394 1.0
C      1  0.6404266571827  0.7033782625234  0.4232683479478 1.0
C      1  0.5578953873474  0.2852343512900  0.5319268364842 1.0
C      1  0.3232345009418  0.6766190670254  0.5386837863833 1.0
C      1  0.5760556500152  0.6347279812010  0.2978291141210 1.0
C      1  0.3146688415470  0.3176179574641  0.4872606879573 1.0
C      1  0.5378847878070  0.6003662943597  0.5325976100392 1.0
C      1  0.4682459852146  0.3008755075068  0.5659845300542 1.0
C      1  0.3988650471337  0.4731781333898  0.3343668038830 1.0
C      1  0.5870013302951  0.5362190527555  0.5792803169336 1.0
C      1  0.7594046596737  0.4158012106068  0.4116677046502 1.0
C      1  0.5579265113355  0.6792152522542  0.6803746450933 1.0
C      1  0.6973662476369  0.3609737016457  0.5508637889787 1.0
C      1  0.5527948861813  0.4383500705074  0.7037398237637 1.0
C      1  0.6374192269858  0.3221702138392  0.3891772400904 1.0
C      1  0.3735674041335  0.6713384738441  0.3915501001793 1.0
C      1  0.5530714668424  0.7429981799473  0.4402209908447 1.0
C      1  0.6183816630874  0.3204212817348  0.5960850118226 1.0
C      1  0.7448694920262  0.5741367341217  0.4791656491067 1.0
C      1  0.4598094056313  0.5106605851371  0.2607540266705 1.0
C      1  0.4012469274794  0.2861230903217  0.4938757893389 1.0
C      1  0.2665058453415  0.6151544792939  0.4870028453427 1.0
C      1  0.4043775565045  0.5330936561828  0.7192721161963 1.0
C      1  0.2768749396728  0.5513610942769  0.6235221093774 1.0
C      1  0.4675765047524  0.3086694017988  0.6650084312918 1.0
C      1  0.5794641258604  0.7149071260575  0.3522033420725 1.0
C      1  0.7421278421556  0.5937594926051  0.5769701956829 1.0
C      1  0.6901966537660  0.6195890521241  0.4135403144627 1.0
C      1  0.3185227266479  0.3822591116430  0.6420344050585 1.0
C      1  0.3441244441869  0.4825388343002  0.6534326263670 1.0
C      1  0.7278617787400  0.4274737317670  0.3241501430156 1.0
C      1  0.4764716665922  0.5702430472752  0.4670304990322 1.0
C      1  0.7452126481510  0.5145326178685  0.6257455808388 1.0
C      1  0.4843336883744  0.4977233800387  0.7504136037792 1.0
C      1  0.6106225415022  0.6020465425358  0.7093549689698 1.0
C      1  0.5727072245372  0.5263919565042  0.7546700776973 1.0
C      1  0.6040393813629  0.4300631500425  0.2560746391178 1.0
C      1  0.5519240910625  0.3133142619767  0.4351839637706 1.0
C      1  0.4608365709177  0.4869770648853  0.4179200701671 1.0
C      1  0.4039453775632  0.5216143032277  0.4954347705758 1.0
C      1  0.5619704989804  0.3370443138617  0.6831622677810 1.0
C      1  0.3082970957228  0.5155259426655  0.3663630128436 1.0
C      1  0.5185536079630  0.4458077099622  0.2345088862898 1.0
C      1  0.7490292952226  0.4402740273336  0.5648312774325 1.0
C      1  0.2619674116896  0.4454248835792  0.4118828886896 1.0
C      1  0.2346145357132  0.4505053387034  0.5048392623996 1.0
C      1  0.4970112201998  0.4034565102965  0.4547670299189 1.0
C      1  0.3235492397572  0.6351989761174  0.6276777783205 1.0
C      1  0.3915189965892  0.7145673464682  0.4806895946796 1.0
C      1  0.4697284455062  0.6767216652360  0.6718940569587 1.0
C      1  0.4845577906763  0.7426369500690  0.5039057992465 1.0
C      1  0.2694915503873  0.3732069818505  0.5545754988983 1.0
C      1  0.5459110148518  0.4574502054503  0.6057921191844 1.0
C      1  0.4851513907722  0.6053992816717  0.2713349889821 1.0
C      1  0.4521972464287  0.3202868538537  0.4138569131236 1.0
C      1  0.5184708870588  0.6853291882146  0.5820739603255 1.0
C      1  0.7064706889979  0.3457910404389  0.4517432818653 1.0
END
