TITL C-13391-138-177 -3.431 3375.00 -580.44492876 0 0 71 () n - 1
REM
REM Run started: at 2020.12.25 03:36:01 in /gpfs/home/chem/mssmkc/CARBON/AIRSS/Generating-Clusters/Str-Search/Only-C1/C10-100
REM VASP from code version vasp.5.4.4.18Apr17-6-g9f103f2a35 (build Oct 11 2019 16:45:47) gamma-only
REM
REM
REM
REM
REM ./C.cell (67c5d0192afd7a3ce4a0888e5fe73b87)
REM AIRSS Version 0.9.1 bugfix July 2018 build 013d7b7c2542+ Fri, 06 Jul 2018 19:26:36 +0100
REM compiler GCC version 6.3.0
REM options -cpp -iprefix /gpfs/warwick/csc/orac/software/Core/GCCcore/6.3.0/bin/../lib/gcc/x86_64-pc-linux-gnu/6.3.0/ -mtune=generic -march=x86-64 -g -O0
REM seed 396431071 -592344889 566235056 1083691192 -1708099684 -802574336 -1428603922 343814631 -1305928644 -1221338716 -1645606103 313937914
REM
REM C.POTCAR (d86ddea03c3ceb6dc662c8ad6801f873)
REM 
CELL 1.54180   15.00000   15.00000   15.00000   90.00000   90.00000   90.00000
LATT -1
SFAC C  
C      1  0.4869190300893  0.5855092512749  0.3156849447776 1.0
C      1  0.4425992956422  0.4544752657869  0.3926312168570 1.0
C      1  0.7075080303129  0.3304341786906  0.5579897630236 1.0
C      1  0.7469581575725  0.3719965559421  0.4833792922816 1.0
C      1  0.6700704219049  0.3833727806458  0.6371038296371 1.0
C      1  0.6269619182372  0.7775408551111  0.5494860205660 1.0
C      1  0.4377499779155  0.3819495407049  0.3241512075080 1.0
C      1  0.2929671471250  0.5901019559373  0.5897758677749 1.0
C      1  0.4815646119067  0.2662158912832  0.6242931158625 1.0
C      1  0.4704793217424  0.6585951355972  0.4587206546697 1.0
C      1  0.5778406424538  0.5632564372500  0.3368110578790 1.0
C      1  0.3376216367725  0.6399318396281  0.3672593587936 1.0
C      1  0.7309261793516  0.5727498251404  0.3261022775521 1.0
C      1  0.5358519366825  0.6003631757757  0.6596857242568 1.0
C      1  0.3254678277900  0.2776254573014  0.4585413896782 1.0
C      1  0.4636014545023  0.4344528355401  0.6715414209340 1.0
C      1  0.7178125492812  0.5281153016710  0.7152639811304 1.0
C      1  0.3734738363968  0.4700259808252  0.6605927623371 1.0
C      1  0.4205527866549  0.2511813966685  0.4632390065124 1.0
C      1  0.4142495250367  0.5234105788635  0.3287646754947 1.0
C      1  0.3218780441117  0.5555100411491  0.3276829396747 1.0
C      1  0.6025540978614  0.3506436176173  0.3607400584823 1.0
C      1  0.7660837379780  0.5948935694816  0.4998304761753 1.0
C      1  0.7119122937297  0.5835351697080  0.4244107845748 1.0
C      1  0.6588720076407  0.5079478364382  0.3020904653600 1.0
C      1  0.7367536068289  0.6750074470095  0.6389781644011 1.0
C      1  0.5353378712247  0.4987945963704  0.6300514751789 1.0
C      1  0.7052583840868  0.7399308757978  0.3954740272575 1.0
C      1  0.6749880592227  0.7727727650368  0.4668115606245 1.0
C      1  0.3173658309038  0.6610296833853  0.5296788578583 1.0
C      1  0.5973072622179  0.4344933848023  0.5828424709143 1.0
C      1  0.2784365786858  0.6600871733894  0.4413930717726 1.0
C      1  0.1937971334128  0.6189513620899  0.4417533541365 1.0
C      1  0.6682477814374  0.4199857741199  0.3435271545588 1.0
C      1  0.2701341873689  0.3561945435277  0.5812434829980 1.0
C      1  0.7843492099255  0.6408526142059  0.5657538833111 1.0
C      1  0.4958906136039  0.5389936017927  0.5438748477005 1.0
C      1  0.2230268555273  0.3831923124109  0.4991163663640 1.0
C      1  0.4488724110179  0.6104772088120  0.6061881802133 1.0
C      1  0.2784501987996  0.4004782779573  0.3457181973732 1.0
C      1  0.4374660119089  0.6495650507693  0.3724287678544 1.0
C      1  0.5957932288904  0.3262703405593  0.6760229328910 1.0
C      1  0.5829204246807  0.3120686367637  0.4565728091634 1.0
C      1  0.1963222238259  0.5273998707787  0.4231359038316 1.0
C      1  0.6975965524715  0.6173931722353  0.7024410264130 1.0
C      1  0.5152415377281  0.3247574932136  0.3363410717254 1.0
C      1  0.2879735207092  0.4363087531160  0.6277678893738 1.0
C      1  0.6351287127794  0.2727760061570  0.5345886417486 1.0
C      1  0.6075037835131  0.6539060315000  0.6790735642515 1.0
C      1  0.4153934233264  0.6842873391013  0.5409431250230 1.0
C      1  0.7148199409992  0.4501616226705  0.6904040738372 1.0
C      1  0.5773947257613  0.2592830870808  0.6106853189911 1.0
C      1  0.4978349336191  0.2733933356862  0.4172380516530 1.0
C      1  0.5343789940054  0.7975877056557  0.5512916218028 1.0
C      1  0.2523155529498  0.4938764412092  0.3516124252194 1.0
C      1  0.5438953077822  0.6051114753931  0.4851320353214 1.0
C      1  0.4994207568174  0.3466482224243  0.6839024920290 1.0
C      1  0.6540737152671  0.7250996242724  0.6235171686214 1.0
C      1  0.6099076735630  0.5843464918643  0.4232778954831 1.0
C      1  0.7388496119784  0.3996932594062  0.4051383036081 1.0
C      1  0.5549487347098  0.4010130122270  0.5062844709782 1.0
C      1  0.3246555637458  0.2844110886316  0.5551719367209 1.0
C      1  0.2632205986659  0.3432343022658  0.4227879687846 1.0
C      1  0.3519269609891  0.3720039099049  0.2965661543189 1.0
C      1  0.7232694388068  0.6603048666998  0.3531240189774 1.0
C      1  0.2385045997982  0.5100319183598  0.5823803228725 1.0
C      1  0.1960334746103  0.4743053793687  0.5037595452989 1.0
C      1  0.3698753449464  0.5633074519063  0.6404944819248 1.0
C      1  0.4555422872617  0.7738971670801  0.5597738091719 1.0
C      1  0.4822376642864  0.4597008183510  0.4765667329796 1.0
C      1  0.4148623466472  0.2527804306079  0.5633978526742 1.0
END
