TITL C-133672-9435-4 -9.054 3375.00 -1610.21755211 0 0 196 (C1) n - 1
REM
REM Run started: at 2021.01.11 10:23:58 in /rds/project/t2_vol4/rds-t2-cs072/BORA/CARBON/AIRSS/Generating-Clusters/Str-Search/Only-C1/C100-200
REM VASP from code version vasp.5.4.4.18Apr17-6-g9f103f2a35 (build Oct 11 2019 16:45:47) gamma-only
REM
REM
REM
REM
REM ./C.cell (efaf0b2bf1589a83377268d7ebe2c73f)
REM AIRSS Version 0.9.1 bugfix July 2018 build 013d7b7c2542+ Fri, 06 Jul 2018 19:26:36 +0100
REM compiler GCC version 4.8.5 20150623 (Red Hat 4.8.5-39)
REM options -cpp -mtune=generic -march=x86-64 -g -O0
REM seed -1824458675 2075798831 1047889847 -1034081654 1629556729 -1544499241 -1826601297 1095580548 -1088430436 -34971181 590952362 -2028517236
REM
REM C.POTCAR (d86ddea03c3ceb6dc662c8ad6801f873)
REM 
CELL 1.54180   15.00000   15.00000   15.00000   90.00000   90.00000   90.00000
LATT -1
SFAC C  
C      1  0.2088417328903  0.5611739085120  0.7569616378128 1.0
C      1  0.4969242448544  0.5093954754987  0.3403897763397 1.0
C      1  0.2373329436633  0.3155636801843  0.6998690839015 1.0
C      1  0.4484163464237  0.4858966455088  0.1720186638890 1.0
C      1  0.7499875503987  0.6705133671371  0.6255969911568 1.0
C      1  0.2742712051167  0.2850257969734  0.4663287501674 1.0
C      1  0.3657272629082  0.4950348466038  0.5078547958727 1.0
C      1  0.7594539270134  0.2354263643571  0.4203677087639 1.0
C      1  0.2015690584750  0.6582497040769  0.6698659434485 1.0
C      1  0.8666290678474  0.5188280600420  0.7590929946032 1.0
C      1  0.4114283743301  0.8911387087669  0.2562477043808 1.0
C      1  0.6034108827147  0.6479394491207  0.7106431668401 1.0
C      1  0.4230373792270  0.5728504231132  0.8884445398938 1.0
C      1  0.6707101728664  0.4360323907584  0.5018676338814 1.0
C      1  0.2398876926707  0.6591119973365  0.7564724662343 1.0
C      1  0.1336267173771  0.5287268802020  0.6048144636676 1.0
C      1  0.3828839117579  0.3260477734125  0.1432865135460 1.0
C      1  0.3077153259392  0.2978272102533  0.2802977368000 1.0
C      1  0.4979107595987  0.5860457359270  0.4043539287709 1.0
C      1  0.7235807091806  0.3406574081525  0.8257596846952 1.0
C      1  0.5596034964163  0.6238401285350  0.1642781340964 1.0
C      1  0.6983955144005  0.6948596872997  0.7161666041884 1.0
C      1  0.6010011817392  0.2950802860342  0.4842830005396 1.0
C      1  0.4263547520760  0.7110709556501  0.5373703555311 1.0
C      1  0.2248021677565  0.6360840555627  0.5091510338968 1.0
C      1  0.7511637096983  0.6401412776861  0.7879572619255 1.0
C      1  0.6661961200665  0.1615307387702  0.6677260150830 1.0
C      1  0.6037250614942  0.6184967128533  0.8660578245438 1.0
C      1  0.8368063294848  0.4179870049694  0.4034283811590 1.0
C      1  0.5701239089076  0.3945939498574  0.2496556085562 1.0
C      1  0.3265573097988  0.7763564840974  0.6808080878559 1.0
C      1  0.1270478526087  0.6849861378517  0.5101871141642 1.0
C      1  0.7925397912937  0.3741006030009  0.3271100803581 1.0
C      1  0.7441748739162  0.4126103357628  0.2590553047549 1.0
C      1  0.6866139386629  0.1769587932618  0.4239641190328 1.0
C      1  0.5069785388136  0.3669138563139  0.6870009547477 1.0
C      1  0.2133951770854  0.6015938543556  0.2389859483574 1.0
C      1  0.4043426826890  0.6564616130736  0.8681033869904 1.0
C      1  0.5771459812875  0.1344323965070  0.6844860853208 1.0
C      1  0.3822143425288  0.6694333152766  0.4493357550341 1.0
C      1  0.8386961629096  0.6281484115426  0.6513094486599 1.0
C      1  0.3204985172038  0.4596509322609  0.4382764714828 1.0
C      1  0.7792042517622  0.7439029989912  0.4217144077825 1.0
C      1  0.6793980515829  0.2645463452334  0.2885486815590 1.0
C      1  0.1570102335743  0.4367557156866  0.6171462879409 1.0
C      1  0.4181274491598  0.4746841851132  0.8690269367133 1.0
C      1  0.7438165387886  0.2911285327445  0.7513061574061 1.0
C      1  0.5361254011946  0.4399490458781  0.4053715803406 1.0
C      1  0.7320640802327  0.7920345053065  0.3476992652849 1.0
C      1  0.2878325316041  0.1178418483367  0.6648969714903 1.0
C      1  0.4283453189526  0.4743400952980  0.2723971245376 1.0
C      1  0.3815318154641  0.8789496499110  0.5229308362022 1.0
C      1  0.4991819424780  0.8454031014666  0.3793605162142 1.0
C      1  0.6823521970181  0.4187290829349  0.6420409384820 1.0
C      1  0.2535414241979  0.7424642673341  0.2984237716854 1.0
C      1  0.4388199072755  0.4010112488372  0.1241314507092 1.0
C      1  0.5012939394676  0.1371414688433  0.4576244827585 1.0
C      1  0.7615089083501  0.6115900945239  0.2742112332176 1.0
C      1  0.6592757508808  0.3812253919738  0.8605941949830 1.0
C      1  0.1755694835329  0.7368475035029  0.4432074191961 1.0
C      1  0.3033116566757  0.3280011883886  0.1962448393037 1.0
C      1  0.2042543241500  0.6864482249581  0.3620107568099 1.0
C      1  0.1627047094446  0.3841223122793  0.5356106686250 1.0
C      1  0.6600614758243  0.6262250141992  0.1542414057441 1.0
C      1  0.3760607237494  0.1450496214588  0.6752203373618 1.0
C      1  0.7179417429445  0.6816386258028  0.2037363212419 1.0
C      1  0.3766743048056  0.3750700723933  0.7430674995147 1.0
C      1  0.6235616272911  0.2051575723659  0.3500012175743 1.0
C      1  0.7697604206650  0.2995325199365  0.4974727290823 1.0
C      1  0.3631414646756  0.6290837654961  0.2471087048107 1.0
C      1  0.4063163462919  0.5419467902684  0.6486658165238 1.0
C      1  0.4208774982766  0.2386153542174  0.1343927970227 1.0
C      1  0.1472193107224  0.4236822624091  0.4507204455623 1.0
C      1  0.8818072282094  0.5207452199658  0.5270785770363 1.0
C      1  0.3990678361486  0.8386031126190  0.7015576277969 1.0
C      1  0.2554062098050  0.6810105333678  0.5919666722540 1.0
C      1  0.3685001935017  0.4691559114572  0.5981730578889 1.0
C      1  0.6757023097631  0.7827436204133  0.6632445998507 1.0
C      1  0.7472388030742  0.2664405943210  0.5916297972561 1.0
C      1  0.8329021653563  0.6023097828859  0.3505219880821 1.0
C      1  0.7576889597677  0.2832939962299  0.3386328607562 1.0
C      1  0.6367654991726  0.5679634230414  0.6655111078293 1.0
C      1  0.7292637928091  0.5122761128093  0.2444205929809 1.0
C      1  0.5595569359101  0.2094461079394  0.7458183536967 1.0
C      1  0.5278071533179  0.1059301763676  0.6086381950863 1.0
C      1  0.4964867437311  0.3530932303913  0.3849385508147 1.0
C      1  0.7197243191324  0.7767144719532  0.4919048962548 1.0
C      1  0.5846549892554  0.7953857951605  0.3683248015671 1.0
C      1  0.3512573559055  0.4668366091686  0.7841053637526 1.0
C      1  0.8007009772780  0.3048748137695  0.6719052322580 1.0
C      1  0.5767594197267  0.2954967155025  0.5713608351682 1.0
C      1  0.3802151278787  0.7386856775484  0.8218022509375 1.0
C      1  0.8339733292478  0.4358044692804  0.5625787683655 1.0
C      1  0.3205911507077  0.2908945224217  0.7464348343122 1.0
C      1  0.7091989765577  0.1698462635912  0.5870918845508 1.0
C      1  0.6787856847305  0.7630874394697  0.2612422197509 1.0
C      1  0.6901352080757  0.5330306984313  0.1563439588103 1.0
C      1  0.4500422572647  0.8601367097106  0.4532726747294 1.0
C      1  0.5699402076187  0.1079164402091  0.5204951034412 1.0
C      1  0.4503727861339  0.6713697521157  0.3746253002586 1.0
C      1  0.5917904279385  0.5761124615638  0.4556759506949 1.0
C      1  0.3049694234174  0.7240175797512  0.7658560265736 1.0
C      1  0.6445336880327  0.4686487960286  0.1131330249074 1.0
C      1  0.4223876426998  0.1606893446547  0.5072644811022 1.0
C      1  0.2816539474335  0.6709922336084  0.2357854344556 1.0
C      1  0.1528331804957  0.5794155276472  0.6783783658854 1.0
C      1  0.8499384107036  0.5159782392754  0.4232908448845 1.0
C      1  0.7316786020800  0.4715059579451  0.5707137223717 1.0
C      1  0.3201872369959  0.3666017614089  0.4208558362457 1.0
C      1  0.5804614701160  0.4779653791896  0.4900815176335 1.0
C      1  0.5274101977315  0.3941972506063  0.0855442132632 1.0
C      1  0.3757575772961  0.2528667241703  0.4917092400430 1.0
C      1  0.6629987820305  0.3459426278491  0.2342187407291 1.0
C      1  0.5116954061956  0.5465761965142  0.1288747781649 1.0
C      1  0.3520703912424  0.7095958473163  0.6072865200807 1.0
C      1  0.6692635148784  0.8149017428939  0.4141258881968 1.0
C      1  0.7277689983923  0.7627665153349  0.5857961915019 1.0
C      1  0.6824367868873  0.3489869575549  0.4782622164525 1.0
C      1  0.4769865038891  0.2473892847856  0.7709527723304 1.0
C      1  0.3261921520998  0.5444233430192  0.3852913244714 1.0
C      1  0.1280911017302  0.5353242310856  0.3489912217158 1.0
C      1  0.6601813777276  0.1385966601113  0.5083216615886 1.0
C      1  0.8735114680840  0.4446621248073  0.7226081194743 1.0
C      1  0.6294207220363  0.5319561029051  0.8860628686424 1.0
C      1  0.4480788322551  0.1524545600579  0.1147861536476 1.0
C      1  0.6963651951992  0.6020659004295  0.8559589572900 1.0
C      1  0.5498476304948  0.7070055718165  0.6526462730160 1.0
C      1  0.5133022553749  0.6568827184784  0.5739072157903 1.0
C      1  0.4554821054758  0.1986064759992  0.2959585652054 1.0
C      1  0.2492797900737  0.4773692552363  0.7603282978060 1.0
C      1  0.1773500473346  0.4627561782437  0.3045893356831 1.0
C      1  0.5816195880261  0.4682893429068  0.3159898572216 1.0
C      1  0.5475985022380  0.6307320744029  0.7912018259978 1.0
C      1  0.4949477361932  0.4220218457424  0.8524389336521 1.0
C      1  0.8852674491934  0.5880834105736  0.5846476855447 1.0
C      1  0.5785077171474  0.7952603419371  0.6500138054164 1.0
C      1  0.6682441805482  0.6258008032647  0.3250937096525 1.0
C      1  0.4705009163286  0.3663706851428  0.2873862489905 1.0
C      1  0.3877178307822  0.2180087258672  0.7410403050139 1.0
C      1  0.1366549352827  0.5805234449782  0.5141611546342 1.0
C      1  0.2917174024068  0.8368877636852  0.5156321889883 1.0
C      1  0.7730457064574  0.5786994766400  0.4326638473978 1.0
C      1  0.6572900441039  0.2489914249931  0.7159060975133 1.0
C      1  0.4350800045723  0.8773751121496  0.6179722969328 1.0
C      1  0.2535010092303  0.3216280526134  0.3633619104172 1.0
C      1  0.1226251921871  0.5163484925733  0.4395347599131 1.0
C      1  0.6574115098214  0.3155340769708  0.6298990361784 1.0
C      1  0.6274528372000  0.4771156717977  0.6885308595949 1.0
C      1  0.4457240718410  0.6706136898780  0.2803268120012 1.0
C      1  0.2127348217258  0.2591784752757  0.6231702609495 1.0
C      1  0.3405108773155  0.8754575577143  0.2977706239873 1.0
C      1  0.8497365731621  0.3859876683460  0.6548864346862 1.0
C      1  0.6063525465610  0.7034041993234  0.3057516312122 1.0
C      1  0.4548212097001  0.1811225126307  0.2056692294139 1.0
C      1  0.4380191059128  0.8086425635048  0.7824650370532 1.0
C      1  0.4368201846310  0.1299763883082  0.5993365475085 1.0
C      1  0.5242106729211  0.1827799838676  0.3690271806095 1.0
C      1  0.2770768053192  0.7796964829977  0.5937351675942 1.0
C      1  0.5922135776303  0.4435276065300  0.8746977875860 1.0
C      1  0.6880219055553  0.5952984954840  0.5889913814872 1.0
C      1  0.4014074802695  0.5457734650460  0.7371090113714 1.0
C      1  0.5574478050753  0.2734320629304  0.4008395641492 1.0
C      1  0.2317672214755  0.1709641270931  0.6321976441440 1.0
C      1  0.4058442592867  0.3123065184334  0.4109570875204 1.0
C      1  0.3703913356205  0.3841245505508  0.6337517255267 1.0
C      1  0.2755726734984  0.8216858986843  0.3403456814066 1.0
C      1  0.5006259098658  0.8699033535670  0.2840285891217 1.0
C      1  0.8301997426139  0.6042061726205  0.7459899530898 1.0
C      1  0.6077781807372  0.6374521574679  0.5286462829095 1.0
C      1  0.4029684240245  0.2809568838465  0.3128480155801 1.0
C      1  0.2803486155174  0.6360793420595  0.4223856097560 1.0
C      1  0.4044097273974  0.3079991589053  0.5776924848557 1.0
C      1  0.2086177907267  0.3027707631929  0.5376404028744 1.0
C      1  0.3413481014327  0.5307183649588  0.2836510760870 1.0
C      1  0.4900143066500  0.3065876523950  0.6095009157358 1.0
C      1  0.8210899735046  0.6637652983077  0.4233105974985 1.0
C      1  0.6784416612693  0.5712347132568  0.4027272711527 1.0
C      1  0.6577423481749  0.5259050796353  0.3152615197381 1.0
C      1  0.4635142745262  0.8037197859372  0.5293081999747 1.0
C      1  0.4716108073799  0.3502619754601  0.7780423597863 1.0
C      1  0.4588078879631  0.6003794536269  0.7944443542906 1.0
C      1  0.6079415425989  0.3860157833986  0.1548385926371 1.0
C      1  0.2444025750253  0.5103768042567  0.2515576207761 1.0
C      1  0.1815031952295  0.3901634702453  0.3656200320880 1.0
C      1  0.5240638320527  0.8514398336380  0.5955134000544 1.0
C      1  0.2093402484049  0.4088982902966  0.6977205296307 1.0
C      1  0.4038460773634  0.5712453481148  0.4522386041874 1.0
C      1  0.2403140940453  0.8155354441093  0.4386532988726 1.0
C      1  0.5429435443419  0.4428389966248  0.6612399147893 1.0
C      1  0.5316209808153  0.6709396102190  0.2418993454249 1.0
C      1  0.5288414437049  0.4896042927185  0.5746259404238 1.0
C      1  0.8332450828660  0.3742719055077  0.4848179277424 1.0
C      1  0.1554749126326  0.6174793165126  0.3114668171824 1.0
C      1  0.5900445847584  0.8366176276936  0.2750379370803 1.0
C      1  0.5603431822323  0.4835707737011  0.0705802225596 1.0
C      1  0.4836236693777  0.5671370419091  0.5969756308746 1.0
END
