TITL C-13391-138-172 -1.142 3375.00 -179.27286058 0 0 23 () n - 1
REM
REM Run started: at 2020.12.25 02:00:42 in /gpfs/home/chem/mssmkc/CARBON/AIRSS/Generating-Clusters/Str-Search/Only-C1/C10-100
REM VASP from code version vasp.5.4.4.18Apr17-6-g9f103f2a35 (build Oct 11 2019 16:45:47) gamma-only
REM
REM
REM
REM
REM ./C.cell (67c5d0192afd7a3ce4a0888e5fe73b87)
REM AIRSS Version 0.9.1 bugfix July 2018 build 013d7b7c2542+ Fri, 06 Jul 2018 19:26:36 +0100
REM compiler GCC version 6.3.0
REM options -cpp -iprefix /gpfs/warwick/csc/orac/software/Core/GCCcore/6.3.0/bin/../lib/gcc/x86_64-pc-linux-gnu/6.3.0/ -mtune=generic -march=x86-64 -g -O0
REM seed 788358134 1276791407 -1058311415 -172330687 1152021049 -1159649699 456854367 -936387826 -893844543 796814235 -1654656001 -1183010044
REM
REM C.POTCAR (d86ddea03c3ceb6dc662c8ad6801f873)
REM 
CELL 1.54180   15.00000   15.00000   15.00000   90.00000   90.00000   90.00000
LATT -1
SFAC C  
C      1  0.4062525622180  0.5427814747973  0.5452970522715 1.0
C      1  0.4037560802464  0.4077926712181  0.6303377965803 1.0
C      1  0.3718191338143  0.6565537005971  0.3461358682617 1.0
C      1  0.4080614469763  0.3661804786679  0.5430893200410 1.0
C      1  0.4689167642056  0.4284995259732  0.3537319720626 1.0
C      1  0.6978616744680  0.5260518468648  0.5700805383544 1.0
C      1  0.5204256837248  0.3820335491777  0.4136122813787 1.0
C      1  0.6250777749478  0.5205474986600  0.6242331541152 1.0
C      1  0.6186200859741  0.5217982070333  0.4488376036635 1.0
C      1  0.4516643620042  0.5740231541341  0.4675191053034 1.0
C      1  0.7048214971466  0.5372050771038  0.4859466708140 1.0
C      1  0.4123016437492  0.5820637037079  0.3766309530456 1.0
C      1  0.4269153945817  0.4980629110767  0.3356168729918 1.0
C      1  0.5937297663745  0.4270917753935  0.4536388118512 1.0
C      1  0.4896753080308  0.3501806818751  0.5014547704029 1.0
C      1  0.3674795981138  0.4537176510815  0.5558456776909 1.0
C      1  0.4800297151583  0.4605075278501  0.6564910460139 1.0
C      1  0.5706966421280  0.4370359794365  0.6282754672488 1.0
C      1  0.5696401931897  0.3882378495575  0.5465652515869 1.0
C      1  0.3414461484459  0.7319925742350  0.3181021939224 1.0
C      1  0.4688427378682  0.5495705704878  0.6199712150478 1.0
C      1  0.5542561154279  0.5801638700641  0.5881395211449 1.0
C      1  0.5477094712059  0.5779077210070  0.4904468562066 1.0
END
