TITL C-13391-138-6 -3.017 3375.00 -512.60041565 0 0 63 () n - 1
REM
REM Run started: at 2020.12.23 10:41:54 in /gpfs/home/chem/mssmkc/CARBON/AIRSS/Generating-Clusters/Str-Search/Only-C1/C10-100
REM VASP from code version vasp.5.4.4.18Apr17-6-g9f103f2a35 (build Oct 11 2019 16:45:47) gamma-only
REM
REM
REM
REM
REM ./C.cell (67c5d0192afd7a3ce4a0888e5fe73b87)
REM AIRSS Version 0.9.1 bugfix July 2018 build 013d7b7c2542+ Fri, 06 Jul 2018 19:26:36 +0100
REM compiler GCC version 6.3.0
REM options -cpp -iprefix /gpfs/warwick/csc/orac/software/Core/GCCcore/6.3.0/bin/../lib/gcc/x86_64-pc-linux-gnu/6.3.0/ -mtune=generic -march=x86-64 -g -O0
REM seed 1919458917 579856734 -2114739622 953057275 -4060135 -46906628 857440372 1726753337 2010565258 1475001297 919635229 -2003798230
REM
REM C.POTCAR (d86ddea03c3ceb6dc662c8ad6801f873)
REM 
CELL 1.54180   15.00000   15.00000   15.00000   90.00000   90.00000   90.00000
LATT -1
SFAC C  
C      1  0.6976144566233  0.6447112417854  0.6274932452537 1.0
C      1  0.6245672020208  0.6955296911521  0.6040307208857 1.0
C      1  0.4338219363548  0.6887279547962  0.3824052394753 1.0
C      1  0.4718220999391  0.4187916173293  0.3176744594725 1.0
C      1  0.3142257989679  0.4475008286319  0.6728789100535 1.0
C      1  0.5280428376714  0.2551329113710  0.5842081879347 1.0
C      1  0.4094222572100  0.5516347490407  0.3810788954409 1.0
C      1  0.5436812207893  0.5736875951611  0.2816464827808 1.0
C      1  0.6359556758503  0.4490985214371  0.2641050275309 1.0
C      1  0.3041775783684  0.4312160080876  0.3754763421799 1.0
C      1  0.2553829166268  0.5960478504583  0.3860466174624 1.0
C      1  0.4257395603313  0.5009260057803  0.7603888229069 1.0
C      1  0.5969074919118  0.3125676675092  0.5848159738616 1.0
C      1  0.5133038733712  0.7250257110025  0.5319171601467 1.0
C      1  0.6948245402447  0.3581754668827  0.3725462151457 1.0
C      1  0.4894939664355  0.3392159366893  0.3704334999103 1.0
C      1  0.6575916658709  0.5972195166257  0.4238883622089 1.0
C      1  0.7042870286041  0.4816986351518  0.5924799972539 1.0
C      1  0.4412819426404  0.7103422940010  0.4763674887302 1.0
C      1  0.3492926630325  0.5276771818219  0.7136529899862 1.0
C      1  0.3213076159635  0.6177258995172  0.5793535440363 1.0
C      1  0.3467482934583  0.6320323021459  0.3961477152810 1.0
C      1  0.5183290413865  0.5252881701453  0.4972792792233 1.0
C      1  0.7140750325810  0.5230427795801  0.3810841366932 1.0
C      1  0.2993585991651  0.3715329803249  0.4436284477184 1.0
C      1  0.3904369945219  0.4633196003557  0.3411404393220 1.0
C      1  0.3681174662718  0.3179050733474  0.5958691093015 1.0
C      1  0.4694709746178  0.6304421356696  0.6752357208285 1.0
C      1  0.6514957425557  0.2966307489230  0.4333792069896 1.0
C      1  0.2593682303576  0.5449917915011  0.5494781658228 1.0
C      1  0.3064992725965  0.4603732691248  0.5764886905574 1.0
C      1  0.7209780892868  0.4378888625910  0.4248035255815 1.0
C      1  0.3094766021004  0.3671473295693  0.5326070274991 1.0
C      1  0.7287772815152  0.5711228951056  0.6021915664575 1.0
C      1  0.7094948367066  0.4181712499929  0.5174203266647 1.0
C      1  0.6299052166071  0.6113834425334  0.2785461402462 1.0
C      1  0.3701334246149  0.6077203743333  0.6591267227777 1.0
C      1  0.5255442822082  0.6860149046766  0.6223234159580 1.0
C      1  0.2251955117908  0.5503409995082  0.4647017011721 1.0
C      1  0.4936042622435  0.6045746064791  0.3605164967788 1.0
C      1  0.3732218174972  0.6427676106683  0.4988285049919 1.0
C      1  0.6869409741213  0.5289026989851  0.2903932048477 1.0
C      1  0.3696515988215  0.3695172919683  0.6816745328652 1.0
C      1  0.5275307498095  0.4087521154241  0.7154916459667 1.0
C      1  0.6309273195703  0.4666649871039  0.6479737704017 1.0
C      1  0.5740651979918  0.4958227643940  0.7207727667531 1.0
C      1  0.6472896523925  0.6727835441495  0.3517697460307 1.0
C      1  0.5439255308923  0.4737086293901  0.2752312783635 1.0
C      1  0.5571014511034  0.2894689016510  0.4134870153981 1.0
C      1  0.6667133547006  0.3306637923566  0.5228338272314 1.0
C      1  0.5647274965678  0.5696619194711  0.4347965215325 1.0
C      1  0.6544954082274  0.6998048607407  0.4361640641899 1.0
C      1  0.4040729629072  0.4754786541504  0.5475863812975 1.0
C      1  0.2353831264559  0.5030317791690  0.3809394628013 1.0
C      1  0.4223268269431  0.5449339322906  0.4819903441058 1.0
C      1  0.6670260389817  0.3646706299611  0.2851221197681 1.0
C      1  0.4719861415081  0.2934602301682  0.4543152016048 1.0
C      1  0.6096086960039  0.7333367687611  0.5162426997369 1.0
C      1  0.5613828010147  0.3992896848358  0.6229158254544 1.0
C      1  0.4442279005973  0.2784881063866  0.5494664551599 1.0
C      1  0.4959684984811  0.4540691198703  0.5603517694630 1.0
C      1  0.4401955977544  0.4041893884288  0.7422066465924 1.0
C      1  0.5014776742434  0.5579560895363  0.7345902979128 1.0
END
