TITL C-139784-8517-8 -5.742 3375.00 -989.26753261 0 0 122 (C1) n - 1
REM
REM Run started: at 2021.01.21 11:28:40 in /rds/project/t2_vol4/rds-t2-cs072/BORA/CARBON/AIRSS/Generating-Clusters/Str-Search/Only-C1/C100-200
REM VASP from code version vasp.5.4.4.18Apr17-6-g9f103f2a35 (build Oct 11 2019 16:45:47) gamma-only
REM
REM
REM
REM
REM ./C.cell (efaf0b2bf1589a83377268d7ebe2c73f)
REM AIRSS Version 0.9.1 bugfix July 2018 build 013d7b7c2542+ Fri, 06 Jul 2018 19:26:36 +0100
REM compiler GCC version 4.8.5 20150623 (Red Hat 4.8.5-39)
REM options -cpp -mtune=generic -march=x86-64 -g -O0
REM seed -251606089 143666821 260080605 1656952031 2025345722 319378104 854490712 248453055 -861460038 84573365 -1703070096 -1771210135
REM
REM C.POTCAR (d86ddea03c3ceb6dc662c8ad6801f873)
REM 
CELL 1.54180   15.00000   15.00000   15.00000   90.00000   90.00000   90.00000
LATT -1
SFAC C  
C      1  0.5100680679519  0.4385193434526  0.6965087390506 1.0
C      1  0.2421165912420  0.5966457934773  0.6427627702119 1.0
C      1  0.8039451392821  0.5832981471779  0.4047148642988 1.0
C      1  0.5590607704025  0.4808787842300  0.5441276865210 1.0
C      1  0.7253457779330  0.7694565610044  0.5624692240389 1.0
C      1  0.6676393678750  0.6810216251154  0.4090464618253 1.0
C      1  0.3095576042401  0.3970718711303  0.7975686302806 1.0
C      1  0.3269930271100  0.6210099543706  0.3296513315505 1.0
C      1  0.7003903285797  0.4187228353528  0.7363102457287 1.0
C      1  0.5747648878929  0.3517711506992  0.8222758221337 1.0
C      1  0.2605181097397  0.4163347212718  0.6597017381538 1.0
C      1  0.2866491619999  0.3774584812062  0.3120641532559 1.0
C      1  0.4814295293644  0.3189923682014  0.5697346869070 1.0
C      1  0.7662055472381  0.6680529133215  0.4326299703355 1.0
C      1  0.4919541513045  0.5694507867075  0.1558175557124 1.0
C      1  0.4386059080281  0.6411506518156  0.1910390690939 1.0
C      1  0.8314467931377  0.5173055787609  0.4670611420881 1.0
C      1  0.3706745007693  0.4528917369620  0.2181715415143 1.0
C      1  0.1734247384327  0.5512057045191  0.5772207646429 1.0
C      1  0.4453464800866  0.3660258248151  0.6563599809857 1.0
C      1  0.5388789411766  0.7074550163939  0.3209518293452 1.0
C      1  0.3407390783003  0.3570747760350  0.2316451164684 1.0
C      1  0.7163101354683  0.2684864495189  0.5535507331848 1.0
C      1  0.3693064986971  0.7060822905393  0.2974684986969 1.0
C      1  0.4427901829804  0.5274753203015  0.4243034357881 1.0
C      1  0.1666491005039  0.5994442339279  0.4968301077543 1.0
C      1  0.6198166968277  0.5502047494902  0.3019800916274 1.0
C      1  0.6338850890913  0.2481814642235  0.6014887597345 1.0
C      1  0.3777651032753  0.4353282462446  0.5406829257897 1.0
C      1  0.7200143421828  0.5738033533328  0.6818949382988 1.0
C      1  0.7107269335312  0.5221124735904  0.2561636368860 1.0
C      1  0.2557376775140  0.4599017722897  0.7510403073431 1.0
C      1  0.3940578394727  0.3240724368093  0.4078556341200 1.0
C      1  0.4565082731925  0.5187039763052  0.7168616877887 1.0
C      1  0.8068560146711  0.4089688291430  0.5539282782306 1.0
C      1  0.6425072767879  0.4146519443865  0.8095827014168 1.0
C      1  0.4622392918904  0.6957431642356  0.2662044548399 1.0
C      1  0.4119710221929  0.3013212482557  0.2423045551857 1.0
C      1  0.5836181156335  0.2374809878220  0.3818799611015 1.0
C      1  0.2474334281589  0.3241131487404  0.6318092132727 1.0
C      1  0.2411627751027  0.7809521549996  0.7085322707158 1.0
C      1  0.4519781634222  0.6148061176641  0.4812185601457 1.0
C      1  0.3001059657336  0.4944380989408  0.5241864238482 1.0
C      1  0.7854560117854  0.5437574616989  0.3184564221692 1.0
C      1  0.7853513913043  0.7076054022329  0.5144612008117 1.0
C      1  0.3340262905213  0.4630882428412  0.3025451788997 1.0
C      1  0.8103660230632  0.6658586023628  0.6000260134592 1.0
C      1  0.5340831916050  0.6392898582168  0.5131630356209 1.0
C      1  0.6449579717835  0.8000168537243  0.5288060312583 1.0
C      1  0.6898965233576  0.6628777992189  0.7009752786616 1.0
C      1  0.5723386956641  0.7803785512781  0.5938418407764 1.0
C      1  0.2003059193335  0.5632079276843  0.4084397090278 1.0
C      1  0.8217001678786  0.5039432576556  0.5649557510259 1.0
C      1  0.6195576645533  0.6144918242630  0.4731748363767 1.0
C      1  0.7714922145415  0.4551929322595  0.3045502284261 1.0
C      1  0.6066596134294  0.4592512237091  0.1430856262862 1.0
C      1  0.5032179436172  0.5380358859445  0.7962079489899 1.0
C      1  0.3414091183443  0.6427880532616  0.2243987280709 1.0
C      1  0.7855837849844  0.3884863507554  0.3725168513958 1.0
C      1  0.5659518426807  0.2781548045790  0.7526978333098 1.0
C      1  0.3732242496881  0.6554683719663  0.5350807678900 1.0
C      1  0.2489941195145  0.6068141452718  0.2353885408370 1.0
C      1  0.6012468589162  0.5031123799722  0.3886622101399 1.0
C      1  0.5410837954834  0.7746288400844  0.3955610635854 1.0
C      1  0.5202436866646  0.7068873031756  0.7353128318889 1.0
C      1  0.6757632262661  0.2465194035637  0.3883624320309 1.0
C      1  0.2116134378381  0.6854386318338  0.4961081710239 1.0
C      1  0.2495791984268  0.6934710130427  0.6678481774453 1.0
C      1  0.3960592495444  0.7505414091571  0.5946881977412 1.0
C      1  0.5360233133725  0.2071097200475  0.4641245788318 1.0
C      1  0.3992200241061  0.2838600549741  0.7083785781831 1.0
C      1  0.2980401009491  0.3277058159183  0.3981717806392 1.0
C      1  0.5357975586875  0.6271195839853  0.7854495071106 1.0
C      1  0.7173030425477  0.3398301683327  0.6882827250161 1.0
C      1  0.3725788778173  0.5306775593036  0.6716556975393 1.0
C      1  0.3157723315426  0.2331426753296  0.5375062401958 1.0
C      1  0.4599644830286  0.4818371568334  0.1919593337163 1.0
C      1  0.5126674806195  0.4945617500951  0.3637504699428 1.0
C      1  0.6227996735338  0.5201112979860  0.4788505082813 1.0
C      1  0.6433484446023  0.2755725367100  0.6917134356230 1.0
C      1  0.4878536263273  0.7457567349608  0.6476996313728 1.0
C      1  0.3168974182249  0.2596463886951  0.6323887945009 1.0
C      1  0.5428026622194  0.6985313589115  0.5836196519378 1.0
C      1  0.2189294696526  0.4552842197457  0.5728304297169 1.0
C      1  0.7976216234112  0.5738999854701  0.6238007901791 1.0
C      1  0.2938807625800  0.6952083658871  0.4896215490323 1.0
C      1  0.3663751951162  0.4286186570943  0.6367257872499 1.0
C      1  0.6145673649782  0.6511384188485  0.3267628251291 1.0
C      1  0.2765529656989  0.5188442944689  0.4343435616839 1.0
C      1  0.2844573584509  0.5459124383824  0.7221184128897 1.0
C      1  0.5489880357104  0.2536731723784  0.5541355304579 1.0
C      1  0.6757160615205  0.5193653826119  0.1621234457381 1.0
C      1  0.5312937091115  0.2752184446874  0.3156067478030 1.0
C      1  0.2113538433006  0.3515557476805  0.5462149758189 1.0
C      1  0.7503549200171  0.3016542141065  0.3843814618975 1.0
C      1  0.4377564821373  0.2868980505408  0.3335061455228 1.0
C      1  0.2274223502567  0.6128084426771  0.3257245749524 1.0
C      1  0.6076675584354  0.6760988397495  0.7474298022096 1.0
C      1  0.4660337160334  0.4597025118425  0.5015785647958 1.0
C      1  0.4176369461951  0.8079671168342  0.5147056581934 1.0
C      1  0.5835939544184  0.5492432807499  0.1272186246555 1.0
C      1  0.3136962845319  0.7554580457460  0.6512000408734 1.0
C      1  0.6672641163707  0.4930508552083  0.6817267699772 1.0
C      1  0.3529495368515  0.5300769492353  0.3738100060368 1.0
C      1  0.4304999244561  0.3620490025355  0.4935896410323 1.0
C      1  0.5305180673242  0.4942539464602  0.2705297823971 1.0
C      1  0.2579736175677  0.2992841397092  0.4810660054218 1.0
C      1  0.5830410126005  0.4718470293632  0.6331218700429 1.0
C      1  0.8200836208773  0.4240433902654  0.4530234284287 1.0
C      1  0.3305412187305  0.5779985739143  0.5878521793880 1.0
C      1  0.4544152708144  0.1658746964757  0.4668081016962 1.0
C      1  0.4876961363441  0.2382792962256  0.7240662143848 1.0
C      1  0.5494110796237  0.4476382496185  0.7950851651302 1.0
C      1  0.7448110974411  0.7203714297199  0.6451708038017 1.0
C      1  0.7606450828469  0.3401479618556  0.6012986765246 1.0
C      1  0.4671226805076  0.8067144241045  0.4478342644439 1.0
C      1  0.3774080464007  0.1775139821473  0.4992789966540 1.0
C      1  0.5365623145149  0.4143963077917  0.1989534993684 1.0
C      1  0.5111631961053  0.3229116468088  0.2319451668186 1.0
C      1  0.3526745584021  0.3275041007600  0.7823061815405 1.0
C      1  0.7291577582981  0.2559857995178  0.4635123396632 1.0
C      1  0.6237374055804  0.7686723701641  0.4385259384981 1.0
END
