TITL C-13391-138-121 -2.734 3375.00 -446.24416226 0 0 56 () n - 1
REM
REM Run started: at 2020.12.24 13:00:56 in /gpfs/home/chem/mssmkc/CARBON/AIRSS/Generating-Clusters/Str-Search/Only-C1/C10-100
REM VASP from code version vasp.5.4.4.18Apr17-6-g9f103f2a35 (build Oct 11 2019 16:45:47) gamma-only
REM
REM
REM
REM
REM ./C.cell (67c5d0192afd7a3ce4a0888e5fe73b87)
REM AIRSS Version 0.9.1 bugfix July 2018 build 013d7b7c2542+ Fri, 06 Jul 2018 19:26:36 +0100
REM compiler GCC version 6.3.0
REM options -cpp -iprefix /gpfs/warwick/csc/orac/software/Core/GCCcore/6.3.0/bin/../lib/gcc/x86_64-pc-linux-gnu/6.3.0/ -mtune=generic -march=x86-64 -g -O0
REM seed 929266728 661071401 -91930753 -456471292 1481313195 -1409021693 -1204819649 -465217736 1140710952 1969792575 2146323591 1396316333
REM
REM C.POTCAR (d86ddea03c3ceb6dc662c8ad6801f873)
REM 
CELL 1.54180   15.00000   15.00000   15.00000   90.00000   90.00000   90.00000
LATT -1
SFAC C  
C      1  0.7690135863778  0.6435591475360  0.4690087788732 1.0
C      1  0.6632120297192  0.5371753691553  0.6828646012553 1.0
C      1  0.4819422895677  0.6199884624034  0.3758120491126 1.0
C      1  0.4745104368387  0.2804032110072  0.4010549790148 1.0
C      1  0.5657758230541  0.6967468749547  0.5272530987484 1.0
C      1  0.4031725293169  0.5500379901359  0.7420851605002 1.0
C      1  0.5079853590709  0.4620195913254  0.3718251759866 1.0
C      1  0.6286191289719  0.5369797168294  0.2954714815594 1.0
C      1  0.4757403086024  0.7017996544661  0.5295792666046 1.0
C      1  0.2829752805768  0.4890102026758  0.3526063554037 1.0
C      1  0.2474806231869  0.4456194685278  0.4143809176663 1.0
C      1  0.7453032430521  0.5524421976494  0.4845172229374 1.0
C      1  0.5914490178208  0.6692809792292  0.6189614596873 1.0
C      1  0.5599663527387  0.5383579059639  0.2322575899745 1.0
C      1  0.6692126130193  0.4501858577931  0.3230938079583 1.0
C      1  0.4938888227672  0.5865601022180  0.7361374923784 1.0
C      1  0.2532468513147  0.4552611324540  0.5766165986072 1.0
C      1  0.3361081301391  0.3424861219950  0.4982702229428 1.0
C      1  0.5084116992857  0.6554303029491  0.6717324803644 1.0
C      1  0.4291904564352  0.3845572094964  0.5133100435776 1.0
C      1  0.3363888974092  0.6344318479682  0.4410604841209 1.0
C      1  0.5306873943798  0.4792589679293  0.5788088429220 1.0
C      1  0.3829278430572  0.4695763966474  0.7959397948569 1.0
C      1  0.3369450344968  0.5703665566907  0.6734933309758 1.0
C      1  0.7228122884832  0.6161540871201  0.5473721031746 1.0
C      1  0.3481793801852  0.5363319504633  0.3066049450084 1.0
C      1  0.6371997248058  0.3309047600976  0.3919572845463 1.0
C      1  0.7341964949295  0.4690035538151  0.6570254711067 1.0
C      1  0.5034348763025  0.5302950922392  0.5061777132562 1.0
C      1  0.4643084037469  0.4581651750405  0.4523124458918 1.0
C      1  0.3525144841168  0.6399161636898  0.6102241060892 1.0
C      1  0.5910607078510  0.4805462967773  0.6494951340671 1.0
C      1  0.6691801520034  0.6198969067818  0.6269194738284 1.0
C      1  0.2800100395800  0.5026350361209  0.6389845848861 1.0
C      1  0.4359639704142  0.6826972956920  0.6147084626594 1.0
C      1  0.3877102139815  0.6088091782549  0.3640058622664 1.0
C      1  0.5406176715124  0.5495353569628  0.3392063084581 1.0
C      1  0.5680953446624  0.2896261358829  0.4327429410234 1.0
C      1  0.4330393882972  0.3965925424684  0.2585179052092 1.0
C      1  0.5238366636973  0.3911181384365  0.2973470430268 1.0
C      1  0.5738964699907  0.5238067823735  0.7454783329816 1.0
C      1  0.6967185337037  0.4114055087119  0.4108509992598 1.0
C      1  0.4131242679782  0.4068186384306  0.7474628042476 1.0
C      1  0.6193623445167  0.3730527687891  0.2997483288588 1.0
C      1  0.4061386214543  0.4887366394973  0.2443720147695 1.0
C      1  0.4774201331515  0.3997739718556  0.5948099589707 1.0
C      1  0.4539952858487  0.3274585492487  0.3211063062228 1.0
C      1  0.2626981193713  0.4055176047298  0.4970189724728 1.0
C      1  0.7339306792882  0.4559272040480  0.4852575362616 1.0
C      1  0.5610898308016  0.4288582442496  0.7214167038260 1.0
C      1  0.5105820953566  0.6264194897268  0.4720969994709 1.0
C      1  0.4053648376042  0.2978601120961  0.4664476792045 1.0
C      1  0.4776231849147  0.5396732034935  0.2032412462202 1.0
C      1  0.7425441196457  0.4390781387346  0.5789547674805 1.0
C      1  0.4823833658580  0.3817249983310  0.6910069200440 1.0
C      1  0.3168144547479  0.6401251078402  0.5209877091821 1.0
END
