TITL C-139784-8517-4 -7.733 3375.00 -1236.60842483 0 0 152 (C1) n - 1
REM
REM Run started: at 2021.01.21 08:23:27 in /rds/project/t2_vol4/rds-t2-cs072/BORA/CARBON/AIRSS/Generating-Clusters/Str-Search/Only-C1/C100-200
REM VASP from code version vasp.5.4.4.18Apr17-6-g9f103f2a35 (build Oct 11 2019 16:45:47) gamma-only
REM
REM
REM
REM
REM ./C.cell (efaf0b2bf1589a83377268d7ebe2c73f)
REM AIRSS Version 0.9.1 bugfix July 2018 build 013d7b7c2542+ Fri, 06 Jul 2018 19:26:36 +0100
REM compiler GCC version 4.8.5 20150623 (Red Hat 4.8.5-39)
REM options -cpp -mtune=generic -march=x86-64 -g -O0
REM seed -1054611889 944668927 -720460758 -855888405 -1196002586 1986548841 -809643182 871450959 352418176 -748840780 362896022 -1394142019
REM
REM C.POTCAR (d86ddea03c3ceb6dc662c8ad6801f873)
REM 
CELL 1.54180   15.00000   15.00000   15.00000   90.00000   90.00000   90.00000
LATT -1
SFAC C  
C      1  0.2494359645608  0.2986779198364  0.6280029359271 1.0
C      1  0.2185232987353  0.6725725826621  0.7216492759683 1.0
C      1  0.6593092364830  0.5137769395096  0.5855418604625 1.0
C      1  0.6384214867585  0.8000932254904  0.4828731529155 1.0
C      1  0.4085429224475  0.4234630218934  0.6686054443478 1.0
C      1  0.3065587887220  0.5953551141850  0.1626565970107 1.0
C      1  0.5157259768588  0.6098172755734  0.6636135794920 1.0
C      1  0.4056585981815  0.4489095819132  0.5690340551585 1.0
C      1  0.2308307769284  0.4418567162325  0.7042323430883 1.0
C      1  0.5248724153336  0.4096564006062  0.1145769392753 1.0
C      1  0.5190483789806  0.7482391201163  0.3686752324732 1.0
C      1  0.1093000179651  0.5442668216850  0.4693854888988 1.0
C      1  0.2904785073476  0.5158642575479  0.7470750980679 1.0
C      1  0.6460906459601  0.8270059858780  0.5766227240939 1.0
C      1  0.3645244324440  0.4235722978434  0.1903154031937 1.0
C      1  0.5611443798988  0.2162328767095  0.6853257705982 1.0
C      1  0.3970713927169  0.7911474308210  0.6036448027865 1.0
C      1  0.4934627997519  0.1768990105448  0.7337069459029 1.0
C      1  0.7469281060401  0.5920692715500  0.7660554917162 1.0
C      1  0.4724657958890  0.5973381922329  0.8915662718241 1.0
C      1  0.3498131159516  0.6821447549139  0.4777597368191 1.0
C      1  0.7431675477829  0.6019116465467  0.3659394655024 1.0
C      1  0.8617378792470  0.5592208681590  0.4831957109511 1.0
C      1  0.6025998701128  0.3374494351636  0.2945791109073 1.0
C      1  0.6281832205498  0.3660557511534  0.8979676699921 1.0
C      1  0.2283879621079  0.5790606740636  0.5209533224145 1.0
C      1  0.4816014135530  0.3175073286691  0.5301684216828 1.0
C      1  0.3887025224367  0.7439805947913  0.7521713121391 1.0
C      1  0.3611710460618  0.5279835915342  0.5776136415483 1.0
C      1  0.0951186164463  0.3223523066904  0.3593007640331 1.0
C      1  0.7484930189611  0.3773376580167  0.0471266876899 1.0
C      1  0.5908161681714  0.7148248731722  0.1376025605896 1.0
C      1  0.1435255776493  0.7161304943845  0.5280530953231 1.0
C      1  0.6960390919389  0.3922142736978  0.1283598088012 1.0
C      1  0.1836370588353  0.2844900520046  0.3781597056290 1.0
C      1  0.3661297544510  0.7430341021209  0.2262364973274 1.0
C      1  0.7090485938385  0.7488137273669  0.4403970575279 1.0
C      1  0.7139738731646  0.4018853401822  0.2296811673750 1.0
C      1  0.5621725936542  0.5489135416622  0.4405039968850 1.0
C      1  0.6170600999705  0.5162040886185  0.2891278342564 1.0
C      1  0.5697782080459  0.2929641427500  0.5457859146887 1.0
C      1  0.5643722564809  0.8372662653753  0.6150652275377 1.0
C      1  0.6982834423504  0.3243064257815  0.2958536900066 1.0
C      1  0.5640045144131  0.3886552634346  0.7397115578497 1.0
C      1  0.6837615623834  0.1807735378723  0.5779419966788 1.0
C      1  0.4784995507304  0.7670901782901  0.7327755484142 1.0
C      1  0.7961467475617  0.6107611542171  0.7018697782491 1.0
C      1  0.8285729466028  0.3233798049731  0.4087215339630 1.0
C      1  0.3445315576908  0.2778462835779  0.6190773916427 1.0
C      1  0.3116026666227  0.4992191490343  0.1707730064071 1.0
C      1  0.6187123470721  0.4263494443442  0.2617229447365 1.0
C      1  0.3408411692087  0.6758217516516  0.1739889343210 1.0
C      1  0.7616257403978  0.2678239573303  0.4628854622550 1.0
C      1  0.8242724838895  0.5621911093144  0.3942947179716 1.0
C      1  0.4577348140633  0.8012050332265  0.4489394516976 1.0
C      1  0.5617857573132  0.3367380610123  0.8285183739111 1.0
C      1  0.5826313207313  0.1991971361246  0.5874144409661 1.0
C      1  0.3573515035114  0.4950989878485  0.3774409597371 1.0
C      1  0.3959075849799  0.7593591741801  0.5144875624393 1.0
C      1  0.8768667928334  0.4646672866178  0.4978238292787 1.0
C      1  0.3344734459949  0.3645643392326  0.2647337072416 1.0
C      1  0.1045822136817  0.5423870951834  0.3025878254979 1.0
C      1  0.6424940777251  0.3525339787716  0.5461398380088 1.0
C      1  0.4492370311374  0.4566118638964  0.8284425373352 1.0
C      1  0.5209961256946  0.1433234832793  0.5197525993644 1.0
C      1  0.4868725476809  0.4543688155930  0.7260993513642 1.0
C      1  0.3915905368466  0.6913276819166  0.8334154305976 1.0
C      1  0.2042417562498  0.4018311536748  0.4954967349054 1.0
C      1  0.6210082202672  0.6130438298956  0.4789737686396 1.0
C      1  0.3428732284902  0.6736116936011  0.3820505814211 1.0
C      1  0.2298485037046  0.5426429792866  0.1870528462317 1.0
C      1  0.7077958378298  0.5434983262332  0.2986538652614 1.0
C      1  0.5805592927362  0.1043353015525  0.4601174371362 1.0
C      1  0.7697218941844  0.4724568414181  0.2764715433026 1.0
C      1  0.7346869653729  0.3205279317136  0.5508563911254 1.0
C      1  0.4286688360286  0.8094472327749  0.3545861167530 1.0
C      1  0.8623969433319  0.6399050435524  0.5396261402520 1.0
C      1  0.7845476848941  0.7474989554703  0.6304030893807 1.0
C      1  0.4343745092305  0.2101282176561  0.7837164152681 1.0
C      1  0.5413673107618  0.7207893151131  0.7916889314810 1.0
C      1  0.4645746998598  0.8629403339532  0.2809579810906 1.0
C      1  0.3793974196430  0.5952651343328  0.8619069808057 1.0
C      1  0.5559767713267  0.7952070010958  0.4403827524668 1.0
C      1  0.6870629187239  0.6597955793628  0.4214932390217 1.0
C      1  0.8020755208796  0.7572035033749  0.4496078164691 1.0
C      1  0.6581854340935  0.3939205461343  0.9900936440660 1.0
C      1  0.3775380986273  0.5852723945123  0.3504615074223 1.0
C      1  0.5534841417598  0.6940409361755  0.2212409028015 1.0
C      1  0.7529295226054  0.2975522838722  0.3638761551786 1.0
C      1  0.3924231280171  0.4241137065865  0.4165199333791 1.0
C      1  0.6545354713378  0.4507274228080  0.9062080053146 1.0
C      1  0.4879888586110  0.2220900142163  0.3524509872352 1.0
C      1  0.1905473583801  0.7532906388089  0.5867053929565 1.0
C      1  0.6200689598143  0.4440632905936  0.5407733843413 1.0
C      1  0.5973733492920  0.6434078142693  0.6568869169195 1.0
C      1  0.2395649251630  0.5987267081806  0.7491572450325 1.0
C      1  0.1765991657121  0.4923863414620  0.5301187789167 1.0
C      1  0.6606314806609  0.1227324732256  0.4399345080354 1.0
C      1  0.4604140342400  0.5928552989854  0.3142102632296 1.0
C      1  0.3630262590295  0.3375014603921  0.7038075910117 1.0
C      1  0.4417823173434  0.8109962898568  0.2064350228814 1.0
C      1  0.6136938425092  0.4017145074062  0.0834881203105 1.0
C      1  0.1503251925291  0.6285358392633  0.4950220327153 1.0
C      1  0.3567055000996  0.5116016500049  0.8291913715233 1.0
C      1  0.8133887595819  0.3588688281200  0.6034282731255 1.0
C      1  0.8101529709633  0.2788648866972  0.6600153770309 1.0
C      1  0.5439868701666  0.4673651602451  0.4845937714915 1.0
C      1  0.5812514768633  0.2986944053557  0.7342969644238 1.0
C      1  0.6079372289867  0.6642273774557  0.7555651986262 1.0
C      1  0.8618820275059  0.4123247102091  0.4126545860179 1.0
C      1  0.2440930333592  0.2219180680333  0.3783978804855 1.0
C      1  0.5170135270851  0.7648673151653  0.1718034727934 1.0
C      1  0.0929656864126  0.5025208369090  0.3860230350939 1.0
C      1  0.4153001605132  0.1884487442716  0.3995773703240 1.0
C      1  0.3338959262577  0.2182546926759  0.3548753208368 1.0
C      1  0.8337177760388  0.4752770202104  0.3458865809301 1.0
C      1  0.4079824819381  0.2557467217988  0.5529774486185 1.0
C      1  0.4611548956170  0.3556795920019  0.8400587367559 1.0
C      1  0.4590230467033  0.4097790879700  0.4926769816855 1.0
C      1  0.8297010369810  0.3559796509973  0.0214073198642 1.0
C      1  0.1811464845518  0.4428776058558  0.6231477102825 1.0
C      1  0.4075085571595  0.2996130744716  0.7871770338551 1.0
C      1  0.2434767927792  0.7443571958146  0.6641002546575 1.0
C      1  0.2195212958615  0.3820046250207  0.4014137884826 1.0
C      1  0.4347399614898  0.1775105685705  0.4949431560963 1.0
C      1  0.4631085060537  0.5488098277683  0.6959196779704 1.0
C      1  0.3172994714562  0.5998361786849  0.5265620114936 1.0
C      1  0.1218326761788  0.4088047873825  0.3779029773020 1.0
C      1  0.1539461459527  0.5455490433864  0.2356724562310 1.0
C      1  0.5360499235345  0.2830025049765  0.3238556331501 1.0
C      1  0.8686357298423  0.4211764323144  0.5765286043505 1.0
C      1  0.6594697554908  0.5923163298753  0.8050411468229 1.0
C      1  0.8670850181076  0.7165760666350  0.4815151264776 1.0
C      1  0.1941907331800  0.3571770521539  0.5754091246519 1.0
C      1  0.3090442694846  0.4084777662889  0.3584310417765 1.0
C      1  0.2650483241456  0.3536371139704  0.7041485334437 1.0
C      1  0.7196116559237  0.1770812565135  0.4859971102693 1.0
C      1  0.7281118071668  0.8079002338274  0.6215409420647 1.0
C      1  0.3350365969926  0.7641232976749  0.6738538765006 1.0
C      1  0.4852556386837  0.8110930213203  0.6464791525808 1.0
C      1  0.4490261038050  0.4141878853133  0.1485043206918 1.0
C      1  0.3419041893122  0.2787825036677  0.2841695364083 1.0
C      1  0.5187069791189  0.5228426453315  0.8724896518583 1.0
C      1  0.5481929330809  0.5639080145143  0.3421224108248 1.0
C      1  0.4836255329069  0.6886294186511  0.8631710596565 1.0
C      1  0.3593043010763  0.7453040729458  0.3236983407958 1.0
C      1  0.6173772702374  0.5285551375292  0.8597651643102 1.0
C      1  0.5281713462550  0.6657537694316  0.3117988804838 1.0
C      1  0.8268471340203  0.6620865911648  0.6273943802953 1.0
C      1  0.6407031908420  0.6014264388362  0.5755085191696 1.0
C      1  0.7389800368541  0.2381055814487  0.6254934645415 1.0
C      1  0.3672976876103  0.5198582191562  0.6770615073614 1.0
END
