TITL C-13391-138-48 -3.617 3375.00 -609.89747097 0 0 75 () n - 1
REM
REM Run started: at 2020.12.23 21:50:12 in /gpfs/home/chem/mssmkc/CARBON/AIRSS/Generating-Clusters/Str-Search/Only-C1/C10-100
REM VASP from code version vasp.5.4.4.18Apr17-6-g9f103f2a35 (build Oct 11 2019 16:45:47) gamma-only
REM
REM
REM
REM
REM ./C.cell (67c5d0192afd7a3ce4a0888e5fe73b87)
REM AIRSS Version 0.9.1 bugfix July 2018 build 013d7b7c2542+ Fri, 06 Jul 2018 19:26:36 +0100
REM compiler GCC version 6.3.0
REM options -cpp -iprefix /gpfs/warwick/csc/orac/software/Core/GCCcore/6.3.0/bin/../lib/gcc/x86_64-pc-linux-gnu/6.3.0/ -mtune=generic -march=x86-64 -g -O0
REM seed 1460079644 -1903961808 797311353 -1906208515 1204650120 -1344785515 787514377 165594358 -2063031816 -466269881 1069086028 484623891
REM
REM C.POTCAR (d86ddea03c3ceb6dc662c8ad6801f873)
REM 
CELL 1.54180   15.00000   15.00000   15.00000   90.00000   90.00000   90.00000
LATT -1
SFAC C  
C      1  0.2959103051240  0.5151718953438  0.3797579428838 1.0
C      1  0.6830597738207  0.3855395399007  0.2749596786724 1.0
C      1  0.6373954231892  0.5850294120602  0.4187561717211 1.0
C      1  0.6268978824200  0.6750221205966  0.4759307012702 1.0
C      1  0.6409507946462  0.5985047275555  0.3178908444626 1.0
C      1  0.5288253386130  0.7280696963686  0.3086037057677 1.0
C      1  0.2980864298991  0.4822039573016  0.6798170818148 1.0
C      1  0.3857107475057  0.6478999858805  0.3586330195478 1.0
C      1  0.6201949573703  0.3798447447593  0.7254730475500 1.0
C      1  0.5755115754092  0.2902819516099  0.5755092747237 1.0
C      1  0.7852742577385  0.4966068554573  0.4777265937291 1.0
C      1  0.5698626574060  0.5881123344243  0.6239739934543 1.0
C      1  0.3820170412857  0.2529440654820  0.3670257498947 1.0
C      1  0.3837239674421  0.2524108299896  0.4621862540417 1.0
C      1  0.3587301022323  0.5610388098322  0.3214747428015 1.0
C      1  0.6064499600297  0.3099404065586  0.4291149637838 1.0
C      1  0.7078614780716  0.6382571009896  0.4737676233160 1.0
C      1  0.5828916025962  0.3614492647008  0.2762837628257 1.0
C      1  0.7814521857625  0.5804201567443  0.4855415784419 1.0
C      1  0.4144336603221  0.3366788847162  0.6397127718235 1.0
C      1  0.5576008737225  0.5796659444320  0.2268831235622 1.0
C      1  0.5701307667285  0.5012055961348  0.7777050111044 1.0
C      1  0.6381187741202  0.4912809941155  0.4610955467573 1.0
C      1  0.5437199488136  0.5924478978541  0.7741341033214 1.0
C      1  0.3080291707198  0.5749757462556  0.7114135497001 1.0
C      1  0.4780308367046  0.2828422211526  0.5967083364262 1.0
C      1  0.2754019411159  0.3819639519225  0.4552093680296 1.0
C      1  0.5717456956634  0.7285382117994  0.6782665603291 1.0
C      1  0.7089001364574  0.4542925425047  0.7033689991775 1.0
C      1  0.6906173968441  0.3715864459202  0.6598530602901 1.0
C      1  0.2788899901769  0.4310892777568  0.6033346226879 1.0
C      1  0.6117783601733  0.4525691984463  0.5433575471575 1.0
C      1  0.3876545696992  0.4026967193711  0.3199729448908 1.0
C      1  0.5458883372188  0.7342630926115  0.4832513874319 1.0
C      1  0.5772157753112  0.6599328235281  0.2764800535713 1.0
C      1  0.5883173144035  0.6424280331858  0.7019549931856 1.0
C      1  0.4834898229112  0.7402748418399  0.6513167170899 1.0
C      1  0.4390305838434  0.7204324813495  0.3399966379251 1.0
C      1  0.3061943951179  0.4223009147242  0.3750779763023 1.0
C      1  0.7208680947478  0.4306973464108  0.4331409329217 1.0
C      1  0.6512131619114  0.3576812631914  0.5689048030323 1.0
C      1  0.4487270283136  0.5557329945054  0.4909230269778 1.0
C      1  0.2470792423591  0.4531589560512  0.5154570606464 1.0
C      1  0.4407998801575  0.4028934081545  0.7050557273749 1.0
C      1  0.4637976535442  0.4779971743287  0.4464749992256 1.0
C      1  0.6835987183427  0.3452584863483  0.4725587431372 1.0
C      1  0.7392601275836  0.4087434433766  0.3392263136931 1.0
C      1  0.4954051733827  0.5038471505719  0.2267808789223 1.0
C      1  0.2582768928255  0.5372423193098  0.4683864918545 1.0
C      1  0.2970458936211  0.6133790743382  0.5029788157612 1.0
C      1  0.5568853976470  0.4908899135966  0.6146918242665 1.0
C      1  0.3194622670547  0.3121504267826  0.5048915201365 1.0
C      1  0.5509144113595  0.3569824215740  0.3621498675542 1.0
C      1  0.4103123631745  0.4946285365309  0.2712500311802 1.0
C      1  0.4748665239878  0.7436179578751  0.5547325779008 1.0
C      1  0.4618319725804  0.2416869080430  0.5112328034145 1.0
C      1  0.5344818654131  0.4355126924073  0.7064874079455 1.0
C      1  0.4191643475317  0.6847827189523  0.7030268261482 1.0
C      1  0.3800298353865  0.5517418787666  0.7709472166053 1.0
C      1  0.3218890755393  0.6722962741001  0.5759964736942 1.0
C      1  0.4502351352308  0.6166342730826  0.7664203174274 1.0
C      1  0.4992630101711  0.5627349482721  0.5725559620527 1.0
C      1  0.6542252949299  0.4536971479627  0.7830909183147 1.0
C      1  0.3818885431353  0.6386452625921  0.4566131195929 1.0
C      1  0.5582948347525  0.2558540991845  0.4905537679652 1.0
C      1  0.6486707431123  0.5443966714676  0.2376874099228 1.0
C      1  0.3756151611748  0.4601157121404  0.7359645837698 1.0
C      1  0.3932213132590  0.7107724754492  0.5251637126950 1.0
C      1  0.3792958450872  0.3046569917205  0.3021335618203 1.0
C      1  0.5581617522473  0.4304551112441  0.2139311081863 1.0
C      1  0.3307480472115  0.3468247639771  0.5928797159417 1.0
C      1  0.3334227998993  0.6569041278524  0.6679883545165 1.0
C      1  0.6528101081447  0.4553208176870  0.2122356412598 1.0
C      1  0.4716040764111  0.4111898697827  0.3870709439674 1.0
C      1  0.5106383781398  0.7506631071938  0.3988960987084 1.0
END
