TITL C-130697-9583-2 -1.454 3375.00 -222.10810222 0 0 28 (C1) n - 1
REM
REM Run started: at 2020.12.04 16:24:48 in /rds/project/t2_vol4/rds-t2-cs072/BORA/CARBON/AIRSS/Generating-Clusters/Str-Search/Only-C1/C10-100
REM VASP from code version vasp.5.4.4.18Apr17-6-g9f103f2a35 (build Oct 11 2019 16:45:47) gamma-only
REM
REM
REM
REM
REM ./C.cell (67c5d0192afd7a3ce4a0888e5fe73b87)
REM AIRSS Version 0.9.1 bugfix July 2018 build 013d7b7c2542+ Fri, 06 Jul 2018 19:26:36 +0100
REM compiler GCC version 4.8.5 20150623 (Red Hat 4.8.5-39)
REM options -cpp -mtune=generic -march=x86-64 -g -O0
REM seed -862501664 -20736936 840331422 1957235824 69868576 -1659903777 7769862 -1276425668 -1208736366 -1500016300 2041078268 32168202
REM
REM C.POTCAR (d86ddea03c3ceb6dc662c8ad6801f873)
REM 
CELL 1.54180   15.00000   15.00000   15.00000   90.00000   90.00000   90.00000
LATT -1
SFAC C  
C      1  0.5393540328823  0.6802496600856  0.5920455816431 1.0
C      1  0.5743535565057  0.5153701402965  0.6069702564129 1.0
C      1  0.6098664509892  0.3475310765724  0.6406013094925 1.0
C      1  0.7503489977245  0.2957167678865  0.4188217280758 1.0
C      1  0.3384533722085  0.4303965202724  0.6081659107315 1.0
C      1  0.6190804818630  0.4236186874259  0.3766332708015 1.0
C      1  0.5769799671943  0.4484189891446  0.2958632000466 1.0
C      1  0.6837863249228  0.3602140154083  0.4012432782745 1.0
C      1  0.2564038340451  0.4277443694050  0.5876160969838 1.0
C      1  0.5397903747372  0.3789924916848  0.6751974698094 1.0
C      1  0.5721592583480  0.6051307547818  0.6116664810583 1.0
C      1  0.5003997749012  0.4573940595704  0.6377865705811 1.0
C      1  0.4201986913066  0.4700029792212  0.5897713717528 1.0
C      1  0.4733823759469  0.5595049954054  0.3505698582296 1.0
C      1  0.2310737894893  0.4980429711294  0.5378447501840 1.0
C      1  0.4944324866461  0.5195899675884  0.4409356960958 1.0
C      1  0.2589829570901  0.5635715619619  0.4927972631848 1.0
C      1  0.4817052342464  0.7312514894363  0.5491023075843 1.0
C      1  0.5189680489201  0.5077188002823  0.2868044318687 1.0
C      1  0.3844977181933  0.6655018608508  0.4322379773167 1.0
C      1  0.3477749366674  0.5863921666940  0.4785691947930 1.0
C      1  0.6978249256390  0.3316088458897  0.4901659700432 1.0
C      1  0.4243609664027  0.7297483052563  0.4869723731615 1.0
C      1  0.4274290726619  0.6378899237290  0.3559986190355 1.0
C      1  0.4226985632528  0.5232118811651  0.5029407730741 1.0
C      1  0.6570886537630  0.3735251443796  0.5622683594897 1.0
C      1  0.5799226965461  0.4716896696171  0.4520944407801 1.0
C      1  0.6186825569065  0.4599720048594  0.5383157594950 1.0
END
