TITL C-13391-138-73 -0.5 3375.00 -74.90658878 0 0 10 () n - 1
REM
REM Run started: at 2020.12.24 03:50:07 in /gpfs/home/chem/mssmkc/CARBON/AIRSS/Generating-Clusters/Str-Search/Only-C1/C10-100
REM VASP from code version vasp.5.4.4.18Apr17-6-g9f103f2a35 (build Oct 11 2019 16:45:47) gamma-only
REM
REM
REM
REM
REM ./C.cell (67c5d0192afd7a3ce4a0888e5fe73b87)
REM AIRSS Version 0.9.1 bugfix July 2018 build 013d7b7c2542+ Fri, 06 Jul 2018 19:26:36 +0100
REM compiler GCC version 6.3.0
REM options -cpp -iprefix /gpfs/warwick/csc/orac/software/Core/GCCcore/6.3.0/bin/../lib/gcc/x86_64-pc-linux-gnu/6.3.0/ -mtune=generic -march=x86-64 -g -O0
REM seed 2076256015 -1847703484 112293025 -947272415 -1372111398 -342294882 -1070120493 1050019035 -1920852295 72803118 1846294162 1040720280
REM
REM C.POTCAR (d86ddea03c3ceb6dc662c8ad6801f873)
REM 
CELL 1.54180   15.00000   15.00000   15.00000   90.00000   90.00000   90.00000
LATT -1
SFAC C  
C      1  0.5176571204426  0.5188868801666  0.5084716221931 1.0
C      1  0.2786169261627  0.4201540139684  0.5448531408734 1.0
C      1  0.3194442388553  0.3610698804753  0.4710817442956 1.0
C      1  0.3676146404334  0.4348546975697  0.5113798924117 1.0
C      1  0.2303615629049  0.3466235122662  0.5050173299021 1.0
C      1  0.7501774937465  0.6266966979986  0.4820900022863 1.0
C      1  0.6714364331883  0.5920944262183  0.4934012997573 1.0
C      1  0.8282904163417  0.6608249727956  0.4669286112282 1.0
C      1  0.4419790010820  0.4811273004675  0.5137708976255 1.0
C      1  0.5944221668425  0.5576676180738  0.5030055594268 1.0
END
