TITL C-13391-138-77 -2.451 3375.00 -412.57622212 0 0 52 () n - 1
REM
REM Run started: at 2020.12.24 04:36:52 in /gpfs/home/chem/mssmkc/CARBON/AIRSS/Generating-Clusters/Str-Search/Only-C1/C10-100
REM VASP from code version vasp.5.4.4.18Apr17-6-g9f103f2a35 (build Oct 11 2019 16:45:47) gamma-only
REM
REM
REM
REM
REM ./C.cell (67c5d0192afd7a3ce4a0888e5fe73b87)
REM AIRSS Version 0.9.1 bugfix July 2018 build 013d7b7c2542+ Fri, 06 Jul 2018 19:26:36 +0100
REM compiler GCC version 6.3.0
REM options -cpp -iprefix /gpfs/warwick/csc/orac/software/Core/GCCcore/6.3.0/bin/../lib/gcc/x86_64-pc-linux-gnu/6.3.0/ -mtune=generic -march=x86-64 -g -O0
REM seed 1778320676 -484821052 2015406952 384020355 -524789120 1863000786 1201278493 229045761 277050617 -1463555063 -537434727 277247715
REM
REM C.POTCAR (d86ddea03c3ceb6dc662c8ad6801f873)
REM 
CELL 1.54180   15.00000   15.00000   15.00000   90.00000   90.00000   90.00000
LATT -1
SFAC C  
C      1  0.3993293810823  0.6688880210969  0.6512171739618 1.0
C      1  0.7114575445293  0.4401802123772  0.4415078248384 1.0
C      1  0.4079210316508  0.5953182829590  0.4123420260704 1.0
C      1  0.5549500857308  0.6159107005391  0.6437777766101 1.0
C      1  0.3136604325613  0.4269950651048  0.6160385347028 1.0
C      1  0.4933293235463  0.6614604360288  0.4091723315158 1.0
C      1  0.4805162622185  0.6376296535803  0.6987169386055 1.0
C      1  0.3520773537382  0.3427689032398  0.5933985881010 1.0
C      1  0.3682076002873  0.3070151572382  0.5039915811504 1.0
C      1  0.4575436144717  0.2691413239777  0.5371848195922 1.0
C      1  0.6740047779992  0.6700898367007  0.4338838522726 1.0
C      1  0.5923220709735  0.6188803215915  0.4092091455615 1.0
C      1  0.3502141690719  0.6271853846500  0.4962317692468 1.0
C      1  0.5052241782882  0.4868714889706  0.4711330916409 1.0
C      1  0.3437764404605  0.5360497609782  0.5388262067855 1.0
C      1  0.5759999614513  0.4915265988147  0.2995873254306 1.0
C      1  0.5760721504946  0.5175728566657  0.6475720748167 1.0
C      1  0.7461456527428  0.6073078661467  0.4303695298900 1.0
C      1  0.4492671613632  0.5609641339650  0.7532316481421 1.0
C      1  0.4852644166115  0.5349911216269  0.2804243107462 1.0
C      1  0.4414080588109  0.3164417730723  0.6213790723927 1.0
C      1  0.4775106264170  0.4740020531385  0.6696877986509 1.0
C      1  0.2191397317325  0.4517645338857  0.4732490846641 1.0
C      1  0.5450218844652  0.6376901820378  0.5537174857610 1.0
C      1  0.2657136519600  0.4751883863509  0.5515756637044 1.0
C      1  0.7615595984357  0.6984716465655  0.4536721954893 1.0
C      1  0.4870144644944  0.6949885308017  0.5065866374329 1.0
C      1  0.4757948785825  0.3342495674663  0.4111442374914 1.0
C      1  0.6168922816127  0.3152719847908  0.4859688773403 1.0
C      1  0.5742039295999  0.5618401262630  0.4947225952870 1.0
C      1  0.4819520098589  0.6961394145229  0.3137289822465 1.0
C      1  0.6331072010159  0.5498857599584  0.3450121559787 1.0
C      1  0.4929687874004  0.6282251126042  0.2649362604116 1.0
C      1  0.3838719437891  0.3495267916132  0.4195282175643 1.0
C      1  0.3819695133697  0.5017836941787  0.6317311857400 1.0
C      1  0.6289193025878  0.5076293703984  0.5576222614047 1.0
C      1  0.5023543212689  0.3762884063893  0.6612903699368 1.0
C      1  0.4075792250298  0.5040864122322  0.4682332551745 1.0
C      1  0.7153951140520  0.5241829054418  0.3946186351066 1.0
C      1  0.6532681842717  0.3720162332796  0.4095196026104 1.0
C      1  0.2633913953821  0.4549721890169  0.4027366303568 1.0
C      1  0.5906657548698  0.4047065513818  0.3425464087811 1.0
C      1  0.6885210698785  0.4395146725038  0.5369160620830 1.0
C      1  0.5989092582536  0.3719093349283  0.6512251254015 1.0
C      1  0.6454041805651  0.3538685634367  0.5672997608098 1.0
C      1  0.5222861610280  0.4182398266707  0.4107489148191 1.0
C      1  0.4047225591644  0.5248585622260  0.3335913314957 1.0
C      1  0.3789732399075  0.5820702587232  0.6893017000521 1.0
C      1  0.3601905996768  0.4468149792560  0.3905919870685 1.0
C      1  0.4010023300636  0.6834802065269  0.5533100857602 1.0
C      1  0.5264577521368  0.2812244147507  0.4755908815473 1.0
C      1  0.6365474810456  0.4519205293359  0.6903999877554 1.0
END
