TITL C-13391-138-3 -4.624 3375.00 -786.98536416 0 0 96 () n - 1
REM
REM Run started: at 2020.12.23 10:13:16 in /gpfs/home/chem/mssmkc/CARBON/AIRSS/Generating-Clusters/Str-Search/Only-C1/C10-100
REM VASP from code version vasp.5.4.4.18Apr17-6-g9f103f2a35 (build Oct 11 2019 16:45:47) gamma-only
REM
REM
REM
REM
REM ./C.cell (67c5d0192afd7a3ce4a0888e5fe73b87)
REM AIRSS Version 0.9.1 bugfix July 2018 build 013d7b7c2542+ Fri, 06 Jul 2018 19:26:36 +0100
REM compiler GCC version 6.3.0
REM options -cpp -iprefix /gpfs/warwick/csc/orac/software/Core/GCCcore/6.3.0/bin/../lib/gcc/x86_64-pc-linux-gnu/6.3.0/ -mtune=generic -march=x86-64 -g -O0
REM seed -1127218159 -1254990340 1272589321 -1788314136 2029322819 -2051775861 -1239130459 -638443785 753883616 790151269 1165395837 1408871336
REM
REM C.POTCAR (d86ddea03c3ceb6dc662c8ad6801f873)
REM 
CELL 1.54180   15.00000   15.00000   15.00000   90.00000   90.00000   90.00000
LATT -1
SFAC C  
C      1  0.3053995903341  0.3366323778876  0.3461773095346 1.0
C      1  0.2866656286106  0.5450291310697  0.6797828132181 1.0
C      1  0.3536186077887  0.6908025916873  0.7008541315784 1.0
C      1  0.5100236159767  0.5615804841937  0.5957492132645 1.0
C      1  0.5139825498651  0.3477396677641  0.7056125056129 1.0
C      1  0.3973790227254  0.7573345042575  0.6421193027195 1.0
C      1  0.6620030895923  0.7247156651903  0.6490274012707 1.0
C      1  0.6831108102611  0.4816179715636  0.4511567278422 1.0
C      1  0.5999169722850  0.3217505999350  0.6736342307514 1.0
C      1  0.6972439268772  0.2625574741939  0.5160649177830 1.0
C      1  0.2496052060375  0.4067619044836  0.3539642030024 1.0
C      1  0.4158382283288  0.6528032931135  0.7612905616089 1.0
C      1  0.7153189617191  0.6738631851396  0.3301624945747 1.0
C      1  0.6086429433309  0.2334493298224  0.6347470848949 1.0
C      1  0.5720090147719  0.3886010852309  0.2512954044310 1.0
C      1  0.3817638655637  0.3759698345946  0.4955422476898 1.0
C      1  0.4891182577512  0.6814774015104  0.3136795944730 1.0
C      1  0.3911783244781  0.4147552241645  0.7264325408580 1.0
C      1  0.4495509710949  0.4941433120542  0.5721425060369 1.0
C      1  0.6713056603655  0.3869660636629  0.2509454135644 1.0
C      1  0.4402299598954  0.3943654045265  0.5733631292470 1.0
C      1  0.7159881693618  0.6229980921260  0.7180514485461 1.0
C      1  0.6430857471339  0.5602919365793  0.4156836177760 1.0
C      1  0.5491278112205  0.5580708532499  0.4052491756850 1.0
C      1  0.4176895091791  0.3406844298625  0.6564285589507 1.0
C      1  0.4468934798393  0.2103872052602  0.5650122694421 1.0
C      1  0.1649323231762  0.4891488672523  0.5351962709509 1.0
C      1  0.4808588186254  0.6306080592731  0.3975417379489 1.0
C      1  0.6751993537062  0.5390624583445  0.7285879218007 1.0
C      1  0.7788587739839  0.6109334684883  0.5721242480165 1.0
C      1  0.2492725735778  0.6296579302683  0.4788810997286 1.0
C      1  0.4203286458363  0.5595405307789  0.7758844362806 1.0
C      1  0.6407407259708  0.6845020921023  0.2767405782113 1.0
C      1  0.3519505319173  0.6124913838488  0.5094131612444 1.0
C      1  0.5479446903037  0.3088865313620  0.3043014955869 1.0
C      1  0.4072741947594  0.6551518744560  0.4416681529561 1.0
C      1  0.6209364839710  0.6038371755727  0.2206507059143 1.0
C      1  0.5689875549799  0.7296580038403  0.3245255187442 1.0
C      1  0.7825490764662  0.5984516097474  0.4765169448559 1.0
C      1  0.2932098526113  0.6719756128129  0.5622334779744 1.0
C      1  0.3557126980693  0.4632257500403  0.4455155183992 1.0
C      1  0.6882527450930  0.5435391949665  0.2008516330084 1.0
C      1  0.5814446647012  0.7593260676434  0.4180441455413 1.0
C      1  0.2916291741295  0.6356396710201  0.6565304540427 1.0
C      1  0.2838757358340  0.6523631187401  0.3820474527571 1.0
C      1  0.7628199861712  0.5058335997420  0.4964803381829 1.0
C      1  0.4579142601314  0.2946885961171  0.3206959629937 1.0
C      1  0.7054286648168  0.4626930831363  0.2101178308005 1.0
C      1  0.4572294053110  0.6108461810028  0.2519143663820 1.0
C      1  0.4822200975022  0.4212184228713  0.7543465369043 1.0
C      1  0.4772201096182  0.3421333703738  0.4901185438147 1.0
C      1  0.5141240949702  0.4700525922752  0.4078586919686 1.0
C      1  0.1852168643492  0.4014589300049  0.5434019821926 1.0
C      1  0.6741342123683  0.3813230345841  0.6384321596698 1.0
C      1  0.4163570224305  0.2391282166857  0.3895734298131 1.0
C      1  0.3452782599556  0.7618145480577  0.5601850335007 1.0
C      1  0.7415059618201  0.6665080502441  0.6337207095918 1.0
C      1  0.3293811834675  0.2664814674602  0.4104692796808 1.0
C      1  0.5768836669873  0.7655642714798  0.5003591779062 1.0
C      1  0.7050760025649  0.4715595629933  0.6585368673031 1.0
C      1  0.4969791416374  0.6991852405249  0.7470363127465 1.0
C      1  0.5719599749178  0.7324601695674  0.5958175674865 1.0
C      1  0.7186394794453  0.6272683643298  0.4067392760595 1.0
C      1  0.2316649098486  0.3339759539261  0.5349964401122 1.0
C      1  0.5433348429736  0.6370138611874  0.5889598643921 1.0
C      1  0.2769870081981  0.4877161794855  0.3794009114876 1.0
C      1  0.3504675537420  0.5027348126840  0.7336848096398 1.0
C      1  0.3797748205072  0.5556637866795  0.2725821749982 1.0
C      1  0.7640677658087  0.5125594797146  0.5929577153008 1.0
C      1  0.3015935130758  0.5742130783623  0.3313990855198 1.0
C      1  0.3785773073147  0.5233987254694  0.5206958663795 1.0
C      1  0.6320367436810  0.2775700355019  0.3516490535630 1.0
C      1  0.5335218111500  0.5594424892720  0.2214275302252 1.0
C      1  0.4265104476753  0.4509565567718  0.3718671414610 1.0
C      1  0.3772942866644  0.2598575760178  0.5995547460473 1.0
C      1  0.5425171370460  0.1932487689813  0.5790766605391 1.0
C      1  0.6897399613664  0.3515588995073  0.5424554227065 1.0
C      1  0.1906551138160  0.5575068652916  0.4951042895995 1.0
C      1  0.5143776789868  0.4634723172855  0.2331933994363 1.0
C      1  0.5052215637821  0.5116639374987  0.7818284550520 1.0
C      1  0.6369449449063  0.2340840319367  0.4401192784764 1.0
C      1  0.7047194095054  0.3220721137104  0.3110606095210 1.0
C      1  0.6547454294697  0.6945887335428  0.7384074268711 1.0
C      1  0.5624771782878  0.1986230835718  0.4835219384692 1.0
C      1  0.3479194364298  0.7266524081320  0.4040701585467 1.0
C      1  0.5867139020321  0.5594248732507  0.7743636274453 1.0
C      1  0.3421539029036  0.7857285079662  0.4729663163064 1.0
C      1  0.4907709612055  0.7541980992898  0.6634472596775 1.0
C      1  0.4186881893386  0.4610420072471  0.2685643744178 1.0
C      1  0.5492498536635  0.3994194940510  0.4557349945792 1.0
C      1  0.5760841883260  0.6575114713265  0.7726245582507 1.0
C      1  0.3193645912559  0.2971111899993  0.5139501740872 1.0
C      1  0.6988010013159  0.2221543315113  0.6035906639651 1.0
C      1  0.3942079223768  0.3699301312072  0.3085733545658 1.0
C      1  0.6385290908032  0.4075071253858  0.4812796523028 1.0
C      1  0.4712705019778  0.2338333491023  0.4696640207417 1.0
END
