TITL C-13391-138-126 -4.498 3375.00 -759.35292333 0 0 94 () n - 1
REM
REM Run started: at 2020.12.24 14:25:09 in /gpfs/home/chem/mssmkc/CARBON/AIRSS/Generating-Clusters/Str-Search/Only-C1/C10-100
REM VASP from code version vasp.5.4.4.18Apr17-6-g9f103f2a35 (build Oct 11 2019 16:45:47) gamma-only
REM
REM
REM
REM
REM ./C.cell (67c5d0192afd7a3ce4a0888e5fe73b87)
REM AIRSS Version 0.9.1 bugfix July 2018 build 013d7b7c2542+ Fri, 06 Jul 2018 19:26:36 +0100
REM compiler GCC version 6.3.0
REM options -cpp -iprefix /gpfs/warwick/csc/orac/software/Core/GCCcore/6.3.0/bin/../lib/gcc/x86_64-pc-linux-gnu/6.3.0/ -mtune=generic -march=x86-64 -g -O0
REM seed 698498144 -726604079 681458051 808135573 565350169 826057977 -1931788586 -1326927615 -354540013 -1429451162 74624857 -43027765
REM
REM C.POTCAR (d86ddea03c3ceb6dc662c8ad6801f873)
REM 
CELL 1.54180   15.00000   15.00000   15.00000   90.00000   90.00000   90.00000
LATT -1
SFAC C  
C      1  0.6877389179408  0.2539666615643  0.5145458040854 1.0
C      1  0.4392223042280  0.6162062347832  0.6093958155942 1.0
C      1  0.6594066600064  0.6059076606937  0.5365835291956 1.0
C      1  0.3575042492378  0.5845996515108  0.6717774009442 1.0
C      1  0.3206184164874  0.3844952766400  0.6364945716595 1.0
C      1  0.7139789936035  0.5660260642853  0.6110343798371 1.0
C      1  0.6712852827232  0.2809642185492  0.4206707129339 1.0
C      1  0.4665683565009  0.6458447399906  0.4284368139341 1.0
C      1  0.7497496102561  0.4960043644743  0.4304209767639 1.0
C      1  0.3536789498846  0.6432256183238  0.2263303332250 1.0
C      1  0.3290638196932  0.6491391712248  0.7424722485456 1.0
C      1  0.2267519399834  0.5011227698950  0.4534668365707 1.0
C      1  0.3211674990013  0.3926829430003  0.2773623135733 1.0
C      1  0.3931003460140  0.5048831952845  0.7294732808072 1.0
C      1  0.3738702890423  0.2942687977589  0.4042383728397 1.0
C      1  0.7488793812777  0.4769203384601  0.5965908639965 1.0
C      1  0.5883746721012  0.5249394756912  0.4297897235571 1.0
C      1  0.5878820702716  0.6286893301785  0.3135440476923 1.0
C      1  0.5941154959562  0.3600019886831  0.7711943402447 1.0
C      1  0.6737241185488  0.4114680249293  0.7534693565800 1.0
C      1  0.4753947294088  0.2011146603183  0.5640515315427 1.0
C      1  0.4674286816044  0.2729804113640  0.4006008782131 1.0
C      1  0.5935527077227  0.2798588464927  0.4963385660108 1.0
C      1  0.6709815862680  0.7304528697766  0.3784251911817 1.0
C      1  0.6797091625011  0.5683936286764  0.4403220453447 1.0
C      1  0.5087703225357  0.2361283305341  0.4802901419815 1.0
C      1  0.6734064887137  0.6388622517021  0.3677938534706 1.0
C      1  0.2314124327952  0.6143801562195  0.3242397374955 1.0
C      1  0.7000179910044  0.4994471743469  0.7455819151277 1.0
C      1  0.2938489863963  0.6749298796403  0.2923192409878 1.0
C      1  0.5443278137447  0.7262660471347  0.5663028483862 1.0
C      1  0.4438339975078  0.2706917359676  0.7012149062971 1.0
C      1  0.3198505021416  0.3112437645265  0.3311545722181 1.0
C      1  0.5254880731863  0.5887210444285  0.7876764103244 1.0
C      1  0.6249107702153  0.2838483983271  0.3373851445427 1.0
C      1  0.5865986107761  0.7415476644214  0.3291475634135 1.0
C      1  0.5343881687887  0.4710637044531  0.2354703650349 1.0
C      1  0.4301157456096  0.7266564375165  0.3797541244644 1.0
C      1  0.4338504894436  0.3543647993515  0.7437541836535 1.0
C      1  0.6759557192027  0.5797524958469  0.7004637090483 1.0
C      1  0.2361016787265  0.5657335187850  0.5338606200674 1.0
C      1  0.3933749635623  0.6652181125015  0.7971726817941 1.0
C      1  0.6979931034267  0.1723606616486  0.5652322775455 1.0
C      1  0.6699218408426  0.7657094404015  0.4692081301922 1.0
C      1  0.4800417243250  0.5021898386848  0.7696341543973 1.0
C      1  0.3257798176268  0.4565696721883  0.5790340768678 1.0
C      1  0.3643795007908  0.4349867020480  0.2025514311587 1.0
C      1  0.6272018173884  0.1486188415299  0.6032278061954 1.0
C      1  0.3331779222580  0.7332186198971  0.3575206254151 1.0
C      1  0.2140215613709  0.6573739221194  0.5259806614463 1.0
C      1  0.5497952118419  0.8264095137129  0.5292348722279 1.0
C      1  0.4894106228512  0.8268036283289  0.4572946304820 1.0
C      1  0.5290859700788  0.2990646287162  0.3295489033825 1.0
C      1  0.4127006794577  0.5921633893114  0.2005077468823 1.0
C      1  0.5324871384604  0.5949629042474  0.3916847463991 1.0
C      1  0.4046802893049  0.2499018325386  0.6131159640622 1.0
C      1  0.7068851051335  0.3558506029760  0.4944928581635 1.0
C      1  0.5977712986741  0.2672038668763  0.7546923645202 1.0
C      1  0.3319526793358  0.3427033018859  0.4823432932920 1.0
C      1  0.2969280537368  0.5437677641404  0.5997714796199 1.0
C      1  0.4085883146204  0.7670323099493  0.4734560955152 1.0
C      1  0.5550127042858  0.3803089393556  0.2604341801156 1.0
C      1  0.6383279808066  0.8487963436717  0.5006277271164 1.0
C      1  0.2494306563399  0.3739592912711  0.3478163772723 1.0
C      1  0.6460059539717  0.3531373796290  0.2748312417972 1.0
C      1  0.3645694442610  0.4134963674165  0.7157786090086 1.0
C      1  0.5675206980940  0.5803308564432  0.5744828745528 1.0
C      1  0.6362246111228  0.7020650984489  0.5289336975632 1.0
C      1  0.2146970675522  0.5516497519707  0.3769671819229 1.0
C      1  0.7349968310432  0.4360808440742  0.6841476868884 1.0
C      1  0.5117776080952  0.7836588626898  0.3675694202613 1.0
C      1  0.7480257771260  0.4758060023371  0.3395576363311 1.0
C      1  0.3801857545234  0.4681328110178  0.2947404631377 1.0
C      1  0.7125859314584  0.4168153565663  0.2738734918160 1.0
C      1  0.5091862331373  0.4068728084408  0.7735911804608 1.0
C      1  0.4752191298957  0.6563625012291  0.8280146458628 1.0
C      1  0.4389938398464  0.4992291204346  0.2233879265715 1.0
C      1  0.4668426521824  0.4636368027287  0.5064478774078 1.0
C      1  0.5364611064179  0.6511835283535  0.6406466897874 1.0
C      1  0.3822229046482  0.4285063284335  0.5055436627395 1.0
C      1  0.3403751156825  0.3078232400872  0.5803544899339 1.0
C      1  0.6025774327513  0.5421942817302  0.2533973045346 1.0
C      1  0.2411173242921  0.7285947125140  0.4943859973801 1.0
C      1  0.5558250375436  0.4454756483474  0.4654810621233 1.0
C      1  0.5908737900263  0.6177381213141  0.7187795296428 1.0
C      1  0.4523288862126  0.6843265986914  0.5237264142638 1.0
C      1  0.2502089906297  0.4047714660512  0.4370645358394 1.0
C      1  0.3121439971340  0.7628514219264  0.4442392739013 1.0
C      1  0.5271099197912  0.2261406656734  0.7103687892731 1.0
C      1  0.6090267277308  0.3740702496982  0.4951401371697 1.0
C      1  0.7600089167595  0.4380906925617  0.5073807613316 1.0
C      1  0.6885549385552  0.5076783774502  0.2684150316091 1.0
C      1  0.5418731397988  0.1723780623451  0.6295160374153 1.0
C      1  0.4868854521461  0.5379336676442  0.5652135940226 1.0
END
