TITL C-13391-138-183 -4.344 3375.00 -755.32335644 0 0 91 () n - 1
REM
REM Run started: at 2020.12.25 05:19:09 in /gpfs/home/chem/mssmkc/CARBON/AIRSS/Generating-Clusters/Str-Search/Only-C1/C10-100
REM VASP from code version vasp.5.4.4.18Apr17-6-g9f103f2a35 (build Oct 11 2019 16:45:47) gamma-only
REM
REM
REM
REM
REM ./C.cell (67c5d0192afd7a3ce4a0888e5fe73b87)
REM AIRSS Version 0.9.1 bugfix July 2018 build 013d7b7c2542+ Fri, 06 Jul 2018 19:26:36 +0100
REM compiler GCC version 6.3.0
REM options -cpp -iprefix /gpfs/warwick/csc/orac/software/Core/GCCcore/6.3.0/bin/../lib/gcc/x86_64-pc-linux-gnu/6.3.0/ -mtune=generic -march=x86-64 -g -O0
REM seed 725622176 1668871818 1129978284 792953813 -1161469343 -1666496214 1120476098 -684178186 -949270638 -836386847 -1337092528 1704964380
REM
REM C.POTCAR (d86ddea03c3ceb6dc662c8ad6801f873)
REM 
CELL 1.54180   15.00000   15.00000   15.00000   90.00000   90.00000   90.00000
LATT -1
SFAC C  
C      1  0.5194169839686  0.4251188606229  0.7835791643722 1.0
C      1  0.7127334340325  0.5433210867848  0.6542103564191 1.0
C      1  0.4619774342827  0.4989539234435  0.7946262343513 1.0
C      1  0.6082892621167  0.4007206917018  0.2553678667967 1.0
C      1  0.2308274705333  0.5099935033531  0.6731303939632 1.0
C      1  0.4790134128156  0.6390465654184  0.4307589645452 1.0
C      1  0.2792712898501  0.6945043106156  0.5744350565983 1.0
C      1  0.4930542406038  0.6910722349063  0.2523166695540 1.0
C      1  0.5439608318905  0.3978265725700  0.6342479732870 1.0
C      1  0.7635041062962  0.5057809653393  0.5778762507607 1.0
C      1  0.5879851672465  0.2519593810221  0.3154263059155 1.0
C      1  0.4626988753604  0.4315571282074  0.3205859824952 1.0
C      1  0.5945940374804  0.4341041077160  0.7162164248491 1.0
C      1  0.4373012506512  0.3542927646287  0.2666155800206 1.0
C      1  0.6306587169958  0.4921099792943  0.2558346022197 1.0
C      1  0.5688323754230  0.6367150789064  0.2398879420949 1.0
C      1  0.4905413947387  0.4285669353572  0.4116181178786 1.0
C      1  0.6967715019978  0.6887792140184  0.4371463255833 1.0
C      1  0.5038302409303  0.7663120879567  0.3116742656217 1.0
C      1  0.3147484962892  0.3142488403703  0.5774451966798 1.0
C      1  0.3437735937838  0.3202001383562  0.6686663562801 1.0
C      1  0.5776855706861  0.5978644028288  0.7235635240124 1.0
C      1  0.6888238380404  0.5529265037180  0.3045980959607 1.0
C      1  0.6381769080037  0.5226421377929  0.7035841228466 1.0
C      1  0.3716033005096  0.4669986983919  0.7607971707718 1.0
C      1  0.5412713673044  0.1918573939506  0.3752953899286 1.0
C      1  0.4989018542428  0.2211297471061  0.2972663493992 1.0
C      1  0.5548278767696  0.5451567054148  0.2336097016209 1.0
C      1  0.5466639663868  0.2233716381388  0.5441955797513 1.0
C      1  0.6941760518526  0.2962791974660  0.4736606252388 1.0
C      1  0.6374958084737  0.2479209934503  0.5421641761005 1.0
C      1  0.4164835516272  0.2705655538823  0.2977210707831 1.0
C      1  0.4047191759933  0.6474258760450  0.2668154655970 1.0
C      1  0.3094031649981  0.5399360385334  0.7227675645734 1.0
C      1  0.7646237271627  0.5915748591172  0.5371269476554 1.0
C      1  0.2833934556653  0.4350508216124  0.3628848299405 1.0
C      1  0.4734144292427  0.7407725166025  0.4590044125159 1.0
C      1  0.5821618653786  0.6916225328949  0.6746073295560 1.0
C      1  0.6591727274330  0.7116518624623  0.3516406174718 1.0
C      1  0.3068865065363  0.3528007887701  0.4061141187248 1.0
C      1  0.2796934395412  0.3612840747633  0.5027018330088 1.0
C      1  0.4956623870085  0.4339452665039  0.5552648520327 1.0
C      1  0.3133871293322  0.5183654548411  0.3097134098656 1.0
C      1  0.5674221585838  0.7682409620937  0.4599052211387 1.0
C      1  0.6931078203872  0.3524978286998  0.3962380612217 1.0
C      1  0.7338223817997  0.3453528683953  0.5471354739726 1.0
C      1  0.7188407794899  0.6331242492791  0.6096017911629 1.0
C      1  0.5311084205281  0.4886240078409  0.4756788585839 1.0
C      1  0.7331168060960  0.5305207512132  0.3857930592233 1.0
C      1  0.4335963372453  0.2778188748957  0.4534134210211 1.0
C      1  0.4859529195905  0.2461124904958  0.6163131106691 1.0
C      1  0.6386492012251  0.3313992171851  0.3157944923481 1.0
C      1  0.6504269079175  0.6943955163379  0.5993276718126 1.0
C      1  0.3363469874212  0.6369766963160  0.7214192306226 1.0
C      1  0.3644007571619  0.6963482952878  0.3402291169805 1.0
C      1  0.6176405809111  0.3420562745996  0.6771853919424 1.0
C      1  0.6414267739431  0.7272897669679  0.5085198835507 1.0
C      1  0.4307919898449  0.5069906436665  0.5933760485860 1.0
C      1  0.3693055776046  0.2840030992746  0.3838822952714 1.0
C      1  0.4628848430326  0.3688440370323  0.4791814544554 1.0
C      1  0.6541843574497  0.6429153583814  0.2879058405965 1.0
C      1  0.4190142138372  0.6719968419828  0.5085702542135 1.0
C      1  0.4708651844907  0.4992966858657  0.2447306062132 1.0
C      1  0.3013494489133  0.6573257977339  0.4011385656820 1.0
C      1  0.4700067779963  0.3476297347857  0.7586509378576 1.0
C      1  0.3918644558425  0.2629535147955  0.6119813668607 1.0
C      1  0.4934079943854  0.5852492271108  0.7730497989960 1.0
C      1  0.5224303605984  0.3079817478429  0.6838980980627 1.0
C      1  0.2408829465119  0.4912896766880  0.4277701763329 1.0
C      1  0.4984142367976  0.6417708731284  0.6529948172390 1.0
C      1  0.4707106766238  0.7492613148011  0.7645634706574 1.0
C      1  0.5852024390051  0.7701338131736  0.3642459206246 1.0
C      1  0.2166303270426  0.4840183222758  0.5960084603141 1.0
C      1  0.5230728365608  0.5780707712081  0.4884410282932 1.0
C      1  0.2338606786035  0.4485308461198  0.5118965959985 1.0
C      1  0.3775231242015  0.3664701590772  0.7455665965230 1.0
C      1  0.7450684612761  0.6074199647711  0.4474587424047 1.0
C      1  0.5041760611322  0.2152635226762  0.4601897717426 1.0
C      1  0.3209832484199  0.6802312990036  0.4954369720953 1.0
C      1  0.7559080194847  0.4317622677737  0.5211181776455 1.0
C      1  0.6763828364144  0.3050109714553  0.6108014956959 1.0
C      1  0.5112251043028  0.4002010898810  0.2302677883455 1.0
C      1  0.4664852442386  0.6007851464983  0.5701192984487 1.0
C      1  0.3848457043766  0.5533102444904  0.2553832311423 1.0
C      1  0.2952136771379  0.6861727950421  0.6578435080989 1.0
C      1  0.4349122920777  0.6585632087165  0.7360002751876 1.0
C      1  0.3812774699145  0.4989491093314  0.6664561353518 1.0
C      1  0.7351516287126  0.4402474714628  0.4246424729778 1.0
C      1  0.2703270435075  0.5722601089243  0.3780421667194 1.0
C      1  0.4298862552205  0.7629546412270  0.3706003245423 1.0
C      1  0.5474837326654  0.7650503593180  0.7344692049321 1.0
END
