TITL C-141674-2200-31 -4.908 3375.00 0 0 0 105 (C1) n - 1
REM
REM Run started: at 2020.03.16 17:03:53 in /rds/user/bk393/hpc-work/AIRSS.pl-DENE/CARBON/New-Try
REM VASP from code version vasp.5.4.4.18Apr17-6-g9f103f2a35 (build Oct 11 2019 16:45:47) gamma-only
REM
REM
REM
REM
REM ./C.cell (9f5935e56d41cf50cb14479ce98dda23)
REM AIRSS Version 0.9.1 bugfix July 2018 build 013d7b7c2542+ Fri, 06 Jul 2018 19:26:36 +0100
REM compiler GCC version 4.8.5 20150623 (Red Hat 4.8.5-39)
REM options -cpp -mtune=generic -march=x86-64 -g -O0
REM seed -1139949658 1923270078 1682145893 1951411987 503200818 1702031985 -743375924 -138247337 -622560594 35622926 -1105380702 120596025
REM
REM C.POTCAR (d86ddea03c3ceb6dc662c8ad6801f873)
REM 
CELL 1.54180   15.00000   15.00000   15.00000   90.00000   90.00000   90.00000
LATT -1
SFAC C  
C      1  0.6744211248240  0.2511244775276  0.5170521780548 1.0
C      1  0.4697860286554  0.4172019498720  0.7535325877861 1.0
C      1  0.4518310506088  0.7714961295637  0.4806888607892 1.0
C      1  0.7309352588920  0.3793713426802  0.3114496275846 1.0
C      1  0.3247758232854  0.7216686428443  0.3752114817730 1.0
C      1  0.3275046156700  0.4986566020642  0.5640984451640 1.0
C      1  0.2487229400182  0.4145267184547  0.6575828842374 1.0
C      1  0.5877435250108  0.2189063184804  0.5043759771621 1.0
C      1  0.4365987669546  0.1809747539155  0.5694074778479 1.0
C      1  0.3257097071505  0.7326939349223  0.5550958797677 1.0
C      1  0.2928371452284  0.4567001136622  0.7338162489092 1.0
C      1  0.7269357556821  0.3005690479099  0.5885401857599 1.0
C      1  0.5119456117213  0.4117321478772  0.5066629734485 1.0
C      1  0.4510971531663  0.6049341401670  0.3610526005239 1.0
C      1  0.7350559798055  0.6883629517877  0.4251101288837 1.0
C      1  0.6757765089591  0.6724015018485  0.6855919342085 1.0
C      1  0.2222528471146  0.5803064137744  0.4384935004223 1.0
C      1  0.6299689056865  0.4534278664459  0.7670911325727 1.0
C      1  0.8173529360740  0.5252265992156  0.2808230542968 1.0
C      1  0.3595308957901  0.7485452016242  0.4641039123643 1.0
C      1  0.3789074196474  0.7406232030374  0.3008516599713 1.0
C      1  0.7271607395602  0.2950590322631  0.4495513680522 1.0
C      1  0.2517557560684  0.4737049604518  0.3200825467940 1.0
C      1  0.5325845502207  0.6625353774912  0.3798182322824 1.0
C      1  0.5340911227722  0.7368391123349  0.4460159040059 1.0
C      1  0.2703272615161  0.5592874608767  0.2824949736805 1.0
C      1  0.2144393159043  0.6093483332382  0.5243426437643 1.0
C      1  0.5779222504409  0.6978965833604  0.6701732162071 1.0
C      1  0.7482297580288  0.5519388193558  0.5924036935404 1.0
C      1  0.4618606131749  0.3034213938068  0.6478964472248 1.0
C      1  0.4448870969495  0.5125080498414  0.7908295843083 1.0
C      1  0.3707652696813  0.2737222967195  0.4389432634021 1.0
C      1  0.6734534530947  0.4872886492466  0.6208688972204 1.0
C      1  0.8203554358588  0.6053807197667  0.3045111834994 1.0
C      1  0.5277111852530  0.5539753916140  0.3968174594723 1.0
C      1  0.4381024984699  0.7330291610812  0.2410814243097 1.0
C      1  0.5678074866924  0.4950812379620  0.3206389026728 1.0
C      1  0.5329187399780  0.1958044471101  0.5787149738059 1.0
C      1  0.5015426275941  0.6629912810958  0.7291202198752 1.0
C      1  0.4694637953974  0.7790867441155  0.5757989170842 1.0
C      1  0.2824433404796  0.6245015489083  0.3695754791182 1.0
C      1  0.5209834261187  0.5685471369457  0.5581375537491 1.0
C      1  0.7798561218022  0.3416398021037  0.5144475611772 1.0
C      1  0.4869715842171  0.5840325774231  0.1829022950061 1.0
C      1  0.7479943346626  0.6554509247596  0.3428739749403 1.0
C      1  0.5910938922884  0.5324966675478  0.6302915557635 1.0
C      1  0.6126270979685  0.5475564453871  0.7822757135338 1.0
C      1  0.7411322283150  0.4668226029114  0.2942730388679 1.0
C      1  0.3975173918764  0.7406911082947  0.6217313369552 1.0
C      1  0.2526501327299  0.6810194250814  0.5812454249411 1.0
C      1  0.5460256543862  0.2577869367361  0.4185932502412 1.0
C      1  0.4110612129396  0.6824564260821  0.6999386777799 1.0
C      1  0.2387977888915  0.4828566330973  0.4176770693483 1.0
C      1  0.5799897343455  0.6694681651651  0.2896713066079 1.0
C      1  0.5555027557854  0.3257587510729  0.2828823227759 1.0
C      1  0.6608157853679  0.5268201441605  0.2969977980208 1.0
C      1  0.3252675206556  0.4011919358898  0.3322049857569 1.0
C      1  0.8165784887478  0.4262157435792  0.5162397120896 1.0
C      1  0.3426351920337  0.2877772389577  0.7169761020988 1.0
C      1  0.2816073959987  0.3608283141233  0.7259699378879 1.0
C      1  0.5180091319932  0.5791823696819  0.7795337181847 1.0
C      1  0.3564757256444  0.5318236076602  0.7582408829932 1.0
C      1  0.5451041784860  0.3647038154117  0.4327977315461 1.0
C      1  0.2590318014283  0.5621717467696  0.5945820406840 1.0
C      1  0.4218922071718  0.3327389661220  0.7337029229257 1.0
C      1  0.7441667338638  0.5295809263059  0.6910913018217 1.0
C      1  0.2482122046889  0.3947417470605  0.4709873424739 1.0
C      1  0.3717699187711  0.2281049854384  0.5235880415156 1.0
C      1  0.3468694512835  0.4815106289468  0.4021013188613 1.0
C      1  0.5464056186657  0.2531291434177  0.6561423907545 1.0
C      1  0.4934524942857  0.5112551199329  0.4841405070209 1.0
C      1  0.3867328519363  0.5152026316554  0.4855817280165 1.0
C      1  0.2696738581017  0.4211662389730  0.5644595007355 1.0
C      1  0.4512509773649  0.4498097161992  0.6527877328308 1.0
C      1  0.6862622001414  0.5957152796735  0.7386308300919 1.0
C      1  0.3487544651813  0.5546680366552  0.2283050426776 1.0
C      1  0.3827104710982  0.2467849557715  0.6228980181492 1.0
C      1  0.5142301026930  0.6761344671613  0.2205560461492 1.0
C      1  0.5605209617589  0.7630681807203  0.5950135310507 1.0
C      1  0.6966852948343  0.6427664706492  0.5840936130755 1.0
C      1  0.6963492366707  0.3367325193235  0.6687764765271 1.0
C      1  0.6059587396337  0.3131719730051  0.6993666624360 1.0
C      1  0.3984166083116  0.5261738506484  0.1460824699254 1.0
C      1  0.3954273922065  0.3771032608426  0.2666012398379 1.0
C      1  0.7049641797848  0.4353272426721  0.7012369385899 1.0
C      1  0.5633107359898  0.4013651534964  0.3477631503252 1.0
C      1  0.4283807494902  0.4499888557522  0.2076768243409 1.0
C      1  0.2634924205349  0.6268417389909  0.6630904693312 1.0
C      1  0.6062240611435  0.7525562311249  0.5093271820017 1.0
C      1  0.3399058881712  0.6199909218150  0.7202557564702 1.0
C      1  0.6985295009538  0.3081093715009  0.3589979347425 1.0
C      1  0.4758906314180  0.3843273419064  0.5891448384352 1.0
C      1  0.3678557301571  0.5771243550500  0.4049763555589 1.0
C      1  0.6912327509747  0.7039185066887  0.5018417705888 1.0
C      1  0.4986023451496  0.5285518852796  0.6396947030712 1.0
C      1  0.5679038283825  0.3870023299899  0.7539399276841 1.0
C      1  0.4573554120432  0.3127876044048  0.2985045001743 1.0
C      1  0.5044910981095  0.5057882001402  0.2409755043815 1.0
C      1  0.4472677204005  0.2633998792696  0.3814634304534 1.0
C      1  0.8144868838259  0.5064660568195  0.5374282422688 1.0
C      1  0.6644510867319  0.6185067313521  0.2957390255080 1.0
C      1  0.3046059010161  0.3418413124169  0.4151825062777 1.0
C      1  0.4332551166888  0.5755789458506  0.2710753452967 1.0
C      1  0.5974594136163  0.6214260922781  0.5975367418237 1.0
C      1  0.6093514829919  0.2693932675423  0.3384458830013 1.0
END
