TITL C-141674-2200-16 -0.53 3375.00 0 0 0 10 (C1) n - 1
REM
REM Run started: at 2020.03.16 06:58:15 in /rds/user/bk393/hpc-work/AIRSS.pl-DENE/CARBON/New-Try
REM VASP from code version vasp.5.4.4.18Apr17-6-g9f103f2a35 (build Oct 11 2019 16:45:47) gamma-only
REM
REM
REM
REM
REM ./C.cell (9f5935e56d41cf50cb14479ce98dda23)
REM AIRSS Version 0.9.1 bugfix July 2018 build 013d7b7c2542+ Fri, 06 Jul 2018 19:26:36 +0100
REM compiler GCC version 4.8.5 20150623 (Red Hat 4.8.5-39)
REM options -cpp -mtune=generic -march=x86-64 -g -O0
REM seed -790346583 -261431353 1557107261 672085402 -1345192432 1125563029 -169761681 959976857 1676670494 -1582964223 1253395150 317066022
REM
REM C.POTCAR (d86ddea03c3ceb6dc662c8ad6801f873)
REM 
CELL 1.54180   15.00000   15.00000   15.00000   90.00000   90.00000   90.00000
LATT -1
SFAC C  
C      1  0.5719008026512  0.4665341293108  0.3942480118009 1.0
C      1  0.5085109652878  0.5149043513467  0.4213783821735 1.0
C      1  0.6305076421930  0.3914000413430  0.4900410519820 1.0
C      1  0.5889011919763  0.4104821846962  0.5668843384049 1.0
C      1  0.5259479889881  0.4675259741134  0.5606794007036 1.0
C      1  0.3055731167816  0.5836535503100  0.5506103508569 1.0
C      1  0.3993209016253  0.5769455094298  0.5359944140049 1.0
C      1  0.4710017222641  0.5260035653412  0.5091563157127 1.0
C      1  0.6385834011605  0.4052461109499  0.4054158304806 1.0
C      1  0.3597521670722  0.6573045831591  0.5655919038798 1.0
END
