TITL C-141674-2200-33 -0.344 3375.00 0 0 0 7 (Cs) n - 1
REM
REM Run started: at 2020.03.16 17:37:19 in /rds/user/bk393/hpc-work/AIRSS.pl-DENE/CARBON/New-Try
REM VASP from code version vasp.5.4.4.18Apr17-6-g9f103f2a35 (build Oct 11 2019 16:45:47) gamma-only
REM
REM
REM
REM
REM ./C.cell (9f5935e56d41cf50cb14479ce98dda23)
REM AIRSS Version 0.9.1 bugfix July 2018 build 013d7b7c2542+ Fri, 06 Jul 2018 19:26:36 +0100
REM compiler GCC version 4.8.5 20150623 (Red Hat 4.8.5-39)
REM options -cpp -mtune=generic -march=x86-64 -g -O0
REM seed 1901451944 3759133 -744970156 -1986062657 807159393 -2066897741 1876535683 1061163398 1603674539 -1020365360 -73742227 852741405
REM
REM C.POTCAR (d86ddea03c3ceb6dc662c8ad6801f873)
REM 
CELL 1.54180   15.00000   15.00000   15.00000   90.00000   90.00000   90.00000
LATT -1
SFAC C  
C      1  0.5757836539088  0.4217208972015  0.5640804749446 1.0
C      1  0.6297853297686  0.4602602759355  0.3925332072725 1.0
C      1  0.5933745937399  0.4501369593375  0.4725284660832 1.0
C      1  0.3489735298781  0.5433516558707  0.4985462765873 1.0
C      1  0.3957965996032  0.6138250104765  0.5303588880881 1.0
C      1  0.5150647102238  0.4795664871376  0.5239693309850 1.0
C      1  0.4412216828775  0.5311388140406  0.5179833560392 1.0
END
