TITL C-145684-4338-4 -7.908 3375.00 -1394.59354531 0 0 169 (C1) n - 1
REM
REM Run started: at 2020.12.22 16:44:12 in /rds/project/t2_vol4/rds-t2-cs072/BORA/CARBON/AIRSS/Generating-Clusters/Str-Search/Only-C1/C100-200
REM VASP from code version vasp.5.4.4.18Apr17-6-g9f103f2a35 (build Oct 11 2019 16:45:47) gamma-only
REM
REM
REM
REM
REM ./C.cell (efaf0b2bf1589a83377268d7ebe2c73f)
REM AIRSS Version 0.9.1 bugfix July 2018 build 013d7b7c2542+ Fri, 06 Jul 2018 19:26:36 +0100
REM compiler GCC version 4.8.5 20150623 (Red Hat 4.8.5-39)
REM options -cpp -mtune=generic -march=x86-64 -g -O0
REM seed 1399446153 -157610116 2085530696 1725846868 989785344 255190035 517415813 210583076 -1315563479 -993475346 -1898774083 335353574
REM
REM C.POTCAR (d86ddea03c3ceb6dc662c8ad6801f873)
REM 
CELL 1.54180   15.00000   15.00000   15.00000   90.00000   90.00000   90.00000
LATT -1
SFAC C  
C      1  0.2709256532234  0.6257956127797  0.7005740186617 1.0
C      1  0.1097255088701  0.6530390199858  0.4134290390874 1.0
C      1  0.6818073164667  0.5425580645662  0.6561891275867 1.0
C      1  0.3449590805313  0.6295345126629  0.8552883181674 1.0
C      1  0.2075639152730  0.7721564135821  0.4989982367782 1.0
C      1  0.4777045870512  0.6690489785097  0.7051185377560 1.0
C      1  0.3291667284141  0.6934919863789  0.5130619661061 1.0
C      1  0.2317942154310  0.2535558320860  0.5153978964415 1.0
C      1  0.6526764775671  0.7614169117517  0.1923992355971 1.0
C      1  0.7925014313029  0.3772095905946  0.4008218347264 1.0
C      1  0.4027907098465  0.1498137000801  0.5358201699850 1.0
C      1  0.4130730501651  0.5268471399341  0.6739596686044 1.0
C      1  0.4968000644596  0.3172297571407  0.8221677753361 1.0
C      1  0.6073220616697  0.9354602411726  0.6214092409548 1.0
C      1  0.5966751490606  0.8624622290310  0.6794633510158 1.0
C      1  0.5916593716422  0.3060841612540  0.8002629747000 1.0
C      1  0.5647248918928  0.4457910954541  0.6917845279146 1.0
C      1  0.3007891166377  0.8138303512111  0.2686448518799 1.0
C      1  0.1484621950629  0.5005284604156  0.3669639704504 1.0
C      1  0.4413498183781  0.4089530390560  0.8121749976351 1.0
C      1  0.7548179776721  0.5153151288081  0.6070018193117 1.0
C      1  0.2474883752266  0.4252944294128  0.2490927269700 1.0
C      1  0.4567926092158  0.6652804869923  0.4502410638077 1.0
C      1  0.3102440084979  0.6447025130292  0.4266548747369 1.0
C      1  0.7787113577364  0.5186979017843  0.7776123770068 1.0
C      1  0.3995495513357  0.6254857291695  0.2924771839171 1.0
C      1  0.3427289240058  0.3534331054601  0.6304359706449 1.0
C      1  0.1814925388806  0.6259671536055  0.5556132711680 1.0
C      1  0.3575970845449  0.2288097829377  0.7765248526412 1.0
C      1  0.5680539644700  0.1606042083597  0.5994463806322 1.0
C      1  0.2632501273644  0.3037080347788  0.6721145088338 1.0
C      1  0.5173739061627  0.4827290674851  0.3179541858762 1.0
C      1  0.7733949679375  0.6811094221497  0.7501007707303 1.0
C      1  0.4343039995382  0.7601610385818  0.4193603992226 1.0
C      1  0.3841921603046  0.1709759611984  0.7032059163177 1.0
C      1  0.5931012066882  0.2757435581470  0.2947916342721 1.0
C      1  0.7166004357422  0.6589088670865  0.4769828032117 1.0
C      1  0.6184662077535  0.5998366744079  0.8065090401226 1.0
C      1  0.6220005594232  0.2401086774696  0.7363998891183 1.0
C      1  0.1795920714787  0.3334537545492  0.4839909992120 1.0
C      1  0.4722435138629  0.5002704791982  0.8522362631015 1.0
C      1  0.3898903671423  0.6770970060670  0.3769722207420 1.0
C      1  0.6222244457119  0.9105666256953  0.4655910550608 1.0
C      1  0.4444168282874  0.5927788920044  0.7381988663934 1.0
C      1  0.4443730174416  0.3192816683660  0.3604819260281 1.0
C      1  0.4766082303179  0.1750061323489  0.7370891314714 1.0
C      1  0.3591912940433  0.4747642437678  0.5373126962542 1.0
C      1  0.7411004746183  0.3209563332388  0.5432430821049 1.0
C      1  0.3594666695548  0.7914375260086  0.4799662725400 1.0
C      1  0.5584563126087  0.1822229477218  0.6924150394073 1.0
C      1  0.6577435926615  0.3740659584402  0.7994795187534 1.0
C      1  0.6475865643871  0.1912512951373  0.5591514275546 1.0
C      1  0.6942645409570  0.7294102054107  0.7347967854212 1.0
C      1  0.6675426368856  0.4520857735282  0.3128604151709 1.0
C      1  0.6985867372291  0.2365113108516  0.4086813843377 1.0
C      1  0.1037139131233  0.5799322236206  0.3701060876719 1.0
C      1  0.4170755395305  0.5774787197986  0.8326313791341 1.0
C      1  0.3566232218691  0.1645983318435  0.4529879346498 1.0
C      1  0.3581248191808  0.8156787014325  0.5787744280156 1.0
C      1  0.3047568782143  0.3019523880390  0.7648474329618 1.0
C      1  0.6994800206127  0.8095277266181  0.5792713088562 1.0
C      1  0.7165193381160  0.7416604645101  0.5142112634339 1.0
C      1  0.8138095655391  0.4578330986174  0.4542744788274 1.0
C      1  0.6188961627528  0.4611932091857  0.7786575170084 1.0
C      1  0.6880212601653  0.7350571334023  0.4168886709669 1.0
C      1  0.4364156047864  0.3566056712800  0.6561076063707 1.0
C      1  0.5343532684346  0.5465907121752  0.5559092243979 1.0
C      1  0.4070798100262  0.1645305343289  0.3756214553672 1.0
C      1  0.7586727061615  0.3041354532699  0.4482309297731 1.0
C      1  0.7982480803667  0.6702377622156  0.3198980558251 1.0
C      1  0.6391567139487  0.1869318201739  0.4632761302034 1.0
C      1  0.3981281090193  0.3977870868170  0.3870013329498 1.0
C      1  0.2925751619984  0.5134485117105  0.2334450487735 1.0
C      1  0.7085651455853  0.2522784646195  0.6028621828268 1.0
C      1  0.6803672770490  0.2449557889517  0.3145942089936 1.0
C      1  0.5637101964928  0.8801391347921  0.4151597046446 1.0
C      1  0.5929361937025  0.5104345049269  0.6239226749498 1.0
C      1  0.2689266095730  0.2325710383855  0.6024458773329 1.0
C      1  0.3985190958828  0.2372257940270  0.3100475496454 1.0
C      1  0.3489167725379  0.1736924455550  0.6151395958740 1.0
C      1  0.5738992937987  0.3702551849952  0.4452340909821 1.0
C      1  0.2661372347828  0.8136571188857  0.4369723864342 1.0
C      1  0.5381779915156  0.4381117813138  0.2243086852386 1.0
C      1  0.7425183739763  0.7504798067300  0.3326495582778 1.0
C      1  0.2754177111819  0.2156667041668  0.4412803671942 1.0
C      1  0.6788586346994  0.5638361873919  0.4629538485985 1.0
C      1  0.2895648844104  0.5852890417801  0.1792711859625 1.0
C      1  0.1810476041806  0.4187989092993  0.3174053903283 1.0
C      1  0.4671196528006  0.3454335785175  0.5678791158516 1.0
C      1  0.4426904282934  0.7936156944575  0.6287635583171 1.0
C      1  0.7338319235127  0.4880592986429  0.5112802220779 1.0
C      1  0.6825530620528  0.5366808711427  0.7586992374168 1.0
C      1  0.4504012270945  0.2379454951289  0.8065824984033 1.0
C      1  0.8976447326103  0.4899493652115  0.5015689087843 1.0
C      1  0.2898697874546  0.5605207842294  0.4001799134403 1.0
C      1  0.3083911221617  0.5314799794746  0.6836084529169 1.0
C      1  0.2879128136044  0.6631301344095  0.7845409900841 1.0
C      1  0.2931857700915  0.7087031495956  0.8655839659122 1.0
C      1  0.6102498634228  0.4110869503027  0.6008408755889 1.0
C      1  0.8385366415347  0.5938912160920  0.3635166247274 1.0
C      1  0.5269176135673  0.7951315110834  0.3992135089200 1.0
C      1  0.4839681137646  0.2021492807472  0.2666208757142 1.0
C      1  0.2571599223772  0.4040852937661  0.6568075056663 1.0
C      1  0.5312435507154  0.7333864797474  0.7490038434425 1.0
C      1  0.7033730309892  0.2742358587723  0.6946327777358 1.0
C      1  0.4662013053691  0.4313465831110  0.7083127028445 1.0
C      1  0.1513912081472  0.6924843125529  0.4852475777048 1.0
C      1  0.5967725298275  0.7033993133616  0.1503900143717 1.0
C      1  0.6637656470121  0.5522820504503  0.0963807534386 1.0
C      1  0.5896000623629  0.7274692745256  0.4038899173430 1.0
C      1  0.4313737662098  0.5466361390443  0.5718422367294 1.0
C      1  0.5172886761200  0.8148020508660  0.7000112667898 1.0
C      1  0.5499465432528  0.1516222236770  0.4417392631031 1.0
C      1  0.4982801255832  0.6289334157211  0.2599329583724 1.0
C      1  0.3527736298223  0.5388163029325  0.3204490557881 1.0
C      1  0.6870460372487  0.4710130440359  0.1395392338369 1.0
C      1  0.6285091816517  0.4539708722672  0.2163120344924 1.0
C      1  0.6762725389281  0.7991446288289  0.6713794202293 1.0
C      1  0.3764763389820  0.3702192110454  0.5413243515474 1.0
C      1  0.6135301363219  0.6918436028436  0.7784490035121 1.0
C      1  0.2658076683310  0.8213166119140  0.3444970145166 1.0
C      1  0.6566802307268  0.8965314804933  0.5514796437203 1.0
C      1  0.7999387133799  0.4342058843295  0.7332852103436 1.0
C      1  0.6998722336068  0.4035047288467  0.5582457069803 1.0
C      1  0.5621276098974  0.5244883571128  0.8306395305567 1.0
C      1  0.8363050991755  0.4705198526137  0.6461163537298 1.0
C      1  0.3369187965193  0.4058762071786  0.4625061407350 1.0
C      1  0.4987025654430  0.1523270558771  0.3584782812860 1.0
C      1  0.5452199394366  0.6363990847705  0.4170614962628 1.0
C      1  0.3420294469258  0.7598471769521  0.2061357730101 1.0
C      1  0.5585503537755  0.5807269393594  0.3265311523763 1.0
C      1  0.2391414490613  0.4052893859924  0.4562655816576 1.0
C      1  0.2533209107856  0.2663953923741  0.3601848037213 1.0
C      1  0.3088656814300  0.3519517433774  0.2310442687806 1.0
C      1  0.7539436263814  0.5910240653858  0.3161160254744 1.0
C      1  0.5006416197382  0.1431759670083  0.5285244314956 1.0
C      1  0.2303649066553  0.6703241888740  0.6287903848539 1.0
C      1  0.3465619614286  0.6580945473668  0.2103761777419 1.0
C      1  0.5060420252533  0.6874165461251  0.1896159988553 1.0
C      1  0.7341761662502  0.3586538681720  0.7423714225922 1.0
C      1  0.6339941003671  0.6287503376327  0.1061007968229 1.0
C      1  0.1938104558270  0.3412101760082  0.3824130538521 1.0
C      1  0.5400996071279  0.3242016489683  0.3651464752249 1.0
C      1  0.2147244507960  0.5026252786058  0.4430004050870 1.0
C      1  0.4839071273531  0.3588410079352  0.1972568662367 1.0
C      1  0.5489549755121  0.3711959998219  0.5348997971228 1.0
C      1  0.2685142805626  0.7482085209006  0.5787351740767 1.0
C      1  0.5828634995690  0.5789432888530  0.4863111371901 1.0
C      1  0.3933383935342  0.3730703594872  0.1952026464436 1.0
C      1  0.8716326239075  0.5341047142513  0.4233986759229 1.0
C      1  0.9058653670474  0.4735761674573  0.5890594929031 1.0
C      1  0.7746310198014  0.3643637239079  0.2157408109386 1.0
C      1  0.7409435540413  0.3004386471316  0.2675081959153 1.0
C      1  0.2720629200037  0.4906582924612  0.5952424393720 1.0
C      1  0.5845584270424  0.4214358447596  0.3664219035420 1.0
C      1  0.7030427006447  0.7807054601755  0.2573175818838 1.0
C      1  0.7538114092042  0.3933921190478  0.3112332837227 1.0
C      1  0.4149020241185  0.6475498203616  0.5438384759203 1.0
C      1  0.4232207087390  0.4746668659779  0.3442926748458 1.0
C      1  0.3358612436507  0.3914948444926  0.7947232678007 1.0
C      1  0.5317713412753  0.2707374842682  0.2196021115439 1.0
C      1  0.6692476459019  0.5509132405404  0.3455623252230 1.0
C      1  0.2892946761132  0.4491135478406  0.7380085514771 1.0
C      1  0.4522773931145  0.7019842549152  0.6185721750431 1.0
C      1  0.4143132874055  0.7202835099178  0.1692794194222 1.0
C      1  0.7550730841591  0.4105406830959  0.1379912331989 1.0
C      1  0.3089297919075  0.2729409577475  0.2856018739955 1.0
C      1  0.2046140968775  0.5391816000433  0.5374159588202 1.0
C      1  0.8091194114583  0.6079241069808  0.7720315487088 1.0
END
