TITL C-14453-2957-3 -8.158 3375.00 -1385.15568627 0 0 170 (C1) n - 1
REM
REM Run started: at 2020.07.11 00:03:25 in /home/heco/bkarasulu/work/CARBON/AIRSS/Str-Search
REM VASP from code version vasp.5.4.4.18Apr17-6-g9f103f2a35 (build Jul 02 2020 21:03:42) gamma-only
REM
REM
REM
REM
REM ./C.cell (90889e035cd0f9d0e5f9cb6dd9eb5d52)
REM AIRSS Version 0.9.1 bugfix July 2018 build 013d7b7c2542+ Fri, 06 Jul 2018 19:26:36 +0100
REM compiler GCC version 9.2.0
REM options -cpp -mtune=generic -march=x86-64 -g -O0
REM seed -739764283 1125374985 474616011 720239025 466084277 879754732 1879532558 1920277352 -674366840 -1106998902 1886862930 1351747559 122898692 -688138734 -2133795794 1898829654 -569065958 -956329569 -1896158538 20861226 2141547872 -11243082 -1439211534 -1117466382 -1724239646 193965685 -2027438107 -1466578892 -1413966902 1233011555 -187304210 -22423779 2132230586
REM
REM C.POTCAR (d86ddea03c3ceb6dc662c8ad6801f873)
REM 
CELL 1.54180   15.00000   15.00000   15.00000   90.00000   90.00000   90.00000
LATT -1
SFAC C  
C      1  0.2259557618782  0.3773457553569  0.5950742163869 1.0
C      1  0.6703910935166  0.5340023802395  0.4316847894273 1.0
C      1  0.3014491845200  0.5089940693378  0.3824060166998 1.0
C      1  0.8304015269456  0.3027961947244  0.3985254370516 1.0
C      1  0.1092196279697  0.5682245172998  0.4800898431005 1.0
C      1  0.2339137021920  0.3624746487216  0.4277402228224 1.0
C      1  0.4163501607959  0.3938337277768  0.6092669864332 1.0
C      1  0.8544098288088  0.5283660346326  0.5477157111348 1.0
C      1  0.2684500321789  0.4156970264712  0.3493592457791 1.0
C      1  0.4251444994624  0.2962412423723  0.6001055101517 1.0
C      1  0.4764922365145  0.3211622061340  0.1636489631418 1.0
C      1  0.4483304659325  0.4354690813817  0.4162878302917 1.0
C      1  0.3953308336819  0.4936763121811  0.8440556368801 1.0
C      1  0.5124080623839  0.1443150694712  0.3974985556157 1.0
C      1  0.5659083592975  0.1044374439764  0.4525266387251 1.0
C      1  0.3169721297754  0.6878850729392  0.8239734722338 1.0
C      1  0.3708558020915  0.6392571528889  0.4712670492973 1.0
C      1  0.6728317734203  0.2362217026715  0.6511966174258 1.0
C      1  0.3575088226967  0.4341374627604  0.6815829973091 1.0
C      1  0.6203601444443  0.2261532618192  0.2697309088566 1.0
C      1  0.2825517332845  0.6005040730035  0.2371224763707 1.0
C      1  0.4022613303265  0.5163369941089  0.3766517038960 1.0
C      1  0.4952795002669  0.2634372459602  0.5334624564027 1.0
C      1  0.7473357545614  0.4197318857409  0.7563386377366 1.0
C      1  0.2313336464272  0.2084398693004  0.5715460146033 1.0
C      1  0.5712459599058  0.5827352758307  0.2911242683608 1.0
C      1  0.7909607112565  0.6875422911564  0.5836283708236 1.0
C      1  0.3953659157616  0.3718587526520  0.1402881152389 1.0
C      1  0.3022739444927  0.4810389685766  0.8812094239501 1.0
C      1  0.6463477633610  0.6273593473628  0.6182981911221 1.0
C      1  0.7753688225670  0.5145657338970  0.3164920671174 1.0
C      1  0.4179314531914  0.3523748797629  0.3708487436278 1.0
C      1  0.2228600293169  0.2829508127924  0.6257923469493 1.0
C      1  0.4377113484783  0.6040440491447  0.3998526342045 1.0
C      1  0.5351392219047  0.8587963573193  0.6299585416103 1.0
C      1  0.6883149534216  0.3659109317202  0.3738017005674 1.0
C      1  0.6863832920306  0.3439205788105  0.7772569362375 1.0
C      1  0.6838231339070  0.5720521563815  0.1736958116766 1.0
C      1  0.3726487637802  0.8649695036069  0.5964206821303 1.0
C      1  0.3894524778754  0.6814996767945  0.8628394378497 1.0
C      1  0.2720544770922  0.6858992269833  0.3600570373378 1.0
C      1  0.2773297729503  0.7536080266213  0.6824064825436 1.0
C      1  0.4988639868853  0.8866332312423  0.3583955015826 1.0
C      1  0.4750904817236  0.2857708167221  0.8739329877885 1.0
C      1  0.8034448213724  0.6624242199353  0.4462000736808 1.0
C      1  0.2678823790051  0.4003376393438  0.6795294253339 1.0
C      1  0.2429907122684  0.2064603458269  0.4796134920466 1.0
C      1  0.3959211164369  0.2349410926516  0.6646301479191 1.0
C      1  0.3512310364578  0.8095164282578  0.4364641347615 1.0
C      1  0.8543640032300  0.4747819646349  0.3758340584514 1.0
C      1  0.2912719880305  0.5280764231876  0.1754180449482 1.0
C      1  0.2520011337667  0.4414985803930  0.1951195370974 1.0
C      1  0.6158933942201  0.9192036511066  0.4994152454082 1.0
C      1  0.5274807240881  0.7638216346957  0.6347505119692 1.0
C      1  0.5158066879573  0.7983222031015  0.3874664906858 1.0
C      1  0.8626209893187  0.4046996932410  0.3097382063926 1.0
C      1  0.7757445978461  0.7379768523361  0.5053177082864 1.0
C      1  0.5171631746989  0.4209921435435  0.6467483678188 1.0
C      1  0.5809770974046  0.3479856196036  0.6419653990516 1.0
C      1  0.6492023802159  0.3266110827540  0.6931444530756 1.0
C      1  0.8836317619100  0.3120342446060  0.3330626519601 1.0
C      1  0.6384281193428  0.8084196336989  0.2254447938605 1.0
C      1  0.3620021731732  0.4188789406140  0.9047232949857 1.0
C      1  0.4088870771507  0.4636943068341  0.7510710175303 1.0
C      1  0.3858096327919  0.2179073782560  0.2379820964839 1.0
C      1  0.2713568862439  0.5937336690720  0.3304053697944 1.0
C      1  0.4778459343340  0.5505723831032  0.8564744624041 1.0
C      1  0.5158332401100  0.6375716509003  0.3627456993284 1.0
C      1  0.2373170023383  0.2676693515858  0.4088346650600 1.0
C      1  0.4759030005285  0.6428408787286  0.8630278075161 1.0
C      1  0.7552076951191  0.3366240202371  0.4398118874600 1.0
C      1  0.3154564878223  0.2893105348943  0.2477522221893 1.0
C      1  0.2827840131843  0.5022882260656  0.4849832502637 1.0
C      1  0.6365516532589  0.2643506351333  0.8117134127013 1.0
C      1  0.3771949724515  0.5355685796777  0.1370536945692 1.0
C      1  0.6645078640463  0.6150862553770  0.2512819134671 1.0
C      1  0.4963048287787  0.1163018114640  0.6826407677290 1.0
C      1  0.6383429125790  0.6371968766781  0.7973652939180 1.0
C      1  0.2659922785317  0.3062635785718  0.7091066453176 1.0
C      1  0.6030284843500  0.5084826969734  0.3573431998711 1.0
C      1  0.5022359808814  0.4626932259175  0.7340685319756 1.0
C      1  0.5919978539163  0.3453723898486  0.3878698772997 1.0
C      1  0.5939940568007  0.7830383548661  0.8264846940932 1.0
C      1  0.7042971216959  0.4996862393912  0.1342753813617 1.0
C      1  0.5642079182588  0.7166951196649  0.3965843059700 1.0
C      1  0.2413967099516  0.4135336461946  0.5083779455070 1.0
C      1  0.8274886171349  0.4947937615582  0.6369352563269 1.0
C      1  0.5556824423290  0.7874069543159  0.1956299435664 1.0
C      1  0.2243012237971  0.5149458774985  0.8441417272375 1.0
C      1  0.6791325863267  0.5423721158025  0.5960940707648 1.0
C      1  0.8373212242406  0.6180533935020  0.5310316690399 1.0
C      1  0.8191956433864  0.3215267469735  0.6458429901305 1.0
C      1  0.3074185729928  0.7176196115566  0.4463219674831 1.0
C      1  0.7060030138563  0.7996879118036  0.2727084376051 1.0
C      1  0.3465709552615  0.3587958107792  0.3206210921111 1.0
C      1  0.5861253721995  0.4281629207564  0.4994775689859 1.0
C      1  0.4580681158124  0.9021670202694  0.5923356179481 1.0
C      1  0.1886898258563  0.5542345963908  0.7798755345442 1.0
C      1  0.3212160141566  0.6919129752679  0.2208489385243 1.0
C      1  0.8458274641968  0.4652727509286  0.4746662558883 1.0
C      1  0.4376065539287  0.4440335743078  0.5209488353897 1.0
C      1  0.2579272414331  0.6937394598919  0.7517728355178 1.0
C      1  0.3075199454154  0.3626877579495  0.1785885482583 1.0
C      1  0.5148676886386  0.5539702644820  0.2090894252494 1.0
C      1  0.4703742436671  0.2337115655706  0.2009578669293 1.0
C      1  0.6730081475372  0.8699944142189  0.4667682397274 1.0
C      1  0.7136082043712  0.5051006238985  0.7510187511845 1.0
C      1  0.2612748976135  0.7591243448285  0.5269660467966 1.0
C      1  0.2883848749801  0.7484571484403  0.2904213378438 1.0
C      1  0.3642083915914  0.7953813117874  0.6674137435303 1.0
C      1  0.7173430274567  0.7893055516322  0.4409116581999 1.0
C      1  0.3453598682107  0.2635805892363  0.7439422721189 1.0
C      1  0.5499971376279  0.4365501197553  0.4036948399061 1.0
C      1  0.6639843990360  0.7822906017569  0.7740935772779 1.0
C      1  0.6993184236197  0.6980845104645  0.7516248718476 1.0
C      1  0.4208907466096  0.1423726103154  0.6401550388368 1.0
C      1  0.5105372466544  0.6903901054800  0.7165183942517 1.0
C      1  0.1938827391419  0.6266852130554  0.7199617823307 1.0
C      1  0.3186879321950  0.8356339752398  0.5220947809121 1.0
C      1  0.5636112578010  0.6758785621050  0.6339395270768 1.0
C      1  0.3922850346149  0.3274612424282  0.9023359813728 1.0
C      1  0.6768152539746  0.4761846512882  0.5158389164780 1.0
C      1  0.4418018605595  0.7481051913846  0.6833843496050 1.0
C      1  0.1285874814843  0.6005865650242  0.5556268760003 1.0
C      1  0.4404823930084  0.6016113389632  0.1747086355489 1.0
C      1  0.5908544121530  0.2734905795953  0.5759969257526 1.0
C      1  0.1124827642039  0.5259027287797  0.3996480770984 1.0
C      1  0.5484614159316  0.5080968788249  0.8011721219312 1.0
C      1  0.4104525562287  0.6920311864066  0.1897219383705 1.0
C      1  0.2252443105848  0.7259626645174  0.6058302577149 1.0
C      1  0.4558560682585  0.1805423796321  0.4853555081667 1.0
C      1  0.3914996797689  0.1341374511206  0.5466057905997 1.0
C      1  0.6518244636640  0.7086008434266  0.4213026653065 1.0
C      1  0.7444399766279  0.6133108973315  0.3142892703992 1.0
C      1  0.5508526974648  0.6902345033205  0.8125142460460 1.0
C      1  0.4306092318633  0.8319533932828  0.3957784408131 1.0
C      1  0.7343600677348  0.6565982271775  0.6648459729045 1.0
C      1  0.7668756791255  0.4132322636532  0.4944792722501 1.0
C      1  0.5148263558368  0.4690574933288  0.1627265099198 1.0
C      1  0.7179298460813  0.4216108136553  0.1906343548162 1.0
C      1  0.7612303152203  0.7744815541539  0.3444515353634 1.0
C      1  0.2800304967065  0.2380647875483  0.3282713335625 1.0
C      1  0.4785737062657  0.7573616477052  0.1898736478683 1.0
C      1  0.7676132785715  0.2568182663025  0.6373708505765 1.0
C      1  0.1994310197854  0.4405134819651  0.2791756171282 1.0
C      1  0.3867047822280  0.2764558397360  0.8247641717923 1.0
C      1  0.7088254385653  0.6246586202477  0.4134108900671 1.0
C      1  0.4316958074380  0.1913797440180  0.3883327570672 1.0
C      1  0.5671948587002  0.1343752421306  0.7253349806836 1.0
C      1  0.6371224690388  0.5453958551329  0.7926898545347 1.0
C      1  0.7520010558053  0.5510071144905  0.6703126887545 1.0
C      1  0.4264169384856  0.4588312200302  0.1238712156994 1.0
C      1  0.5523399887748  0.3832188403663  0.1752315820035 1.0
C      1  0.6938440099783  0.4697013953011  0.3557776581204 1.0
C      1  0.1728783553942  0.6459373957075  0.6262602145760 1.0
C      1  0.6356761673243  0.1922409435146  0.7364679480938 1.0
C      1  0.5540523387269  0.1980230568476  0.2292211868457 1.0
C      1  0.8151980542212  0.4106349494091  0.6790214773166 1.0
C      1  0.5470045267802  0.9196813510371  0.5609534955020 1.0
C      1  0.3610307085752  0.1836658326716  0.3251276878148 1.0
C      1  0.5745676889384  0.3215655808012  0.4885962478405 1.0
C      1  0.5184882165161  0.4655770675271  0.5568685078102 1.0
C      1  0.6414596606995  0.3708326015423  0.2148537053167 1.0
C      1  0.3019478419815  0.1548741454969  0.5320244299755 1.0
C      1  0.1335187454353  0.4897491521713  0.3251162057620 1.0
C      1  0.7972305841747  0.4418522894990  0.2491617552720 1.0
C      1  0.6435216610044  0.3151286509805  0.2992743672377 1.0
C      1  0.8046621147376  0.6905128188049  0.3476156733273 1.0
C      1  0.3266571638294  0.5743185653111  0.5185729641844 1.0
C      1  0.5619817987096  0.2743708929747  0.8647878974299 1.0
END
