TITL C-140509-8425-4 -4.393 3375.00 -733.47078527 0 0 90 (C1) n - 1
REM
REM Run started: at 2020.12.04 16:40:42 in /rds/project/t2_vol4/rds-t2-cs072/BORA/CARBON/AIRSS/Generating-Clusters/Str-Search/Only-C1/C10-100
REM VASP from code version vasp.5.4.4.18Apr17-6-g9f103f2a35 (build Oct 11 2019 16:45:47) gamma-only
REM
REM
REM
REM
REM ./C.cell (67c5d0192afd7a3ce4a0888e5fe73b87)
REM AIRSS Version 0.9.1 bugfix July 2018 build 013d7b7c2542+ Fri, 06 Jul 2018 19:26:36 +0100
REM compiler GCC version 4.8.5 20150623 (Red Hat 4.8.5-39)
REM options -cpp -mtune=generic -march=x86-64 -g -O0
REM seed 1758006535 991070831 -1710161093 -1765059742 -1307485108 -32263349 437318784 -155092034 -700125686 -1643613456 913810891 -1256979297
REM
REM C.POTCAR (d86ddea03c3ceb6dc662c8ad6801f873)
REM 
CELL 1.54180   15.00000   15.00000   15.00000   90.00000   90.00000   90.00000
LATT -1
SFAC C  
C      1  0.2913640421762  0.7352228163650  0.6577495874085 1.0
C      1  0.5494697880987  0.5153708989881  0.6057764049033 1.0
C      1  0.7925351496000  0.5024404604671  0.4420140295063 1.0
C      1  0.5648468245574  0.6506510297456  0.7800057003581 1.0
C      1  0.5482993049407  0.3372540182968  0.7328803540070 1.0
C      1  0.6307101367090  0.2793885038180  0.6048581082411 1.0
C      1  0.7280623844399  0.3501246178637  0.5276646147275 1.0
C      1  0.6934385676332  0.7333218753038  0.5974672854520 1.0
C      1  0.5639655450910  0.4831094882712  0.1897017142588 1.0
C      1  0.4804879380974  0.3332281481604  0.4840710253874 1.0
C      1  0.5106230535090  0.6432918511791  0.5372135540671 1.0
C      1  0.6577327859263  0.3253796565467  0.1439784634487 1.0
C      1  0.4352644365765  0.2908975046392  0.4108858533433 1.0
C      1  0.5238726842236  0.5647161971629  0.7927117151616 1.0
C      1  0.7331926932796  0.4938643296995  0.7055088583463 1.0
C      1  0.5956787473241  0.3177168178711  0.2151963687345 1.0
C      1  0.4390053467646  0.3802821287861  0.5544803882938 1.0
C      1  0.6921615297011  0.4071391109901  0.6952987261115 1.0
C      1  0.5482391992422  0.2825315048176  0.2908573200678 1.0
C      1  0.3210594617790  0.2594772420458  0.5224755216276 1.0
C      1  0.3829371915948  0.6417357950619  0.7279685961257 1.0
C      1  0.3344597736193  0.4396579980717  0.2967058380368 1.0
C      1  0.6063070699354  0.3999159170599  0.1775915737148 1.0
C      1  0.2899060217042  0.2961771259454  0.3629186336874 1.0
C      1  0.3975242003206  0.4772741562241  0.3669803512693 1.0
C      1  0.5716954937272  0.6710611911655  0.6872529546297 1.0
C      1  0.5975449645187  0.5713799303343  0.1899130831414 1.0
C      1  0.4877312833617  0.4547020671014  0.5784340086759 1.0
C      1  0.3888984339095  0.6340711585927  0.2417952969006 1.0
C      1  0.2179228693298  0.5430500158296  0.4030602218333 1.0
C      1  0.4308195155793  0.5665091015576  0.7654791735335 1.0
C      1  0.3862563954731  0.3961557678224  0.7322487598365 1.0
C      1  0.2132337335603  0.4817978349374  0.4584144918431 1.0
C      1  0.6776749201185  0.4549279644163  0.4106997275253 1.0
C      1  0.2691773248805  0.6088719638101  0.3593682224454 1.0
C      1  0.5968307456337  0.2274971617940  0.3526733454232 1.0
C      1  0.7898943691811  0.5883618497080  0.4863304201609 1.0
C      1  0.4376088918571  0.4165491246287  0.2923114778453 1.0
C      1  0.2990387389391  0.6042556671768  0.2713070240306 1.0
C      1  0.4746583249195  0.4779181357239  0.2208450140600 1.0
C      1  0.4061237547704  0.5446854936040  0.2034848394185 1.0
C      1  0.3485295572875  0.2614435359299  0.4278912499394 1.0
C      1  0.7180925604133  0.6240434007240  0.4235057305274 1.0
C      1  0.6360995069092  0.2269714695536  0.4253464064317 1.0
C      1  0.5427269655240  0.6872763687425  0.2999111524142 1.0
C      1  0.3779656516887  0.2476567842504  0.6072581201535 1.0
C      1  0.2478102295266  0.4348917882392  0.5324737288660 1.0
C      1  0.3242689564445  0.4582966614305  0.6835680792639 1.0
C      1  0.6610309748394  0.6424286741199  0.7534449437240 1.0
C      1  0.2894407201201  0.5910158652691  0.5927246485733 1.0
C      1  0.4498869295062  0.3281096111778  0.7270834746346 1.0
C      1  0.2789225252576  0.3623390883635  0.3150858626142 1.0
C      1  0.3572802057132  0.3388477630344  0.5909415067783 1.0
C      1  0.3876668441060  0.7266366380168  0.6799662958053 1.0
C      1  0.4111669223111  0.5577496428045  0.4176897876177 1.0
C      1  0.4827694149258  0.7417555501971  0.4316889054830 1.0
C      1  0.5451503092482  0.6107045583984  0.6155689794566 1.0
C      1  0.5890430467626  0.6408714344994  0.2339772590715 1.0
C      1  0.6081972992130  0.4068141877168  0.7476689545654 1.0
C      1  0.7203942155741  0.5349349364333  0.3818949986981 1.0
C      1  0.4105714435766  0.7569158379473  0.5869439360847 1.0
C      1  0.4712573781118  0.3242579248687  0.3224684663814 1.0
C      1  0.5387970167353  0.4985632891258  0.5032808206475 1.0
C      1  0.2980597354573  0.6410174153721  0.6766556585244 1.0
C      1  0.6565864824719  0.6975339918777  0.4337109107941 1.0
C      1  0.4436820659492  0.6853122594076  0.2956528389539 1.0
C      1  0.3052164815131  0.6552144079055  0.5203755194465 1.0
C      1  0.5580686210328  0.2685551589293  0.6629469148866 1.0
C      1  0.3157208311779  0.7417545013847  0.5629786409830 1.0
C      1  0.6467412038900  0.2873450470783  0.5030867947557 1.0
C      1  0.4777618595138  0.7321130860735  0.5270039087397 1.0
C      1  0.5686795760445  0.7151209901734  0.3862334783295 1.0
C      1  0.5954423920433  0.4995286982386  0.7829426947223 1.0
C      1  0.3415220031176  0.6416305440598  0.4239669314820 1.0
C      1  0.7908875013584  0.5363056030896  0.6472607340959 1.0
C      1  0.7975101935716  0.5817217967544  0.5776888678587 1.0
C      1  0.4570080166378  0.2546278102981  0.6615658083622 1.0
C      1  0.5751878940915  0.3530874983788  0.4774078271316 1.0
C      1  0.6994905086829  0.3469106122799  0.6211484654512 1.0
C      1  0.6623007353955  0.7052807219647  0.6784040378664 1.0
C      1  0.5953970896806  0.4396979013033  0.4540683116623 1.0
C      1  0.4080305795305  0.7126418865910  0.3824115611523 1.0
C      1  0.6762387276469  0.5471119709317  0.7608728086814 1.0
C      1  0.2742137718595  0.3456012301102  0.5471712942840 1.0
C      1  0.3835388711372  0.4884760278800  0.7482188714405 1.0
C      1  0.2848012448273  0.4933274293254  0.6031742103716 1.0
C      1  0.6739274939524  0.7401827435976  0.5159790414951 1.0
C      1  0.7523486684622  0.4158031022739  0.4634571606490 1.0
C      1  0.3215883091232  0.5160286107173  0.2360307116024 1.0
C      1  0.4867266314331  0.5735805215775  0.4726242409564 1.0
END
