TITL C-145674-8295-13 -9.405 3375.00 -1633.23368777 0 0 200 (C1) n - 1
REM
REM Run started: at 2021.01.21 14:08:09 in /rds/project/t2_vol4/rds-t2-cs072/BORA/CARBON/AIRSS/Generating-Clusters/Str-Search/Only-C1/C100-200
REM VASP from code version vasp.5.4.4.18Apr17-6-g9f103f2a35 (build Oct 11 2019 16:45:47) gamma-only
REM
REM
REM
REM
REM ./C.cell (efaf0b2bf1589a83377268d7ebe2c73f)
REM AIRSS Version 0.9.1 bugfix July 2018 build 013d7b7c2542+ Fri, 06 Jul 2018 19:26:36 +0100
REM compiler GCC version 4.8.5 20150623 (Red Hat 4.8.5-39)
REM options -cpp -mtune=generic -march=x86-64 -g -O0
REM seed 329275509 -2089158895 -1291923269 1706506193 1253192548 -2026404216 1142970241 -1768365385 -1375204820 1889551636 -757765648 -1793832202
REM
REM C.POTCAR (d86ddea03c3ceb6dc662c8ad6801f873)
REM 
CELL 1.54180   15.00000   15.00000   15.00000   90.00000   90.00000   90.00000
LATT -1
SFAC C  
C      1  0.7859738836520  0.7818508575638  0.6089053486898 1.0
C      1  0.6409366089125  0.5404237892711  0.3288095424097 1.0
C      1  0.4479637432901  0.7323611736076  0.2245509115596 1.0
C      1  0.4106827997469  0.5434482429687  0.7037209979437 1.0
C      1  0.5130250358295  0.5924994000374  0.5879765717282 1.0
C      1  0.5252370504821  0.1956503114529  0.7281383652923 1.0
C      1  0.7356043151255  0.6842913581067  0.7564518315236 1.0
C      1  0.1438351071346  0.6584478475080  0.6221570701552 1.0
C      1  0.3692931228345  0.8578142926373  0.3436216610074 1.0
C      1  0.3433891250886  0.3689157703580  0.1160291527655 1.0
C      1  0.2139736664116  0.6710540551312  0.6870662433559 1.0
C      1  0.2737416019363  0.3089252898575  0.4030976905234 1.0
C      1  0.6046807373853  0.5560487156455  0.6248378506624 1.0
C      1  0.4499014588188  0.5538691188160  0.3860884251214 1.0
C      1  0.6489806200175  0.3584734789892  0.6817152331106 1.0
C      1  0.6792246499122  0.3760107121661  0.8418736560152 1.0
C      1  0.5551185960173  0.8835184713976  0.4226352162468 1.0
C      1  0.5759796863270  0.7318123745254  0.3681300042658 1.0
C      1  0.8387943349483  0.3154959516054  0.5795963364275 1.0
C      1  0.5587239373803  0.4118093842050  0.5644883671169 1.0
C      1  0.4764759399557  0.9235713041788  0.5617532445016 1.0
C      1  0.6274908065516  0.7542471275238  0.4477160852940 1.0
C      1  0.3309632647866  0.6858302101656  0.8329444051846 1.0
C      1  0.6642408130991  0.6486187492247  0.8082547273036 1.0
C      1  0.5057125617628  0.6647288169946  0.5135900491542 1.0
C      1  0.6604688836329  0.7088045860278  0.2991182932221 1.0
C      1  0.3985074226864  0.7826544139179  0.4729092449960 1.0
C      1  0.2892650170408  0.5940669560483  0.3882760199293 1.0
C      1  0.3534583422221  0.3845937409142  0.2754510382106 1.0
C      1  0.7193693575467  0.7950392778456  0.3063847683559 1.0
C      1  0.1327741658032  0.5424478308718  0.4184052868722 1.0
C      1  0.2484617061530  0.2152298270210  0.4155788295664 1.0
C      1  0.2807051419691  0.7374336944347  0.2426585767745 1.0
C      1  0.7019750511071  0.3228958266468  0.7584921376762 1.0
C      1  0.6470530928013  0.3183444736333  0.9088954799744 1.0
C      1  0.6079999482838  0.3729405409634  0.3827424293189 1.0
C      1  0.1655545038747  0.2859658460032  0.2197355847199 1.0
C      1  0.4555506963966  0.2994421635303  0.3912951400157 1.0
C      1  0.2815249257394  0.1772860755366  0.4935591741759 1.0
C      1  0.6511735527681  0.1924167567436  0.2420914838603 1.0
C      1  0.7998284549174  0.5910551621663  0.3288171790592 1.0
C      1  0.7401781354199  0.7624758790260  0.6905280169404 1.0
C      1  0.4702420146105  0.6286024598102  0.2345124959512 1.0
C      1  0.3378685699457  0.4352782094974  0.8681602529396 1.0
C      1  0.1563995546112  0.5371653155767  0.7215790540528 1.0
C      1  0.3262460201212  0.7452549558232  0.7589965806713 1.0
C      1  0.5587030553509  0.6181032665289  0.2158548508101 1.0
C      1  0.5559282740013  0.1649193196555  0.3301811241681 1.0
C      1  0.2643938105103  0.3766705882878  0.8462240013634 1.0
C      1  0.7926474107093  0.4491751976225  0.6655066382582 1.0
C      1  0.3724649387937  0.4996498131311  0.6234879527145 1.0
C      1  0.4374481138419  0.3918772482353  0.0949665549841 1.0
C      1  0.2990999584554  0.7092363746841  0.6727617552763 1.0
C      1  0.6051772152640  0.1633119834313  0.5035892207095 1.0
C      1  0.1721365450647  0.6991519400322  0.3802347954900 1.0
C      1  0.4858375176879  0.3403241700749  0.0367188162376 1.0
C      1  0.1697815933771  0.4323066853040  0.6092758317422 1.0
C      1  0.4101474230350  0.7181690702998  0.3910292718542 1.0
C      1  0.7473617531577  0.3494300264339  0.4521412402407 1.0
C      1  0.4319600478946  0.5774256447355  0.8741844610860 1.0
C      1  0.3599872164397  0.0690916172606  0.3348807364308 1.0
C      1  0.4113896228914  0.2407427063283  0.1987169022867 1.0
C      1  0.3844739672327  0.8173735918515  0.7546560300946 1.0
C      1  0.1331620055721  0.7043643161422  0.5438460058463 1.0
C      1  0.3234636482490  0.6774068214132  0.3696004084491 1.0
C      1  0.8285997987971  0.5452604125324  0.2473841722363 1.0
C      1  0.4137691126514  0.4673091552414  0.2440159738912 1.0
C      1  0.8422160085466  0.2083485909938  0.4330803286069 1.0
C      1  0.4871711031254  0.6530895809637  0.4125027019160 1.0
C      1  0.4396218452662  0.7354395870739  0.5519838960332 1.0
C      1  0.6474394686368  0.1726074389185  0.3417822164802 1.0
C      1  0.2471458999062  0.3988431773269  0.2813572357845 1.0
C      1  0.3850413300919  0.2599600567657  0.6758631557387 1.0
C      1  0.6883266712749  0.6066353847681  0.6000961729169 1.0
C      1  0.1778507271934  0.4461457926551  0.7078898795843 1.0
C      1  0.6963563849129  0.4254138104609  0.6432470478965 1.0
C      1  0.3372973117545  0.4060459661323  0.5941134959173 1.0
C      1  0.2239246950672  0.1698785486903  0.3315205958701 1.0
C      1  0.5597009558551  0.3364352100209  0.6354175004983 1.0
C      1  0.5500850649679  0.8793062254804  0.6084988376514 1.0
C      1  0.3496715841508  0.4229436883429  0.4396062936771 1.0
C      1  0.1802580917135  0.2173333960794  0.2650006531173 1.0
C      1  0.5286763145939  0.2460790212955  0.8211852820606 1.0
C      1  0.2570635159950  0.3877035112497  0.1192755433699 1.0
C      1  0.4836482496214  0.2898117196401  0.6957365776148 1.0
C      1  0.3659894533116  0.3459397089078  0.3692462440156 1.0
C      1  0.1400462405313  0.7231292007012  0.4621924297956 1.0
C      1  0.4761204780291  0.0403194234954  0.4513822971473 1.0
C      1  0.7918326218417  0.6090739534087  0.7210527850411 1.0
C      1  0.2860273087186  0.8318048360166  0.3755622333306 1.0
C      1  0.6034994037705  0.7018591165694  0.2148714076998 1.0
C      1  0.8953503039907  0.4802519406171  0.4156902778573 1.0
C      1  0.3236335001176  0.2573174499975  0.7587425226881 1.0
C      1  0.8158587846796  0.2879783042116  0.4848873401869 1.0
C      1  0.5790399446664  0.8422480214630  0.2535601680467 1.0
C      1  0.4056307179498  0.8791091862920  0.4342155866445 1.0
C      1  0.9217987662582  0.4452733976473  0.3339748256596 1.0
C      1  0.3142727200765  0.8459870723320  0.4748339812893 1.0
C      1  0.5319782577072  0.8205855534595  0.3421646849987 1.0
C      1  0.8064442864719  0.5210897184371  0.7187787575508 1.0
C      1  0.5652911997462  0.4598615938067  0.1863484510099 1.0
C      1  0.4797662078939  0.9399380334028  0.4635981662482 1.0
C      1  0.7672098027848  0.2733958268323  0.7236931552448 1.0
C      1  0.3689509730234  0.3181220797438  0.2006638523827 1.0
C      1  0.3522341652551  0.7450880515244  0.2010990381908 1.0
C      1  0.7945150833861  0.2514708264152  0.6394417406603 1.0
C      1  0.5285473886040  0.2903825939219  0.9848531547043 1.0
C      1  0.5213067827361  0.0952072411965  0.6203131819220 1.0
C      1  0.6506104294662  0.1709241658678  0.5920616998672 1.0
C      1  0.5891906511681  0.1465659202064  0.6612085113833 1.0
C      1  0.3299522034748  0.2993456231402  0.8405742595789 1.0
C      1  0.4301037246199  0.5499172205687  0.2849635717152 1.0
C      1  0.5697267589705  0.6852475959040  0.8018998544497 1.0
C      1  0.4530136154206  0.1276685312469  0.6773797504822 1.0
C      1  0.7191810968862  0.4784666563668  0.1433330514848 1.0
C      1  0.6713345356682  0.2031607850496  0.4344098951010 1.0
C      1  0.4060108854909  0.3850264152663  0.5175602704530 1.0
C      1  0.5219072191632  0.7771031701573  0.5987623345258 1.0
C      1  0.5113658823559  0.4711255854951  0.4146719819510 1.0
C      1  0.8414948590816  0.5744491258423  0.4979368570686 1.0
C      1  0.7400431302918  0.1922688186126  0.5822795237407 1.0
C      1  0.3562756420500  0.5346360148401  0.4377026555023 1.0
C      1  0.2160578759759  0.3814758973080  0.7635363220877 1.0
C      1  0.4957372749555  0.7352580158683  0.8416825689327 1.0
C      1  0.4341092236875  0.0913240918961  0.3868189552035 1.0
C      1  0.5060267826418  0.8382310181140  0.6886717116086 1.0
C      1  0.6833011041390  0.2591264579900  0.1887545730378 1.0
C      1  0.6418998000242  0.8735373363338  0.5715816620608 1.0
C      1  0.8217966263084  0.7745958548297  0.4462432851345 1.0
C      1  0.2851195818767  0.0998370930733  0.3172841840720 1.0
C      1  0.4210614547919  0.6758289865781  0.8667487091103 1.0
C      1  0.3086030155251  0.9114026967127  0.5434041008110 1.0
C      1  0.5549971815101  0.1680865812785  0.2338438173104 1.0
C      1  0.2515040586102  0.7450641407254  0.3385640769510 1.0
C      1  0.3270763648181  0.1578961644651  0.5611621762409 1.0
C      1  0.4035555314518  0.3593751115957  0.8498309806633 1.0
C      1  0.4493039985761  0.5253350669647  0.5615979792897 1.0
C      1  0.6644567426256  0.3305708372297  0.1492283539900 1.0
C      1  0.4178390215331  0.5318322633634  0.7935671569410 1.0
C      1  0.5871855232763  0.5581067721561  0.7221135238180 1.0
C      1  0.4817310421868  0.1876232531464  0.3894186736603 1.0
C      1  0.6369611384178  0.4716459743457  0.5768695092823 1.0
C      1  0.3901291294416  0.9067630565203  0.5974352109570 1.0
C      1  0.2577099423983  0.3105691052715  0.7138650994665 1.0
C      1  0.7063694710352  0.8289831036764  0.6235918641035 1.0
C      1  0.3800365349020  0.1686193304312  0.6359181771033 1.0
C      1  0.3787577686985  0.6759412832552  0.6109198454168 1.0
C      1  0.7625150141390  0.1948016871406  0.4863088870612 1.0
C      1  0.4567918377071  0.6260995616983  0.6687114992788 1.0
C      1  0.5206291659912  0.0982088399217  0.5197066654068 1.0
C      1  0.2546626230854  0.3945275477409  0.4552889309257 1.0
C      1  0.3197286995842  0.3277769216055  0.6473972548810 1.0
C      1  0.3411993642160  0.5316539769011  0.8616796538358 1.0
C      1  0.2785772712997  0.6044635562330  0.8282021956334 1.0
C      1  0.8354403773113  0.6456694906096  0.5542792201501 1.0
C      1  0.6264396265501  0.8529916271552  0.4727272901810 1.0
C      1  0.2072793734832  0.3816188687494  0.3677121366651 1.0
C      1  0.1057167936277  0.4998231956120  0.5770400180366 1.0
C      1  0.8508686379091  0.5651905992184  0.4042668928291 1.0
C      1  0.3626768150073  0.5696562316476  0.5457002860724 1.0
C      1  0.5074295576312  0.1926509722192  0.4873500006127 1.0
C      1  0.6459102752623  0.4212740883380  0.1442460372789 1.0
C      1  0.5442278776232  0.7714177166670  0.1950711355885 1.0
C      1  0.7747155385150  0.6174848293013  0.6257825681463 1.0
C      1  0.8308136317853  0.7407398428267  0.5355260293656 1.0
C      1  0.6738465243000  0.4839871782540  0.4846768127501 1.0
C      1  0.4742737545091  0.4445104683561  0.1683159999254 1.0
C      1  0.5712404814966  0.3229746020942  0.5292047940231 1.0
C      1  0.8986823582876  0.4844969245791  0.2634234487043 1.0
C      1  0.7907090341083  0.7951175365562  0.3714381184464 1.0
C      1  0.4766950194976  0.2937863020173  0.4953017614541 1.0
C      1  0.0949201027344  0.5175977155692  0.4878588601251 1.0
C      1  0.8486986943246  0.4073571011233  0.5933905933023 1.0
C      1  0.6476265722241  0.5444498442218  0.7997614992889 1.0
C      1  0.5187129789146  0.3749966329755  0.3689845024350 1.0
C      1  0.1117048169670  0.5690545365339  0.6421332228264 1.0
C      1  0.4821635259078  0.1942601983599  0.1898765120939 1.0
C      1  0.4829242196725  0.4495288610026  0.5139752534724 1.0
C      1  0.4751272006103  0.8056655532867  0.7852217732316 1.0
C      1  0.6882422728351  0.6734189157577  0.4419146868017 1.0
C      1  0.5755697104216  0.2608619765465  0.9093527397996 1.0
C      1  0.5958576786218  0.5338227998402  0.2479703620852 1.0
C      1  0.8462466601589  0.4689610081955  0.5079317885793 1.0
C      1  0.2096094375288  0.6061452098801  0.7633521297868 1.0
C      1  0.7562916332115  0.4373273317980  0.4718587567317 1.0
C      1  0.5861978872444  0.7179756478356  0.5357241423523 1.0
C      1  0.6559039977918  0.3091200522407  0.4433600055523 1.0
C      1  0.4799799393130  0.3196473179577  0.7947991590320 1.0
C      1  0.2088019619253  0.3664976322602  0.1977947872842 1.0
C      1  0.2399552110398  0.4068805469676  0.5531046415032 1.0
C      1  0.5347374879319  0.6381770410445  0.7327465679614 1.0
C      1  0.7007239066978  0.6270786913623  0.3484864032886 1.0
C      1  0.7759830697222  0.5310668738116  0.1710999911523 1.0
C      1  0.4100164608476  0.8646199066376  0.6780624493476 1.0
C      1  0.6667641044460  0.8587436888055  0.2676238818993 1.0
C      1  0.6171482732578  0.4751329710290  0.4035023776270 1.0
C      1  0.6732075829852  0.4671622910452  0.8364251354983 1.0
C      1  0.6644266663923  0.6554919788864  0.5266248047052 1.0
C      1  0.1922774906892  0.6008494965744  0.3821851477047 1.0
C      1  0.4382536108802  0.7863854088543  0.3172074568629 1.0
END
