TITL C-141674-2200-19 -1.872 3375.00 0 0 0 39 (C1) n - 1
REM
REM Run started: at 2020.03.16 08:05:51 in /rds/user/bk393/hpc-work/AIRSS.pl-DENE/CARBON/New-Try
REM VASP from code version vasp.5.4.4.18Apr17-6-g9f103f2a35 (build Oct 11 2019 16:45:47) gamma-only
REM
REM
REM
REM
REM ./C.cell (9f5935e56d41cf50cb14479ce98dda23)
REM AIRSS Version 0.9.1 bugfix July 2018 build 013d7b7c2542+ Fri, 06 Jul 2018 19:26:36 +0100
REM compiler GCC version 4.8.5 20150623 (Red Hat 4.8.5-39)
REM options -cpp -mtune=generic -march=x86-64 -g -O0
REM seed 1789388016 1022862535 1227972628 -661813184 247769849 -804478514 -119485049 -453489158 -855398378 2043718164 1508188578 -1950621780
REM
REM C.POTCAR (d86ddea03c3ceb6dc662c8ad6801f873)
REM 
CELL 1.54180   15.00000   15.00000   15.00000   90.00000   90.00000   90.00000
LATT -1
SFAC C  
C      1  0.5945504965274  0.5410444122083  0.3562561128514 1.0
C      1  0.4871873746202  0.3783534266784  0.6624931650366 1.0
C      1  0.3729828403661  0.6772709998243  0.5619434262668 1.0
C      1  0.3998103413239  0.6102298589323  0.6302365770208 1.0
C      1  0.6428223509687  0.5947497490419  0.5285662199094 1.0
C      1  0.4873775179975  0.6956370207863  0.4400004480096 1.0
C      1  0.6040645631458  0.6804715047628  0.5390111843074 1.0
C      1  0.5034437057004  0.5652407598433  0.3328322111783 1.0
C      1  0.5035606505779  0.4602395333183  0.6834603644378 1.0
C      1  0.6549188367522  0.3037193597679  0.5456670530537 1.0
C      1  0.6722686254185  0.4447272789704  0.5883752055808 1.0
C      1  0.4953474937168  0.6184761265769  0.6460721665707 1.0
C      1  0.6552416354258  0.3591551287567  0.6248612969717 1.0
C      1  0.4652609115211  0.3019093124648  0.6264850871422 1.0
C      1  0.3396351846606  0.5021147625321  0.3447462528217 1.0
C      1  0.5824189754742  0.6871092041357  0.4429045768894 1.0
C      1  0.5483266013130  0.5379181460570  0.6556966956124 1.0
C      1  0.4511977621616  0.5417049676282  0.4837886244658 1.0
C      1  0.5457389397902  0.3079480992728  0.4278043961758 1.0
C      1  0.4891445999972  0.2652701562168  0.5464199125445 1.0
C      1  0.5983810296791  0.4448424101644  0.3635272011428 1.0
C      1  0.4132624672887  0.5581341560308  0.3240687047092 1.0
C      1  0.2904290125880  0.5674650906521  0.4989863529240 1.0
C      1  0.2847063910129  0.5061924836682  0.4244022962589 1.0
C      1  0.4547451098232  0.7167282093730  0.5298980874565 1.0
C      1  0.5813696995250  0.2593016157851  0.5095893857538 1.0
C      1  0.6243601557481  0.5995067107427  0.4273129552235 1.0
C      1  0.6547282088621  0.3955312434374  0.5071773363601 1.0
C      1  0.2932456560273  0.6593364098856  0.5041157486554 1.0
C      1  0.4090168864664  0.3855709505285  0.4553856961109 1.0
C      1  0.4750309412076  0.4499449491010  0.4711168822243 1.0
C      1  0.5829800319675  0.3582043980175  0.3499588978212 1.0
C      1  0.3352012716016  0.4290576098243  0.4097294800791 1.0
C      1  0.3776544009676  0.5611969796908  0.5470592954441 1.0
C      1  0.6293614412249  0.5288946051133  0.5977934365710 1.0
C      1  0.5260695661414  0.6909769106743  0.5909946851232 1.0
C      1  0.4521125087374  0.2968510234810  0.4596360614371 1.0
C      1  0.5681923911374  0.4109030785365  0.4542810872813 1.0
C      1  0.4538535225349  0.6080714575186  0.4073453325766 1.0
END
