TITL C-140509-8425-7 -3.811 3375.00 -642.54224649 0 0 78 (C1) n - 1
REM
REM Run started: at 2020.12.04 17:36:59 in /rds/project/t2_vol4/rds-t2-cs072/BORA/CARBON/AIRSS/Generating-Clusters/Str-Search/Only-C1/C10-100
REM VASP from code version vasp.5.4.4.18Apr17-6-g9f103f2a35 (build Oct 11 2019 16:45:47) gamma-only
REM
REM
REM
REM
REM ./C.cell (67c5d0192afd7a3ce4a0888e5fe73b87)
REM AIRSS Version 0.9.1 bugfix July 2018 build 013d7b7c2542+ Fri, 06 Jul 2018 19:26:36 +0100
REM compiler GCC version 4.8.5 20150623 (Red Hat 4.8.5-39)
REM options -cpp -mtune=generic -march=x86-64 -g -O0
REM seed 1901608768 -1894180018 -1480557879 -1994093706 -1235645152 -856358089 1691153171 -1280670483 -1350926599 1260364179 922352936 2095635628
REM
REM C.POTCAR (d86ddea03c3ceb6dc662c8ad6801f873)
REM 
CELL 1.54180   15.00000   15.00000   15.00000   90.00000   90.00000   90.00000
LATT -1
SFAC C  
C      1  0.4942310534086  0.4139067954511  0.2508034997226 1.0
C      1  0.5040835817578  0.7271792043148  0.4037756750752 1.0
C      1  0.5164551748385  0.3815068305364  0.5618945666660 1.0
C      1  0.2804732529236  0.5143087024586  0.7085388958056 1.0
C      1  0.7463502777475  0.3670214540525  0.5874600269055 1.0
C      1  0.4530923656949  0.5644214416084  0.2531733799911 1.0
C      1  0.4859537155623  0.6319688196553  0.6024685077590 1.0
C      1  0.6088608942951  0.6239288993423  0.3014285733260 1.0
C      1  0.4660194428596  0.5904568268048  0.4435263094976 1.0
C      1  0.3132985425056  0.6131566766001  0.3215005362975 1.0
C      1  0.6459581538567  0.4078281370213  0.7462597972807 1.0
C      1  0.4867226281876  0.3883198927663  0.7531417769385 1.0
C      1  0.3120549321723  0.2946644151800  0.5746500166969 1.0
C      1  0.4187122265756  0.4727670035073  0.2509383819470 1.0
C      1  0.4919866158538  0.5655823515438  0.6679281857735 1.0
C      1  0.3358216852548  0.2894137526127  0.4837137723679 1.0
C      1  0.7837412496895  0.6293492622042  0.5840533248089 1.0
C      1  0.7151061079244  0.4955654725357  0.3226936772756 1.0
C      1  0.7826172811135  0.5923739037320  0.4990095274601 1.0
C      1  0.6535156908778  0.6934001006973  0.4451909807284 1.0
C      1  0.2701928510477  0.4443484899121  0.4747075813868 1.0
C      1  0.3708962706650  0.4672933043662  0.5131191801148 1.0
C      1  0.4167008767431  0.2639082115845  0.4355507991200 1.0
C      1  0.5486854072554  0.5623197998123  0.2589197755537 1.0
C      1  0.2459372298504  0.5734505109902  0.5633989434958 1.0
C      1  0.5833861965007  0.3233849033496  0.6205395397493 1.0
C      1  0.5765925854713  0.3016269368598  0.3386641781774 1.0
C      1  0.3165830316793  0.6573855042009  0.4088241525125 1.0
C      1  0.3417291813549  0.5058368223877  0.7838683704779 1.0
C      1  0.4939070276448  0.3311623960827  0.3005926194290 1.0
C      1  0.3628370953912  0.7313322587952  0.6201942938929 1.0
C      1  0.5598728684813  0.6302372937440  0.6670500559547 1.0
C      1  0.5224469120897  0.4521647298441  0.5073195427082 1.0
C      1  0.6697214995845  0.3195425875201  0.5657356032074 1.0
C      1  0.4508301702978  0.5001840274471  0.4700975923825 1.0
C      1  0.2692883927464  0.5966605597069  0.6556552954998 1.0
C      1  0.5197580871431  0.6283514992711  0.5111808444700 1.0
C      1  0.7385746967439  0.6537860561460  0.4344182612260 1.0
C      1  0.6544440684904  0.3539473226582  0.3259049713325 1.0
C      1  0.7728212865656  0.4311476613631  0.6513414001951 1.0
C      1  0.2815656790047  0.4395461500351  0.6417383513399 1.0
C      1  0.3183189394758  0.6776035712061  0.6829699697455 1.0
C      1  0.4244893575202  0.6647366767410  0.3873624102664 1.0
C      1  0.6311532126848  0.6741690472386  0.6242669706070 1.0
C      1  0.7483233985808  0.4521396415747  0.4036033023825 1.0
C      1  0.5012845324413  0.2528870086792  0.4779708711295 1.0
C      1  0.5098131352697  0.7355966830226  0.5031777224371 1.0
C      1  0.4143139705633  0.3091091730946  0.3487525030849 1.0
C      1  0.2358966259105  0.4779931289674  0.5620905178858 1.0
C      1  0.3546170653304  0.5944890586569  0.8122765602024 1.0
C      1  0.7693310492765  0.6429505332627  0.3461341487880 1.0
C      1  0.7197603152773  0.4408526743044  0.7257368034751 1.0
C      1  0.2524459144137  0.5201575163625  0.4165488529753 1.0
C      1  0.7932548178248  0.4426187090501  0.5591878797041 1.0
C      1  0.6601858484661  0.3075330621545  0.4711710170161 1.0
C      1  0.7076877502536  0.3619365054649  0.4050645367189 1.0
C      1  0.3414331611695  0.6684338481281  0.7752280975153 1.0
C      1  0.4411464450579  0.4884050253925  0.6715618458284 1.0
C      1  0.7214269411391  0.6580414022700  0.6319308998676 1.0
C      1  0.3383434517568  0.4501376807779  0.2975889745371 1.0
C      1  0.3750240863129  0.4613599428981  0.6058577729075 1.0
C      1  0.3383269233675  0.3672369698269  0.3467564529254 1.0
C      1  0.5053980842247  0.2905544726532  0.5693050800466 1.0
C      1  0.5889555483453  0.6953054064281  0.3696999208656 1.0
C      1  0.2805440052042  0.3392820758616  0.6379046760833 1.0
C      1  0.4013332405650  0.6286229079044  0.2962028841121 1.0
C      1  0.2639447408763  0.6016067563323  0.4695542710586 1.0
C      1  0.7004593188809  0.5898482010205  0.3101831076160 1.0
C      1  0.5734073952358  0.4688405638167  0.2456579683493 1.0
C      1  0.7857445693375  0.4979518350633  0.4817949390885 1.0
C      1  0.4214214369722  0.4469370101729  0.7607886760100 1.0
C      1  0.2821355611078  0.5227268419868  0.3282683804263 1.0
C      1  0.6012865343356  0.6993503533024  0.5284695670221 1.0
C      1  0.4398988054110  0.7212563423938  0.5786459150797 1.0
C      1  0.6532813773651  0.4367790352393  0.2806102921126 1.0
C      1  0.2927745214511  0.3574418354615  0.4313027925580 1.0
C      1  0.5694919178954  0.3630340304144  0.7165669086894 1.0
C      1  0.5815200128485  0.2673374041731  0.4288358463322 1.0
END
