TITL C-140509-8425-34 -0.895 3375.00 -129.02835716 0 0 17 (C1) n - 1
REM
REM Run started: at 2020.12.05 02:04:31 in /rds/project/t2_vol4/rds-t2-cs072/BORA/CARBON/AIRSS/Generating-Clusters/Str-Search/Only-C1/C10-100
REM VASP from code version vasp.5.4.4.18Apr17-6-g9f103f2a35 (build Oct 11 2019 16:45:47) gamma-only
REM
REM
REM
REM
REM ./C.cell (67c5d0192afd7a3ce4a0888e5fe73b87)
REM AIRSS Version 0.9.1 bugfix July 2018 build 013d7b7c2542+ Fri, 06 Jul 2018 19:26:36 +0100
REM compiler GCC version 4.8.5 20150623 (Red Hat 4.8.5-39)
REM options -cpp -mtune=generic -march=x86-64 -g -O0
REM seed 539266123 -1975422256 -365743895 -1151356017 798841963 -791781592 1870388861 1259747961 -2030144118 1806425674 -1081699259 -1528520108
REM
REM C.POTCAR (d86ddea03c3ceb6dc662c8ad6801f873)
REM 
CELL 1.54180   15.00000   15.00000   15.00000   90.00000   90.00000   90.00000
LATT -1
SFAC C  
C      1  0.4360684287287  0.2969333214979  0.4670451763518 1.0
C      1  0.5908221672046  0.4602920781271  0.4694889327998 1.0
C      1  0.6837817244046  0.4633156245612  0.4661659494999 1.0
C      1  0.3718855283270  0.6484046525384  0.5070500585780 1.0
C      1  0.4355197332820  0.2542811906286  0.3888031963281 1.0
C      1  0.4482643710321  0.7182020874297  0.6402408458985 1.0
C      1  0.5009852927927  0.4317458271180  0.4359036339517 1.0
C      1  0.5093013548536  0.3962543547562  0.3366863984169 1.0
C      1  0.3997733126583  0.5742640810282  0.4640174026108 1.0
C      1  0.6192052296864  0.5619082891251  0.6073114708825 1.0
C      1  0.4735727418385  0.3175822627589  0.3382250170983 1.0
C      1  0.6331490004325  0.5082499277376  0.5363441582246 1.0
C      1  0.5176692878871  0.6775731348739  0.6666419769389 1.0
C      1  0.3919146855198  0.6909893274763  0.5761147253119 1.0
C      1  0.4615112063988  0.3667762873849  0.5112564410257 1.0
C      1  0.5877314480371  0.6262840516067  0.6511272433172 1.0
C      1  0.4388443869162  0.5069435013514  0.4375773727656 1.0
END
