TITL C-141674-2200-22 -5.621 3375.00 0 0 0 118 (C1) n - 1
REM
REM Run started: at 2020.03.16 10:29:23 in /rds/user/bk393/hpc-work/AIRSS.pl-DENE/CARBON/New-Try
REM VASP from code version vasp.5.4.4.18Apr17-6-g9f103f2a35 (build Oct 11 2019 16:45:47) gamma-only
REM
REM
REM
REM
REM ./C.cell (9f5935e56d41cf50cb14479ce98dda23)
REM AIRSS Version 0.9.1 bugfix July 2018 build 013d7b7c2542+ Fri, 06 Jul 2018 19:26:36 +0100
REM compiler GCC version 4.8.5 20150623 (Red Hat 4.8.5-39)
REM options -cpp -mtune=generic -march=x86-64 -g -O0
REM seed 1576289104 260976880 91369508 -1995969598 1468710391 330155456 1619062558 750695740 -1498402840 -415925602 -759557696 -184417306
REM
REM C.POTCAR (d86ddea03c3ceb6dc662c8ad6801f873)
REM 
CELL 1.54180   15.00000   15.00000   15.00000   90.00000   90.00000   90.00000
LATT -1
SFAC C  
C      1  0.6539489629446  0.6747365148000  0.6704910170968 1.0
C      1  0.6510036863616  0.4682736204028  0.7471652533051 1.0
C      1  0.3330954660795  0.7897993474399  0.6577182756706 1.0
C      1  0.7412181035594  0.3212136660252  0.3549058474309 1.0
C      1  0.4696129044690  0.4334331607593  0.7722229638221 1.0
C      1  0.4990684863790  0.3310229057454  0.5704588385707 1.0
C      1  0.2343185427965  0.5187266569027  0.5326391237019 1.0
C      1  0.1771340645665  0.5918279007263  0.5847247212232 1.0
C      1  0.5564020963702  0.2814289695982  0.7707630920603 1.0
C      1  0.8116176540965  0.5096067248573  0.6181046812431 1.0
C      1  0.6577693676238  0.3988835293335  0.2371167541148 1.0
C      1  0.3799351483826  0.3857133333110  0.1958549520452 1.0
C      1  0.7059080188820  0.5329508491143  0.4142071895616 1.0
C      1  0.6007034165099  0.2280441249740  0.4065445854825 1.0
C      1  0.3589851762279  0.6023930651066  0.7844028956079 1.0
C      1  0.7821805310600  0.3498508725692  0.5402665649852 1.0
C      1  0.8288209572424  0.4608083289437  0.4683689234148 1.0
C      1  0.4542492176352  0.4678533583220  0.5885006919222 1.0
C      1  0.4250888372022  0.7722137522733  0.6549816330570 1.0
C      1  0.3829958798088  0.3759218220488  0.7652237609758 1.0
C      1  0.4055284935633  0.5798978520757  0.6981869679904 1.0
C      1  0.5182211394224  0.3089349405225  0.2380360987117 1.0
C      1  0.5092409104055  0.5239711248323  0.8006758778936 1.0
C      1  0.7262726592079  0.8125441434428  0.2988305010561 1.0
C      1  0.2351723790068  0.7298525010424  0.5169917747785 1.0
C      1  0.5790219371236  0.2145010245868  0.6372689266557 1.0
C      1  0.5431027611038  0.3681018753285  0.7638588793852 1.0
C      1  0.5233918069068  0.2163849427591  0.7138380916523 1.0
C      1  0.7232846157875  0.6063811679322  0.2177065008185 1.0
C      1  0.5249650881748  0.7021099831508  0.1826109120396 1.0
C      1  0.2678168932190  0.4009197914271  0.6543063664492 1.0
C      1  0.4574504013439  0.6063345970555  0.7820740452295 1.0
C      1  0.1703780285205  0.3521580718864  0.4325306285011 1.0
C      1  0.4543691094421  0.3754563807834  0.3768169938897 1.0
C      1  0.6558385103722  0.2374369297643  0.5803807639994 1.0
C      1  0.4033531185313  0.6460836364488  0.3056210468806 1.0
C      1  0.3785578236413  0.6145032800781  0.6051701318919 1.0
C      1  0.7778540534743  0.3703128309547  0.4400918662916 1.0
C      1  0.6106334620963  0.4785663386568  0.2063146274003 1.0
C      1  0.6290655753264  0.4116895311038  0.4500945287632 1.0
C      1  0.6055082843764  0.4237954168316  0.5280267217886 1.0
C      1  0.4658080108702  0.2923447464853  0.3216144813372 1.0
C      1  0.3001171210976  0.3340506550966  0.4334934731484 1.0
C      1  0.6386519751238  0.5737139014020  0.2287020296334 1.0
C      1  0.6114804799993  0.3157914812460  0.2590570148454 1.0
C      1  0.6579490747927  0.2736366946228  0.3408049040689 1.0
C      1  0.7099821993182  0.6491427883717  0.5920536821589 1.0
C      1  0.3172690114550  0.4189437787752  0.2391459729947 1.0
C      1  0.5375261566737  0.7209266131365  0.3387933322584 1.0
C      1  0.4861975694909  0.4607190196042  0.3532580652608 1.0
C      1  0.2757182955054  0.5369765698737  0.3515315721996 1.0
C      1  0.7368696389194  0.4343084841646  0.7240211600167 1.0
C      1  0.7224939016696  0.3050294899686  0.6007141001409 1.0
C      1  0.6195926743852  0.6558253219772  0.4527871818129 1.0
C      1  0.2954603673451  0.5308633741756  0.7799699717966 1.0
C      1  0.2651708379953  0.4478424973865  0.3112607776818 1.0
C      1  0.7024224871251  0.4384329291341  0.3925508643239 1.0
C      1  0.5994555217597  0.5419109092015  0.7753667529768 1.0
C      1  0.4632289738431  0.7548682888331  0.2021821196599 1.0
C      1  0.5904596669155  0.7979032935122  0.3809157047916 1.0
C      1  0.3485346052553  0.2216401732146  0.5366862161845 1.0
C      1  0.5223779189842  0.5471013078338  0.3929882557495 1.0
C      1  0.5182438999755  0.4600876735340  0.1864767963170 1.0
C      1  0.8273759345825  0.4332911124025  0.5585987265098 1.0
C      1  0.5101127791370  0.2227111323335  0.3775586464087 1.0
C      1  0.3259888420217  0.6069594607394  0.3164014273407 1.0
C      1  0.4150220224376  0.4803470003152  0.6832526352752 1.0
C      1  0.2401934868130  0.4239321591081  0.5673311440911 1.0
C      1  0.2813708293594  0.5751413844325  0.6030055420667 1.0
C      1  0.7598929823078  0.6827555350451  0.2301454658453 1.0
C      1  0.4815410737948  0.5995758664623  0.4689040048538 1.0
C      1  0.3592119245692  0.2528101866028  0.4425682504627 1.0
C      1  0.6032245156168  0.2201443099530  0.5004148662055 1.0
C      1  0.2069130838212  0.5742250054299  0.6728921797737 1.0
C      1  0.4157683939115  0.8105080762167  0.3693828742201 1.0
C      1  0.4894955467248  0.5895742344090  0.2985084434438 1.0
C      1  0.7248355256196  0.4017690519206  0.3036688520628 1.0
C      1  0.3681574027921  0.2913144080956  0.7169843110287 1.0
C      1  0.4520742034747  0.8281771760346  0.4423239519596 1.0
C      1  0.2348429970524  0.3806583266738  0.3735584847390 1.0
C      1  0.4731580904292  0.3744600283998  0.1833197911410 1.0
C      1  0.4289972275929  0.2230606525052  0.6841002240483 1.0
C      1  0.5218142241196  0.6784490483866  0.7579202000194 1.0
C      1  0.5392990171976  0.7866780257328  0.4715522899275 1.0
C      1  0.4203874144784  0.2174147974574  0.3747274483600 1.0
C      1  0.5521551370021  0.4106985881126  0.6056214007770 1.0
C      1  0.4326734011276  0.3832551283079  0.5381900056860 1.0
C      1  0.7983986416120  0.5038442257797  0.7090430189813 1.0
C      1  0.4850246311918  0.4994772622478  0.2671164586434 1.0
C      1  0.7807287460656  0.5458657637642  0.4706692845451 1.0
C      1  0.5899678093877  0.7484534735515  0.6430177917455 1.0
C      1  0.2089184551106  0.5535358214758  0.7582616435752 1.0
C      1  0.2915609835921  0.3076699376390  0.6590458190457 1.0
C      1  0.7838554841658  0.7639809105369  0.2541604644784 1.0
C      1  0.4429170977244  0.5631162967282  0.5444361784989 1.0
C      1  0.7001602968686  0.3582847794177  0.6770428727706 1.0
C      1  0.6083217481076  0.6335547457780  0.7435095285785 1.0
C      1  0.6064015197175  0.3971369541083  0.6924293432053 1.0
C      1  0.3049037611687  0.7604860864634  0.5661178405829 1.0
C      1  0.6242141018357  0.5735087233390  0.4114600685784 1.0
C      1  0.1631329753896  0.6693741919539  0.5274040091801 1.0
C      1  0.6656484680039  0.8392814265191  0.3539250483249 1.0
C      1  0.5177830926504  0.2298466441849  0.5600514964162 1.0
C      1  0.4402929571189  0.7437885487103  0.3000462504313 1.0
C      1  0.2371270021608  0.3386848877705  0.5140780069777 1.0
C      1  0.2446270215751  0.5634602789636  0.4400657249857 1.0
C      1  0.2744400665884  0.2670879324872  0.5759508394198 1.0
C      1  0.5621250215366  0.6449641586429  0.2556968994875 1.0
C      1  0.6619964373131  0.6981724294136  0.5223734551478 1.0
C      1  0.4232997012855  0.2005384853882  0.5893173112626 1.0
C      1  0.5985758108707  0.7669734318158  0.5531616289225 1.0
C      1  0.3254432812412  0.4445449621719  0.7226870154303 1.0
C      1  0.3962377053083  0.3596760466139  0.4517175064375 1.0
C      1  0.7737173419520  0.5816879155408  0.5635480923134 1.0
C      1  0.2155304631129  0.6559354187563  0.4509316800697 1.0
C      1  0.5093386238607  0.7491379354781  0.6981598442162 1.0
C      1  0.3856157863802  0.7138363331026  0.5875272123173 1.0
C      1  0.5270949533765  0.6894849411129  0.4376475524675 1.0
END
