TITL C-140509-8425-13 -0.984 3375.00 -145.71349137 0 0 19 (C1) n - 1
REM
REM Run started: at 2020.12.04 18:56:16 in /rds/project/t2_vol4/rds-t2-cs072/BORA/CARBON/AIRSS/Generating-Clusters/Str-Search/Only-C1/C10-100
REM VASP from code version vasp.5.4.4.18Apr17-6-g9f103f2a35 (build Oct 11 2019 16:45:47) gamma-only
REM
REM
REM
REM
REM ./C.cell (67c5d0192afd7a3ce4a0888e5fe73b87)
REM AIRSS Version 0.9.1 bugfix July 2018 build 013d7b7c2542+ Fri, 06 Jul 2018 19:26:36 +0100
REM compiler GCC version 4.8.5 20150623 (Red Hat 4.8.5-39)
REM options -cpp -mtune=generic -march=x86-64 -g -O0
REM seed -1550851708 -661052032 -1280157895 -871806278 1663780966 493229 2057376889 600691056 -1230623515 1987520230 1420087954 -1961567565
REM
REM C.POTCAR (d86ddea03c3ceb6dc662c8ad6801f873)
REM 
CELL 1.54180   15.00000   15.00000   15.00000   90.00000   90.00000   90.00000
LATT -1
SFAC C  
C      1  0.2834924600408  0.2665082878453  0.5582864249231 1.0
C      1  0.4888788004257  0.6083836208060  0.6519970381878 1.0
C      1  0.3793300796009  0.4238291676908  0.5759471458076 1.0
C      1  0.6449958832572  0.6172051112476  0.5013570553633 1.0
C      1  0.5324651353998  0.3856912308452  0.3758115731332 1.0
C      1  0.7062541446345  0.7039094171268  0.2649862858972 1.0
C      1  0.5622813749598  0.5720970042104  0.5098874665981 1.0
C      1  0.4973904131096  0.5556489546099  0.5783056663430 1.0
C      1  0.4726568171415  0.3202517744460  0.3854566713959 1.0
C      1  0.4074665059653  0.2839940389263  0.4221512059671 1.0
C      1  0.4337318968715  0.4860613666040  0.5753603387951 1.0
C      1  0.6389477700681  0.6198726993350  0.4028338826160 1.0
C      1  0.4652910579731  0.7111735269939  0.7885790558539 1.0
C      1  0.4740284078142  0.6562759400105  0.7209664488319 1.0
C      1  0.6714982164575  0.6649333136319  0.3331438258467 1.0
C      1  0.5773415941963  0.4546391579365  0.3865413996354 1.0
C      1  0.5811297435154  0.5416011237534  0.4200536015617 1.0
C      1  0.3469462872971  0.2818078477349  0.4900365416406 1.0
C      1  0.3358733112718  0.3461165162454  0.5582985716022 1.0
END
