TITL C-140509-8425-20 -3.691 3375.00 -638.81929117 0 0 78 (C1) n - 1
REM
REM Run started: at 2020.12.04 20:57:41 in /rds/project/t2_vol4/rds-t2-cs072/BORA/CARBON/AIRSS/Generating-Clusters/Str-Search/Only-C1/C10-100
REM VASP from code version vasp.5.4.4.18Apr17-6-g9f103f2a35 (build Oct 11 2019 16:45:47) gamma-only
REM
REM
REM
REM
REM ./C.cell (67c5d0192afd7a3ce4a0888e5fe73b87)
REM AIRSS Version 0.9.1 bugfix July 2018 build 013d7b7c2542+ Fri, 06 Jul 2018 19:26:36 +0100
REM compiler GCC version 4.8.5 20150623 (Red Hat 4.8.5-39)
REM options -cpp -mtune=generic -march=x86-64 -g -O0
REM seed -981337253 191949013 386418306 819147709 -2058621960 2136440726 751059365 280472724 1236244820 1367192045 -1788615434 -958797811
REM
REM C.POTCAR (d86ddea03c3ceb6dc662c8ad6801f873)
REM 
CELL 1.54180   15.00000   15.00000   15.00000   90.00000   90.00000   90.00000
LATT -1
SFAC C  
C      1  0.5341707187657  0.2862726211315  0.4331663880571 1.0
C      1  0.7714639446120  0.7179795783674  0.5489577072851 1.0
C      1  0.5723532737782  0.4647560150285  0.5878678757137 1.0
C      1  0.6293598710739  0.6721576976989  0.3391035000110 1.0
C      1  0.2205415475667  0.5761607068463  0.4125960627019 1.0
C      1  0.4101690588409  0.5238608220436  0.7812076889351 1.0
C      1  0.5152955613078  0.5534118084436  0.2695047401540 1.0
C      1  0.4342565685870  0.6544472206360  0.5170300891431 1.0
C      1  0.3801013508542  0.6524388376026  0.3272975936808 1.0
C      1  0.5480691317338  0.5559613438702  0.6020139789693 1.0
C      1  0.7392181911489  0.7448804617589  0.6216253910749 1.0
C      1  0.7027174290286  0.6465442666027  0.4067979333315 1.0
C      1  0.6991449966002  0.4992353935414  0.3550402064007 1.0
C      1  0.6271812889731  0.3446252944707  0.6550019666451 1.0
C      1  0.5619177562918  0.5776404108950  0.4349705872698 1.0
C      1  0.3791988925162  0.2640147274821  0.5345918452230 1.0
C      1  0.3395955733707  0.5062162309780  0.6404850925120 1.0
C      1  0.2072183833399  0.5094206259162  0.4762492874418 1.0
C      1  0.6098240542636  0.6061641365337  0.2749237658161 1.0
C      1  0.3786941809504  0.2965739640115  0.4405462608235 1.0
C      1  0.4529156848322  0.2757548889368  0.5883508527273 1.0
C      1  0.4538576709812  0.2968422905540  0.3823529270381 1.0
C      1  0.6618154167502  0.3432275671360  0.3359438963005 1.0
C      1  0.7224082555121  0.4888348248834  0.5987788717850 1.0
C      1  0.5143104953164  0.5235488703452  0.3684809257796 1.0
C      1  0.6175829336041  0.3667884727663  0.2585614344975 1.0
C      1  0.3636737211113  0.5124364147334  0.3410001907034 1.0
C      1  0.5593533197261  0.5786803190441  0.6896514808799 1.0
C      1  0.4080062298170  0.7007812821696  0.6026570826182 1.0
C      1  0.2728221640703  0.4399473043721  0.5088594981248 1.0
C      1  0.2871916754469  0.2990317604351  0.5461820101825 1.0
C      1  0.4422621231583  0.4387296218584  0.7733911808242 1.0
C      1  0.6244847793008  0.2962038364466  0.4113508081771 1.0
C      1  0.7512009480124  0.6511085013908  0.4874934397266 1.0
C      1  0.4483258911696  0.3328047714842  0.2903422022662 1.0
C      1  0.6485244412504  0.4445550779548  0.6518592436107 1.0
C      1  0.4746869287045  0.7174923475495  0.4484551133124 1.0
C      1  0.2696026267999  0.6415342969291  0.5502084489172 1.0
C      1  0.3584042631103  0.6585048497295  0.6959556211225 1.0
C      1  0.5381227057835  0.4244975490574  0.7603830809769 1.0
C      1  0.3461633065084  0.6060467206481  0.4912817094496 1.0
C      1  0.6310865687488  0.4566202580845  0.2200663842912 1.0
C      1  0.2951814271804  0.3441805020678  0.4612881620555 1.0
C      1  0.7236050812717  0.4080350349966  0.3769855426380 1.0
C      1  0.3187206306512  0.5924923716507  0.3906237812932 1.0
C      1  0.7421715730758  0.3857946267758  0.4667039354392 1.0
C      1  0.5009001510122  0.5755260872213  0.5194838057388 1.0
C      1  0.6243605185589  0.3057635072284  0.5672340462974 1.0
C      1  0.4461480430892  0.4843703990743  0.5014465777236 1.0
C      1  0.6666935120623  0.5571674461722  0.4317880379087 1.0
C      1  0.3967949444332  0.3727437470697  0.7172298802977 1.0
C      1  0.6827625879575  0.7523373933363  0.6895739314734 1.0
C      1  0.3276636453808  0.4127191629135  0.6613813463267 1.0
C      1  0.7640219424735  0.4586094964405  0.5255588989115 1.0
C      1  0.4609764830575  0.3111098549242  0.6804168745265 1.0
C      1  0.7283427410035  0.5510865751423  0.5139105621838 1.0
C      1  0.4176259493185  0.5802618567845  0.2829984883509 1.0
C      1  0.1948967457626  0.5988170317340  0.5095954916684 1.0
C      1  0.3516519571104  0.5095691166347  0.5387015361259 1.0
C      1  0.5294105184012  0.3088397533713  0.5318428600044 1.0
C      1  0.3179587722768  0.4389157326099  0.2920887198136 1.0
C      1  0.5498553354229  0.3404484146845  0.7098755274187 1.0
C      1  0.2752159228990  0.3789374626704  0.5930928029558 1.0
C      1  0.6701920527954  0.5278191627331  0.2704148242668 1.0
C      1  0.4394884064234  0.4857407523764  0.4016727881526 1.0
C      1  0.5371329621743  0.4676350108089  0.2169029790979 1.0
C      1  0.5153680366152  0.4157263266904  0.5375012173794 1.0
C      1  0.3661353149278  0.3743457502563  0.2730086103185 1.0
C      1  0.6077473760083  0.7255027144664  0.7174003430637 1.0
C      1  0.3598834959895  0.5631089103252  0.7133443550462 1.0
C      1  0.5342976529811  0.6715172645106  0.7175593728151 1.0
C      1  0.4456342918458  0.7027337490373  0.6894937603805 1.0
C      1  0.6777419975401  0.3160491376533  0.4910955915203 1.0
C      1  0.4509156873272  0.7054913040931  0.3622521397936 1.0
C      1  0.5951164089824  0.4902933764557  0.7276639168700 1.0
C      1  0.5214176264760  0.3719749557805  0.2455203991081 1.0
C      1  0.5465172085053  0.6750427428673  0.3955888850044 1.0
C      1  0.3101595756912  0.6925595780749  0.6181753435299 1.0
END
