TITL C-145674-8295-1 -8.917 3375.00 -1568.04266760 0 0 190 (C1) n - 1
REM
REM Run started: at 2021.01.21 05:29:52 in /rds/project/t2_vol4/rds-t2-cs072/BORA/CARBON/AIRSS/Generating-Clusters/Str-Search/Only-C1/C100-200
REM VASP from code version vasp.5.4.4.18Apr17-6-g9f103f2a35 (build Oct 11 2019 16:45:47) gamma-only
REM
REM
REM
REM
REM ./C.cell (efaf0b2bf1589a83377268d7ebe2c73f)
REM AIRSS Version 0.9.1 bugfix July 2018 build 013d7b7c2542+ Fri, 06 Jul 2018 19:26:36 +0100
REM compiler GCC version 4.8.5 20150623 (Red Hat 4.8.5-39)
REM options -cpp -mtune=generic -march=x86-64 -g -O0
REM seed 2029449121 1861709065 -1510219623 1286531847 -1052348790 1668423727 -1041789663 -1738998568 -1488669930 -1812533160 -649442820 -2129933040
REM
REM C.POTCAR (d86ddea03c3ceb6dc662c8ad6801f873)
REM 
CELL 1.54180   15.00000   15.00000   15.00000   90.00000   90.00000   90.00000
LATT -1
SFAC C  
C      1  0.4534629383675  0.3351224946958  0.1539952924376 1.0
C      1  0.7127732494697  0.5185855027512  0.1416709139329 1.0
C      1  0.6558729055093  0.2517336676502  0.8148880824210 1.0
C      1  0.1390378671245  0.3915235029651  0.3410919502556 1.0
C      1  0.7200077993392  0.2164084986088  0.4069892275890 1.0
C      1  0.3787780970317  0.3396163734790  0.5887000453330 1.0
C      1  0.5359649065646  0.5672407034570  0.1739289466615 1.0
C      1  0.5552803784414  0.4915459971938  0.7861494381043 1.0
C      1  0.6438181793386  0.5639728365944  0.0888804804313 1.0
C      1  0.6262916766858  0.6234871556672  0.1713126969838 1.0
C      1  0.8158195624255  0.7107453872270  0.7567413723073 1.0
C      1  0.2182031440020  0.2792777245157  0.2242387400080 1.0
C      1  0.7785995789163  0.3671443016723  0.4790110360119 1.0
C      1  0.1402947374540  0.3637005257775  0.4359513670593 1.0
C      1  0.4648676586795  0.3137978454592  0.3128900828219 1.0
C      1  0.3601745161706  0.7458637124841  0.5115955039718 1.0
C      1  0.7048266349976  0.8661460526828  0.4979619363248 1.0
C      1  0.3737289571569  0.1878156326842  0.3217838864440 1.0
C      1  0.5482037555795  0.3024702721304  0.1797676996492 1.0
C      1  0.5251994841177  0.4339780984125  0.9446468000318 1.0
C      1  0.4337576489820  0.4344909078726  0.8923339254195 1.0
C      1  0.6164758509669  0.7226304465815  0.2900209883283 1.0
C      1  0.5100642370393  0.6317328719008  0.8387534558307 1.0
C      1  0.4662844972737  0.5700083526340  0.2320535232686 1.0
C      1  0.6375580539484  0.5497372599655  0.4585073804620 1.0
C      1  0.5866005642307  0.3697835245317  0.2519645965451 1.0
C      1  0.8602765331275  0.3312513565832  0.7635674252576 1.0
C      1  0.8359585450039  0.5393870251703  0.6303116157600 1.0
C      1  0.7095089903738  0.7025921203720  0.3170517806793 1.0
C      1  0.7242834336779  0.2453045182189  0.7661620460057 1.0
C      1  0.4827498936189  0.1191749094626  0.4294244103391 1.0
C      1  0.2391764923718  0.2911866118515  0.6491739794335 1.0
C      1  0.5531538443844  0.5267844518586  0.0857162898413 1.0
C      1  0.2684402119320  0.2525753093761  0.4538381266465 1.0
C      1  0.5091694966872  0.4046495755189  0.3047885785228 1.0
C      1  0.1298530505786  0.4855723223612  0.3226793235658 1.0
C      1  0.1089621982638  0.5174493015939  0.4883302583660 1.0
C      1  0.2894934363076  0.3085471251299  0.1682451980415 1.0
C      1  0.7953548648198  0.6805373095352  0.5258200837819 1.0
C      1  0.1974249232916  0.6504536132393  0.5296760490661 1.0
C      1  0.5561226025621  0.6215913098811  0.6859836894321 1.0
C      1  0.3672544135301  0.7706425456694  0.6717789897908 1.0
C      1  0.4407440197604  0.4138687533902  0.0925311631221 1.0
C      1  0.3380153824537  0.5980216164107  0.8545779640698 1.0
C      1  0.5664878400419  0.1411942348359  0.3777125390868 1.0
C      1  0.3506789249319  0.6575223882060  0.4511878911301 1.0
C      1  0.2027273784082  0.4339954265963  0.2039497267504 1.0
C      1  0.8124682902587  0.4997214892282  0.8018786996019 1.0
C      1  0.1320094230897  0.5478263518461  0.3975309814419 1.0
C      1  0.8012058571294  0.4044059290846  0.7905599189534 1.0
C      1  0.5006724988718  0.7751020369024  0.7665286196774 1.0
C      1  0.5230931960171  0.8144557128855  0.6747730874156 1.0
C      1  0.8049420820099  0.5903990594093  0.3768372716999 1.0
C      1  0.1447082629346  0.4614792279478  0.6655434408237 1.0
C      1  0.4348370140641  0.3871848074281  0.2433177233511 1.0
C      1  0.6458588093389  0.8669473986618  0.4225222744444 1.0
C      1  0.6840840766197  0.3523770476095  0.1082910014079 1.0
C      1  0.3121040883235  0.7375644459892  0.6035001600506 1.0
C      1  0.6015483633028  0.1739453841558  0.5233236228450 1.0
C      1  0.6702211479468  0.4679396687121  0.6768465142410 1.0
C      1  0.5838872262270  0.4816775553140  0.8807797617878 1.0
C      1  0.6622679907662  0.3359895476386  0.3045202838792 1.0
C      1  0.6761333557047  0.4137191789498  0.2463985093240 1.0
C      1  0.5056090245467  0.3246197353803  0.7911011196646 1.0
C      1  0.3285395418372  0.2592984597245  0.6196769580186 1.0
C      1  0.1876352572643  0.2950832338111  0.4882178008956 1.0
C      1  0.2013648976200  0.4259615358904  0.7340892630393 1.0
C      1  0.6860494180996  0.6016282420522  0.7938770223109 1.0
C      1  0.1493561306607  0.5580052878337  0.6457234975156 1.0
C      1  0.7757948576355  0.4148200419974  0.3780750774647 1.0
C      1  0.1350821333885  0.5794498515001  0.5548092042054 1.0
C      1  0.5924017688234  0.3113619751084  0.8445941128392 1.0
C      1  0.6333804524039  0.3232247391041  0.6047955243893 1.0
C      1  0.7440950062520  0.4097163064431  0.7173786282895 1.0
C      1  0.5003179137229  0.7458293401743  0.1856866950583 1.0
C      1  0.3905916551028  0.1410954067218  0.4080533485233 1.0
C      1  0.4634496403277  0.6149193914279  0.3253004887609 1.0
C      1  0.7458740986782  0.6145673333704  0.2972447586208 1.0
C      1  0.4159724772967  0.5385027920526  0.8758507123490 1.0
C      1  0.2174507881449  0.5999466533684  0.2202471028527 1.0
C      1  0.5483016893381  0.4011485453681  0.7413984286139 1.0
C      1  0.5651027852126  0.1774848083665  0.2964665199444 1.0
C      1  0.4807837580794  0.6094467828264  0.9205342285108 1.0
C      1  0.7639855475681  0.6026725983794  0.5829400723729 1.0
C      1  0.5994755547786  0.2358056956368  0.5984310217021 1.0
C      1  0.6115232232122  0.3848298552240  0.9082803280376 1.0
C      1  0.6228844181000  0.5461555630173  0.7308577006652 1.0
C      1  0.3910083515478  0.5045250747433  0.5582978435765 1.0
C      1  0.7873236649688  0.2815100192761  0.4316298669708 1.0
C      1  0.7836526409354  0.3498229463107  0.6447848259286 1.0
C      1  0.8619869849728  0.6410346107219  0.7489638843989 1.0
C      1  0.3336909976294  0.6844616144520  0.8029434476378 1.0
C      1  0.8217249786162  0.4988313060011  0.4097770381002 1.0
C      1  0.6920724162211  0.8172121077404  0.5774075878314 1.0
C      1  0.2459379323639  0.6466824036763  0.7650189942628 1.0
C      1  0.0913884410537  0.6358977523564  0.3691006424736 1.0
C      1  0.4453045671926  0.8027174960399  0.6285514416320 1.0
C      1  0.4314430439942  0.7144741475995  0.1265504892156 1.0
C      1  0.4781551889961  0.5528346668557  0.4091967980050 1.0
C      1  0.3656764612591  0.4658576050430  0.1290666203741 1.0
C      1  0.3579142709746  0.6765266184640  0.1248634615789 1.0
C      1  0.2539818054662  0.6353193184363  0.4568529301630 1.0
C      1  0.1767870280431  0.3566614591302  0.2578255115829 1.0
C      1  0.3778476705474  0.6685857039457  0.3499215011034 1.0
C      1  0.5433298007357  0.7815345790519  0.5094145851814 1.0
C      1  0.7296241044552  0.2717531550193  0.3284767814267 1.0
C      1  0.4516970237532  0.7735934426262  0.5401916825585 1.0
C      1  0.5955024907816  0.7916418990150  0.6062292494638 1.0
C      1  0.3198157180289  0.3181949298456  0.4064530056398 1.0
C      1  0.3138040862711  0.6881885359368  0.2738603032859 1.0
C      1  0.3912666872789  0.7477195270178  0.7620844125961 1.0
C      1  0.2654174686663  0.4891887223411  0.7696450502621 1.0
C      1  0.4567474580122  0.1682838420017  0.5847869686133 1.0
C      1  0.5116724709172  0.1357299351941  0.5170848165146 1.0
C      1  0.7185367435387  0.3691335666596  0.5634239881967 1.0
C      1  0.8139587342664  0.3203363991932  0.3435845968272 1.0
C      1  0.6846432043951  0.4256765518553  0.3458288350779 1.0
C      1  0.3771822709788  0.5369141454928  0.2009330110822 1.0
C      1  0.3742499899575  0.1935622003381  0.2317989892118 1.0
C      1  0.1741482932284  0.3141480036773  0.5842819909095 1.0
C      1  0.2139980395030  0.6792014954849  0.2713042697576 1.0
C      1  0.3565675130875  0.4438747722479  0.2331118361511 1.0
C      1  0.8059455178487  0.6725338288993  0.4319332237678 1.0
C      1  0.7221542709943  0.6809966380034  0.7381147891163 1.0
C      1  0.3862998465011  0.2812966169618  0.3534137039186 1.0
C      1  0.7341528168197  0.8301544652067  0.4164504503505 1.0
C      1  0.5620988376386  0.6187884172674  0.4445922984336 1.0
C      1  0.7059990508895  0.6718702507421  0.6380240454634 1.0
C      1  0.3151502642550  0.6177681214295  0.1941085252156 1.0
C      1  0.1433899674450  0.6881623074182  0.3298694852881 1.0
C      1  0.4772977929714  0.2695926259982  0.7122417208990 1.0
C      1  0.4747197543178  0.5521762083752  0.7909321570890 1.0
C      1  0.6285940539963  0.7760159200621  0.8609561296799 1.0
C      1  0.7170860454288  0.4254678280293  0.1572457682361 1.0
C      1  0.3254523570372  0.8176798372702  0.4505852153034 1.0
C      1  0.3649713678887  0.1839413593056  0.5667937439330 1.0
C      1  0.1280699819583  0.3981149405459  0.5935098730013 1.0
C      1  0.5283070399758  0.4715994664608  0.3756798031477 1.0
C      1  0.8693697708027  0.4681599013971  0.5790656793182 1.0
C      1  0.3501502029277  0.3676268945630  0.7469390752581 1.0
C      1  0.3778072744410  0.7645445384144  0.3009075628404 1.0
C      1  0.3903472079965  0.5575133411044  0.4689249341607 1.0
C      1  0.3433404726824  0.8204900265735  0.3703011846943 1.0
C      1  0.3736207351459  0.2645923074342  0.1701469681139 1.0
C      1  0.5434422389989  0.7705612153456  0.3398308488514 1.0
C      1  0.4704074246251  0.7798734637642  0.2685023542471 1.0
C      1  0.7587242552094  0.7450515092012  0.3837949491902 1.0
C      1  0.5614346615947  0.6822024407050  0.5205052632964 1.0
C      1  0.6171043485012  0.4765389530876  0.3979510985535 1.0
C      1  0.6475428649111  0.6983627323970  0.8016971867102 1.0
C      1  0.3302664292319  0.1742924284337  0.4784573365788 1.0
C      1  0.6992847362648  0.5424173365505  0.5304258822295 1.0
C      1  0.2025543410848  0.6371451671282  0.6835417324183 1.0
C      1  0.1727961974715  0.5153614187616  0.2383385490452 1.0
C      1  0.5534960202743  0.8101743994629  0.8468984298736 1.0
C      1  0.4633034938183  0.5746450176728  0.6954086961050 1.0
C      1  0.6041011964701  0.3898507830616  0.6697509978149 1.0
C      1  0.5457551436870  0.6690706567158  0.3537876693326 1.0
C      1  0.8443941173690  0.4517841785391  0.4882405240568 1.0
C      1  0.6255376261033  0.2933399468484  0.1191820377867 1.0
C      1  0.5157812060928  0.2177699121094  0.6467655285836 1.0
C      1  0.6029503764816  0.6780184596740  0.6122419502287 1.0
C      1  0.3435097210242  0.4657378650479  0.7205307561967 1.0
C      1  0.5237222627063  0.2453019756938  0.2586118561500 1.0
C      1  0.6407605047983  0.1725610256516  0.4385144423042 1.0
C      1  0.2886900417182  0.4097974308859  0.1637446903176 1.0
C      1  0.7076401168821  0.5827735968261  0.2160065690523 1.0
C      1  0.9261642206556  0.3683953630808  0.7083525232915 1.0
C      1  0.8560730710336  0.5514807958914  0.7294418150890 1.0
C      1  0.4181601680178  0.3694360839057  0.8284727274620 1.0
C      1  0.2368602059908  0.5549815579047  0.4111740548626 1.0
C      1  0.5895711431324  0.7108558858504  0.1969549285999 1.0
C      1  0.6756359273919  0.4731560909577  0.8972627018270 1.0
C      1  0.5657180780226  0.8236187434169  0.4203287866619 1.0
C      1  0.5107083492106  0.4578281844855  0.0408366846885 1.0
C      1  0.3276254463590  0.4087148960640  0.4459020115836 1.0
C      1  0.4010029515331  0.5222004855578  0.6528033012985 1.0
C      1  0.6991673143089  0.4647243224521  0.5822376364646 1.0
C      1  0.2481683535067  0.3444769119835  0.7269721284168 1.0
C      1  0.3126458770674  0.5003200673551  0.4221818344471 1.0
C      1  0.3682292823668  0.4132356399470  0.5345589830311 1.0
C      1  0.2570379610978  0.5682812128170  0.8197162312978 1.0
C      1  0.5535191496010  0.6844530424114  0.7690008554804 1.0
C      1  0.7349560067743  0.5317942126525  0.8491398693792 1.0
C      1  0.3936382382372  0.3084580195097  0.6804905516099 1.0
C      1  0.7465715845171  0.7422479768420  0.5819752018004 1.0
C      1  0.8821199448774  0.3862754096204  0.6316977800780 1.0
C      1  0.1082076767981  0.4265992443040  0.5044334893318 1.0
C      1  0.7966811321359  0.2693735205424  0.7161061395071 1.0
C      1  0.2331082428058  0.6885735322336  0.6081287371348 1.0
END
