TITL C-140509-8425-27 -4.014 3375.00 -666.28271905 0 0 83 (C1) n - 1
REM
REM Run started: at 2020.12.04 23:14:01 in /rds/project/t2_vol4/rds-t2-cs072/BORA/CARBON/AIRSS/Generating-Clusters/Str-Search/Only-C1/C10-100
REM VASP from code version vasp.5.4.4.18Apr17-6-g9f103f2a35 (build Oct 11 2019 16:45:47) gamma-only
REM
REM
REM
REM
REM ./C.cell (67c5d0192afd7a3ce4a0888e5fe73b87)
REM AIRSS Version 0.9.1 bugfix July 2018 build 013d7b7c2542+ Fri, 06 Jul 2018 19:26:36 +0100
REM compiler GCC version 4.8.5 20150623 (Red Hat 4.8.5-39)
REM options -cpp -mtune=generic -march=x86-64 -g -O0
REM seed -810588486 -1129945984 -838843612 694613450 1025975283 1421599683 786289390 -869190775 1019738917 1223457053 -707856817 1155864380
REM
REM C.POTCAR (d86ddea03c3ceb6dc662c8ad6801f873)
REM 
CELL 1.54180   15.00000   15.00000   15.00000   90.00000   90.00000   90.00000
LATT -1
SFAC C  
C      1  0.5526236009142  0.7085651230313  0.3241603351390 1.0
C      1  0.3078246993922  0.6393274514910  0.6096593166228 1.0
C      1  0.3650745498784  0.6391941481479  0.3603798048599 1.0
C      1  0.6247054997756  0.4618908427066  0.5410430681242 1.0
C      1  0.3304602675128  0.3935226048578  0.6424093453453 1.0
C      1  0.4124129625035  0.4899593526358  0.1766103104875 1.0
C      1  0.4512019806419  0.3997721293055  0.5076445865281 1.0
C      1  0.3076358062596  0.5674893629935  0.3807177633052 1.0
C      1  0.8012623993806  0.4956927212535  0.5752654425526 1.0
C      1  0.7168687937112  0.3479595014341  0.3739961920317 1.0
C      1  0.6039006470351  0.6686569940579  0.5934962224159 1.0
C      1  0.4935003298159  0.5359233903324  0.5835141927911 1.0
C      1  0.6606247246121  0.3800859462634  0.5979959933861 1.0
C      1  0.1866589438557  0.4724109061046  0.6426031858364 1.0
C      1  0.5550233929519  0.2621204328509  0.3769559530488 1.0
C      1  0.4270272297385  0.2029259825179  0.4510163466656 1.0
C      1  0.2787430782813  0.4763925024276  0.6688797360180 1.0
C      1  0.5902824567921  0.3076048227458  0.6129131863875 1.0
C      1  0.6075651659905  0.6244739392539  0.8130737987375 1.0
C      1  0.5479964057679  0.4296038537801  0.3599460453820 1.0
C      1  0.6925115719138  0.3117304280417  0.4585879928664 1.0
C      1  0.3586666255381  0.3047713424809  0.6695997987141 1.0
C      1  0.5449007635625  0.6229588022415  0.2873093650855 1.0
C      1  0.4125734307784  0.5139110075800  0.6150561495983 1.0
C      1  0.2463152070232  0.3139896612621  0.4819741443785 1.0
C      1  0.5794942353467  0.3343285965066  0.7047425971712 1.0
C      1  0.2079488041730  0.4721191760179  0.4743687353970 1.0
C      1  0.5466942259188  0.6890215449628  0.4227667285122 1.0
C      1  0.5852196349073  0.7844558274631  0.4471075910565 1.0
C      1  0.5278712378937  0.4591207814267  0.5290557869936 1.0
C      1  0.3692525898521  0.2523909567256  0.5882310888026 1.0
C      1  0.2948356265816  0.2686924377424  0.5314702901832 1.0
C      1  0.3295329068149  0.4871985447230  0.3309365149172 1.0
C      1  0.6982008505418  0.6218561745676  0.5525901626274 1.0
C      1  0.4257188379114  0.7645606785746  0.6239151285599 1.0
C      1  0.7037563872622  0.6919798336752  0.3888322313029 1.0
C      1  0.4037372791405  0.5120043075408  0.2731095544570 1.0
C      1  0.3896666893074  0.7070832928195  0.4303805333222 1.0
C      1  0.5030561733544  0.7967834246981  0.5810027321994 1.0
C      1  0.3054556088124  0.3987284459324  0.3560606709428 1.0
C      1  0.5502272507948  0.2590323820575  0.5447626727522 1.0
C      1  0.6293210074747  0.7518469013134  0.3603478853166 1.0
C      1  0.4239424343768  0.3009460362363  0.7356605677382 1.0
C      1  0.6212729935204  0.4745073464439  0.3174346652580 1.0
C      1  0.7611338082882  0.5692086492659  0.6145405952146 1.0
C      1  0.1735610992408  0.4622441766337  0.5607076264259 1.0
C      1  0.6056237185632  0.2688467240253  0.4616172113041 1.0
C      1  0.5936279604641  0.7621098869070  0.5986226626847 1.0
C      1  0.7133409036082  0.7018851072526  0.4869204863479 1.0
C      1  0.5764230051624  0.5950460057124  0.4595772069325 1.0
C      1  0.3573687741863  0.7178232687601  0.6301310327926 1.0
C      1  0.6523221657834  0.5449145929820  0.5021832991304 1.0
C      1  0.4413016575448  0.4215973027121  0.2215757680717 1.0
C      1  0.7239362622265  0.5500470633294  0.7003002849521 1.0
C      1  0.4640903101653  0.6513566598213  0.4714122284164 1.0
C      1  0.3324587544010  0.5518830033548  0.6533341384727 1.0
C      1  0.7033625457010  0.6094376935918  0.3437014089824 1.0
C      1  0.4837701146223  0.5636463648980  0.4188242413104 1.0
C      1  0.5269009388499  0.6203863633592  0.5509371352883 1.0
C      1  0.4468587413400  0.3490714704692  0.2799410845437 1.0
C      1  0.4511219168386  0.2338838016661  0.5386633191561 1.0
C      1  0.6784851604681  0.4775960173613  0.7381850227655 1.0
C      1  0.6606650373865  0.5660511665046  0.7693149404369 1.0
C      1  0.6274098527053  0.5706819276370  0.3016450699583 1.0
C      1  0.2692698000333  0.6210019981832  0.5286864328295 1.0
C      1  0.4780583667313  0.2059923224639  0.3750362302334 1.0
C      1  0.3667350821739  0.3245526008575  0.3316929151280 1.0
C      1  0.5040271665259  0.3106265628384  0.7552977097618 1.0
C      1  0.6493033319524  0.7659675554923  0.5173233271854 1.0
C      1  0.5477856140069  0.6804763233742  0.8362280351278 1.0
C      1  0.6930450724421  0.4137075949888  0.3289046799017 1.0
C      1  0.5298440428739  0.3378710835892  0.3316536160714 1.0
C      1  0.7347069496335  0.3553484141862  0.5355473730762 1.0
C      1  0.4953808682441  0.8181416531977  0.4848712354583 1.0
C      1  0.3882610796043  0.2417255469644  0.3726303579164 1.0
C      1  0.6500640232074  0.3979214435581  0.6989135186248 1.0
C      1  0.8037879858175  0.4177914087932  0.5423929569674 1.0
C      1  0.2420355333567  0.3926329956660  0.4298527577679 1.0
C      1  0.4884819170591  0.4649270403616  0.4339752535354 1.0
C      1  0.4534187969151  0.5864408438177  0.3203318235063 1.0
C      1  0.4183390352551  0.7928928840361  0.4393001716169 1.0
C      1  0.3892504563531  0.4265827358885  0.5763099194843 1.0
C      1  0.2528767426564  0.5600917062742  0.4613326088015 1.0
END
