TITL C-141674-2200-34 -6.979 3375.00 0 0 0 148 (C1) n - 1
REM
REM Run started: at 2020.03.16 19:09:36 in /rds/user/bk393/hpc-work/AIRSS.pl-DENE/CARBON/New-Try
REM VASP from code version vasp.5.4.4.18Apr17-6-g9f103f2a35 (build Oct 11 2019 16:45:47) gamma-only
REM
REM
REM
REM
REM ./C.cell (9f5935e56d41cf50cb14479ce98dda23)
REM AIRSS Version 0.9.1 bugfix July 2018 build 013d7b7c2542+ Fri, 06 Jul 2018 19:26:36 +0100
REM compiler GCC version 4.8.5 20150623 (Red Hat 4.8.5-39)
REM options -cpp -mtune=generic -march=x86-64 -g -O0
REM seed 1800437538 -1269604249 1837410115 923985672 -1375948991 -258557673 -1053665030 -1928247532 130085874 1385326418 -2058314606 -962180278
REM
REM C.POTCAR (d86ddea03c3ceb6dc662c8ad6801f873)
REM 
CELL 1.54180   15.00000   15.00000   15.00000   90.00000   90.00000   90.00000
LATT -1
SFAC C  
C      1  0.4401137718768  0.4393547462092  0.1552306239900 1.0
C      1  0.5019459962854  0.4384797967979  0.8357988390737 1.0
C      1  0.5494347445332  0.5006069170899  0.3739158468208 1.0
C      1  0.1440869440374  0.5720695038464  0.5063999832702 1.0
C      1  0.4924714905986  0.5556372336942  0.3157891099744 1.0
C      1  0.7177925309909  0.6967394855769  0.5528320936552 1.0
C      1  0.5750351033467  0.4933561534205  0.5492726670116 1.0
C      1  0.3770581906516  0.5121531554412  0.7846234919858 1.0
C      1  0.6777436593690  0.7290004480355  0.3101765762818 1.0
C      1  0.8131632248702  0.6625842202320  0.5723774631241 1.0
C      1  0.3912060576130  0.5198251313240  0.1538935131856 1.0
C      1  0.5129657688093  0.8119773021415  0.3462055038672 1.0
C      1  0.6557968427263  0.5465707353865  0.5923205584434 1.0
C      1  0.4076616953884  0.0340220561666  0.5719881733555 1.0
C      1  0.1947386236892  0.5300231913255  0.5916811875494 1.0
C      1  0.2084417710295  0.3749379894368  0.3608527742195 1.0
C      1  0.2574298149351  0.7298206030662  0.6949680645515 1.0
C      1  0.1705102712063  0.7366684505505  0.5056181196395 1.0
C      1  0.3735755663469  0.3405263874852  0.5916331975768 1.0
C      1  0.7126949655749  0.5943823648579  0.2154130555327 1.0
C      1  0.8121164608872  0.3546621312892  0.5330464260766 1.0
C      1  0.8116753507141  0.4620041666372  0.2843890835141 1.0
C      1  0.5153129654954  0.3318171939057  0.2003687605158 1.0
C      1  0.5225079920286  0.3912318133396  0.6734519663268 1.0
C      1  0.7831304437998  0.5582418614758  0.2668090231705 1.0
C      1  0.2217136701999  0.3886689618767  0.6920269194198 1.0
C      1  0.5828666271946  0.6383595336753  0.1841912331937 1.0
C      1  0.7647792962514  0.7052390173065  0.3460607533661 1.0
C      1  0.6427686630381  0.6543819308824  0.7298558012490 1.0
C      1  0.1829707514706  0.5075270674152  0.2836799735866 1.0
C      1  0.3772933515003  0.3874925915253  0.5116544754013 1.0
C      1  0.3186516018383  0.7265294548213  0.7586588030477 1.0
C      1  0.6068174544833  0.3429122162974  0.4664097034164 1.0
C      1  0.4190240734662  0.5054617958613  0.3452360544501 1.0
C      1  0.5145492606876  0.2970890020990  0.6414009947989 1.0
C      1  0.1902877366024  0.5960310627525  0.3253986276296 1.0
C      1  0.6531334950376  0.4034980197620  0.4211630770954 1.0
C      1  0.6297108265305  0.4533204015597  0.3438870865572 1.0
C      1  0.7376849811365  0.2194804648016  0.4775186832395 1.0
C      1  0.2007805122476  0.3465980135277  0.4477662860012 1.0
C      1  0.6385013575524  0.8014936989280  0.4648558979951 1.0
C      1  0.1836562247599  0.5430593548644  0.4171411318767 1.0
C      1  0.3611076212449  0.0967709714601  0.6265011461554 1.0
C      1  0.4738698124545  0.7866153045244  0.6686228237489 1.0
C      1  0.3263664742654  0.7703371449103  0.4465032378255 1.0
C      1  0.3680629935307  0.6821105117764  0.5780412335742 1.0
C      1  0.5811676432448  0.2769425095458  0.2330530043723 1.0
C      1  0.2465485239989  0.6632007969635  0.2949217185386 1.0
C      1  0.6029834403149  0.7750048628413  0.3701091822032 1.0
C      1  0.4635794879290  0.2565634850708  0.3877841648347 1.0
C      1  0.6414976996651  0.7981652025451  0.6412466352319 1.0
C      1  0.5677975706572  0.6386775958154  0.4997554601262 1.0
C      1  0.8042735960769  0.2852804654063  0.4708773907406 1.0
C      1  0.6924008508789  0.7252062280924  0.6841866406786 1.0
C      1  0.5344715963401  0.4198709406448  0.1627219445018 1.0
C      1  0.2992326144276  0.7502076674404  0.6048180425481 1.0
C      1  0.2698452207301  0.3725841641576  0.2826632486109 1.0
C      1  0.6530134711882  0.2557755147481  0.7132541093117 1.0
C      1  0.3551521425729  0.3254555410425  0.2691368486709 1.0
C      1  0.4698002396731  0.4379494965172  0.3859228839087 1.0
C      1  0.8074258904478  0.4503626957353  0.5113687666559 1.0
C      1  0.4051849492135  0.4304885101958  0.8331460957600 1.0
C      1  0.3457406560815  0.8155807971545  0.3593954089307 1.0
C      1  0.2901398474853  0.3584815526528  0.7418480883615 1.0
C      1  0.1598483378014  0.4607551334005  0.3592086822220 1.0
C      1  0.4744484671068  0.6530328217851  0.3070203576725 1.0
C      1  0.7238291229628  0.7648813404878  0.4846612584198 1.0
C      1  0.1853301741633  0.6674570214890  0.6948690623639 1.0
C      1  0.3234024701336  0.0130511428191  0.6124302077859 1.0
C      1  0.7421274740904  0.4862178093705  0.7232352825896 1.0
C      1  0.4860841659490  0.0490471188283  0.5327108043571 1.0
C      1  0.5128415714878  0.6016213714744  0.8192861215917 1.0
C      1  0.6400106318560  0.4230218178396  0.5174732363790 1.0
C      1  0.8450475838884  0.5918644326373  0.4206416888100 1.0
C      1  0.6005175906464  0.3053624773994  0.7821947099643 1.0
C      1  0.2526461245777  0.4589169182171  0.2388294408086 1.0
C      1  0.7925872057587  0.7336976193842  0.4330147248006 1.0
C      1  0.8087228844839  0.6202446063826  0.3336642578146 1.0
C      1  0.7636963828148  0.2596145339888  0.3910653833357 1.0
C      1  0.1905308213355  0.4249553536917  0.6125527517193 1.0
C      1  0.3864526767926  0.5847693371132  0.5641453553639 1.0
C      1  0.6612300696105  0.4334294507844  0.2607576796100 1.0
C      1  0.3641656160258  0.3477454759733  0.8139654792373 1.0
C      1  0.8456592673422  0.6635804900137  0.4805938194524 1.0
C      1  0.3784576775979  0.2017670114132  0.7496836429734 1.0
C      1  0.2528003518733  0.7704632576227  0.5163817958101 1.0
C      1  0.5075562381589  0.4718400532689  0.6171625944443 1.0
C      1  0.7223896793058  0.4698895960581  0.5667401645972 1.0
C      1  0.5591162505623  0.2376867336471  0.7086854894155 1.0
C      1  0.6596530742111  0.6733885186261  0.2368608411572 1.0
C      1  0.6348634212495  0.5576476405874  0.1674406851000 1.0
C      1  0.4002371248639  0.6904913585601  0.7735740531900 1.0
C      1  0.3723135265541  0.6450889645307  0.3279105151531 1.0
C      1  0.3744480611208  0.4824386689487  0.6933812224548 1.0
C      1  0.3116900113641  0.7218023863363  0.3504548936813 1.0
C      1  0.8455241082403  0.4962964621340  0.4372875139137 1.0
C      1  0.2173626776794  0.3904446099259  0.5227147801744 1.0
C      1  0.5343657482455  0.5484602695468  0.4739228743689 1.0
C      1  0.5194070536904  0.2507448808016  0.7961819990482 1.0
C      1  0.7353091785610  0.2952286390428  0.3069472136253 1.0
C      1  0.7504196294585  0.3895018643477  0.2720268855626 1.0
C      1  0.4010467008785  0.2708982055506  0.3341348518748 1.0
C      1  0.3827593447425  0.1830419799376  0.6616504335614 1.0
C      1  0.4000570221760  0.7713610015576  0.6043782470391 1.0
C      1  0.7153824800028  0.4563272286264  0.8101566600635 1.0
C      1  0.3125466398598  0.5220024780393  0.2046625068329 1.0
C      1  0.4904563828199  0.6468901096645  0.2068693866470 1.0
C      1  0.5153615214671  0.7149405025758  0.3744986928775 1.0
C      1  0.5570339175648  0.0949924308011  0.5265073410048 1.0
C      1  0.4503302642090  0.3791587108225  0.4536498933010 1.0
C      1  0.5656452853014  0.3986087442016  0.7645688058382 1.0
C      1  0.4379772748720  0.5894369894099  0.4731734387167 1.0
C      1  0.4336255611383  0.5239006864305  0.6287094041016 1.0
C      1  0.5116528532524  0.2505763122900  0.5510388943935 1.0
C      1  0.5529288297714  0.8176913440589  0.6299858482837 1.0
C      1  0.6635153772509  0.5546417721600  0.7026716177199 1.0
C      1  0.4261775861244  0.2563656484448  0.6063110235496 1.0
C      1  0.3484461846674  0.3939571990943  0.6695863303648 1.0
C      1  0.6248274607176  0.4877605690906  0.7789218922149 1.0
C      1  0.6472967015300  0.6335943048174  0.5458646239859 1.0
C      1  0.6777597183934  0.2145726198609  0.5515795399377 1.0
C      1  0.4197578179025  0.5993693263080  0.7998976907720 1.0
C      1  0.3012478789437  0.4489153523209  0.5012889032544 1.0
C      1  0.5853681512453  0.1794516067962  0.5462479809087 1.0
C      1  0.4837230867758  0.7344363587517  0.7475801835620 1.0
C      1  0.4089957503127  0.6144796380117  0.1694529852687 1.0
C      1  0.5495285728984  0.5179947196185  0.8341832831257 1.0
C      1  0.5578730451649  0.6726162063491  0.7716453914827 1.0
C      1  0.4199282800127  0.3547486097606  0.2041137557852 1.0
C      1  0.6563714606246  0.2635490460839  0.2665324502163 1.0
C      1  0.4303293321753  0.8398146111555  0.3417817183501 1.0
C      1  0.3241840630299  0.6174101732642  0.2360944581094 1.0
C      1  0.4067664430175  0.7423031879067  0.5068514577264 1.0
C      1  0.6070087865038  0.8216209779236  0.5512993188616 1.0
C      1  0.4827391513341  0.6860744754568  0.4666375066382 1.0
C      1  0.6134524129514  0.4673845229126  0.1796907180126 1.0
C      1  0.7068365176606  0.2665283098866  0.6340069178840 1.0
C      1  0.1321865238014  0.6606660410598  0.5090963606206 1.0
C      1  0.7705333148208  0.3376852986325  0.6193958059960 1.0
C      1  0.5141310895283  0.3018391804334  0.4649829717287 1.0
C      1  0.2943109647826  0.5380206404407  0.5456197289686 1.0
C      1  0.7766573564417  0.7040304892007  0.6413779848944 1.0
C      1  0.3663161139916  0.5683312846481  0.3976141248860 1.0
C      1  0.7540855843805  0.4295758518967  0.6524521799947 1.0
C      1  0.8570321535665  0.4402152571026  0.3626096956762 1.0
C      1  0.4208449277153  0.2675966974309  0.7979779660039 1.0
C      1  0.1828997770248  0.5906536717959  0.6654251587653 1.0
C      1  0.2835090118677  0.5320550530108  0.4457069209043 1.0
END
