TITL C-140258-4336-6 -6.669 3375.00 -1140.03169971 0 0 139 (C1) n - 1
REM
REM Run started: at 2021.01.08 18:38:55 in /rds/project/t2_vol4/rds-t2-cs072/BORA/CARBON/AIRSS/Generating-Clusters/Str-Search/Only-C1/C100-200
REM VASP from code version vasp.5.4.4.18Apr17-6-g9f103f2a35 (build Oct 11 2019 16:45:47) gamma-only
REM
REM
REM
REM
REM ./C.cell (efaf0b2bf1589a83377268d7ebe2c73f)
REM AIRSS Version 0.9.1 bugfix July 2018 build 013d7b7c2542+ Fri, 06 Jul 2018 19:26:36 +0100
REM compiler GCC version 4.8.5 20150623 (Red Hat 4.8.5-39)
REM options -cpp -mtune=generic -march=x86-64 -g -O0
REM seed -358425507 152496028 192513948 -26974113 -960381442 279840023 -1373053646 1233015871 1585092336 654519321 -872140749 -272208568
REM
REM C.POTCAR (d86ddea03c3ceb6dc662c8ad6801f873)
REM 
CELL 1.54180   15.00000   15.00000   15.00000   90.00000   90.00000   90.00000
LATT -1
SFAC C  
C      1  0.4257941916042  0.2946131123248  0.1844751873615 1.0
C      1  0.3183526315331  0.2219944855798  0.6725699497355 1.0
C      1  0.7197057709865  0.2633686349947  0.4104489915499 1.0
C      1  0.2812584115403  0.2230533587026  0.4391525095079 1.0
C      1  0.1799581679881  0.5945978506687  0.7064075429952 1.0
C      1  0.1776637865886  0.4242166790429  0.5818248453279 1.0
C      1  0.4475677361480  0.8288626038515  0.4397838992785 1.0
C      1  0.8446119002040  0.6117493488713  0.6103376456592 1.0
C      1  0.2356637802238  0.3147920319313  0.3112056657958 1.0
C      1  0.6107113180264  0.3978744214414  0.8076655818790 1.0
C      1  0.7541059835712  0.6514915831619  0.4174957819010 1.0
C      1  0.5087563011262  0.4387843698965  0.1650766375640 1.0
C      1  0.4207374111606  0.4693590035451  0.4180526216191 1.0
C      1  0.7237160027289  0.3901527723591  0.2937852055596 1.0
C      1  0.7421081591982  0.4993548864619  0.5129308181791 1.0
C      1  0.7135503453883  0.2646272633446  0.6230860766646 1.0
C      1  0.1559459887102  0.4502758128982  0.4156998482989 1.0
C      1  0.6072567665190  0.6759274292124  0.6848144451524 1.0
C      1  0.7879650044013  0.2655658482098  0.4683857077076 1.0
C      1  0.3119950174401  0.6792535227479  0.7815742042775 1.0
C      1  0.3006462995142  0.2973605437848  0.7033397025324 1.0
C      1  0.5124526419520  0.5244084423098  0.8399634863517 1.0
C      1  0.5293863244833  0.8177483552826  0.4917149172661 1.0
C      1  0.1928370373903  0.3698711225809  0.3752474340278 1.0
C      1  0.6350550368617  0.6277640551556  0.2598967447800 1.0
C      1  0.7194361704318  0.6852416410262  0.2693079874391 1.0
C      1  0.7398602447141  0.5987354959617  0.7350225531214 1.0
C      1  0.2458497116631  0.6663796167248  0.3781913338178 1.0
C      1  0.4143989107931  0.3851409990964  0.6598693298345 1.0
C      1  0.5786680708331  0.5779590325292  0.7899212561546 1.0
C      1  0.8141859097742  0.6581283921040  0.4861987447430 1.0
C      1  0.4616332389805  0.4340427458697  0.3372432090226 1.0
C      1  0.3568123083711  0.4988636513050  0.8080263225407 1.0
C      1  0.4389032344908  0.3596032784683  0.5768205594305 1.0
C      1  0.6235600848459  0.3148477751729  0.7603026274461 1.0
C      1  0.4068827480222  0.6486158835284  0.2802569149280 1.0
C      1  0.2354218493464  0.5957230835929  0.1823953034420 1.0
C      1  0.1678435270328  0.6415786827278  0.6257541200877 1.0
C      1  0.4850891525698  0.5690349366992  0.6220992341747 1.0
C      1  0.1743854029717  0.6528208815051  0.5304711820389 1.0
C      1  0.2818631540421  0.5325913382145  0.2444704628078 1.0
C      1  0.5130574715851  0.5076084508361  0.4628716909253 1.0
C      1  0.5514220978596  0.5942780939414  0.6891726460285 1.0
C      1  0.8101503577562  0.5579819380692  0.6831159514461 1.0
C      1  0.8439021936298  0.4248794185414  0.4197184566062 1.0
C      1  0.5503766426276  0.5472017086928  0.3754542616339 1.0
C      1  0.3991137359354  0.6523909604817  0.8207496251152 1.0
C      1  0.5183255253738  0.5811382270327  0.5325563160421 1.0
C      1  0.3174295249263  0.1889346375563  0.3574745042678 1.0
C      1  0.3730189614468  0.7792678208968  0.4698984682164 1.0
C      1  0.5399028089814  0.7835553019813  0.5753548841842 1.0
C      1  0.6428302448843  0.4047893336145  0.2428152327485 1.0
C      1  0.5717551272027  0.3329632403341  0.2643210142825 1.0
C      1  0.5734082392443  0.8244961183446  0.4084316312240 1.0
C      1  0.8421665186911  0.4909813649024  0.5031605800839 1.0
C      1  0.5005498798561  0.2049636111059  0.7097096019924 1.0
C      1  0.2673907174380  0.5254393906182  0.7954882104073 1.0
C      1  0.7878879165104  0.2724986060745  0.5665915729301 1.0
C      1  0.6030692299476  0.1971809917156  0.4987331814379 1.0
C      1  0.3342348654905  0.7148343668434  0.4032113730105 1.0
C      1  0.3257870520289  0.5075770599904  0.4987697091551 1.0
C      1  0.7960276195006  0.6896035227178  0.5757123479635 1.0
C      1  0.8507233505155  0.3460959873429  0.5581529128489 1.0
C      1  0.2131045157895  0.5069192253694  0.7159887441939 1.0
C      1  0.7453313289534  0.4085694414904  0.7209058092685 1.0
C      1  0.1840110547656  0.5371035384311  0.3959949800027 1.0
C      1  0.3713851196149  0.7774338528760  0.5645941393259 1.0
C      1  0.3647910432480  0.3353158252591  0.5181122342744 1.0
C      1  0.6163571740434  0.7182116779251  0.5937084929414 1.0
C      1  0.2421898194114  0.6190948233714  0.7822437837809 1.0
C      1  0.3488202890869  0.4855641506358  0.2063370305399 1.0
C      1  0.7013931817854  0.3211037781127  0.7026392271889 1.0
C      1  0.7938439219956  0.4494993498093  0.3355148346649 1.0
C      1  0.4254792051013  0.7585165750210  0.7080981351685 1.0
C      1  0.8501219472588  0.3420291103982  0.4609116120492 1.0
C      1  0.6416874717219  0.7670457694357  0.3801351685522 1.0
C      1  0.3332961793885  0.7062312623134  0.2486077088733 1.0
C      1  0.4224413648133  0.5614712750349  0.8424892018192 1.0
C      1  0.5322833720984  0.4332666837979  0.8448691989023 1.0
C      1  0.6220506114680  0.5608995403723  0.1849236005911 1.0
C      1  0.4538162879977  0.7805855778265  0.6200550628365 1.0
C      1  0.4322868608220  0.5020685650463  0.1748888459125 1.0
C      1  0.8481356077401  0.4323198094218  0.5887696680703 1.0
C      1  0.5437164389362  0.2386654493860  0.5650513708164 1.0
C      1  0.3769025276729  0.2015776580994  0.5986539758489 1.0
C      1  0.7944979817001  0.5377130461725  0.3128647524521 1.0
C      1  0.5502125625662  0.6708609238335  0.7655145049311 1.0
C      1  0.6208457473610  0.2498395207572  0.4157128751740 1.0
C      1  0.7776280238283  0.6239473436201  0.3249246451335 1.0
C      1  0.3960097703952  0.5282659985785  0.6461430361973 1.0
C      1  0.6106319012411  0.6367655783579  0.5230015834718 1.0
C      1  0.2840140314907  0.7429365001593  0.3225137805992 1.0
C      1  0.3859024163605  0.4558244762668  0.7215862707109 1.0
C      1  0.6390593132197  0.2198716007049  0.5799950776782 1.0
C      1  0.5557524557177  0.6227840180977  0.1984086983723 1.0
C      1  0.3311886927659  0.7409964885753  0.7090272345418 1.0
C      1  0.2966143038777  0.2508783891156  0.2825551353680 1.0
C      1  0.4969420858904  0.8696542864388  0.3647076826276 1.0
C      1  0.2677916468216  0.5579626755392  0.3436279762887 1.0
C      1  0.6252944127696  0.2604666022084  0.3079088966144 1.0
C      1  0.6875554120258  0.7620709213711  0.3020352231539 1.0
C      1  0.3567981074763  0.5496395130144  0.4088850531313 1.0
C      1  0.2808610724073  0.6664275898877  0.1816888881560 1.0
C      1  0.8734589852562  0.5849145017050  0.5212730521708 1.0
C      1  0.3529739833411  0.4211307379149  0.4726332763999 1.0
C      1  0.6861316314142  0.4539032030952  0.7826347809714 1.0
C      1  0.5546669329631  0.3360278280401  0.4333266098066 1.0
C      1  0.3393527840513  0.2477523704636  0.5158275052824 1.0
C      1  0.3833615371208  0.1297979369869  0.3212111279967 1.0
C      1  0.5240331357999  0.3386822737071  0.5318676748658 1.0
C      1  0.8085564184651  0.4623431318173  0.6719085685570 1.0
C      1  0.6754078465881  0.5463619920843  0.7822571393317 1.0
C      1  0.2178810684986  0.7117419534483  0.5906207155409 1.0
C      1  0.3940465332412  0.6400413670070  0.3746015763247 1.0
C      1  0.5745644503964  0.4203235622518  0.4923586278984 1.0
C      1  0.4650615141802  0.7070038242597  0.7783498327476 1.0
C      1  0.4682681421590  0.5824372732884  0.2314764578365 1.0
C      1  0.6707240079634  0.5548363232308  0.5362246711866 1.0
C      1  0.2497117932624  0.4530902129611  0.6403865431462 1.0
C      1  0.3994335980583  0.1405251676668  0.2383450627544 1.0
C      1  0.4989057413033  0.5175498882551  0.3030047650849 1.0
C      1  0.1817047271502  0.6237471589065  0.4406863844113 1.0
C      1  0.5170618280553  0.3629412638134  0.3457649296249 1.0
C      1  0.4994933641878  0.3445006165822  0.1876998433695 1.0
C      1  0.7032509789168  0.6775224825913  0.7001349387475 1.0
C      1  0.6556124448783  0.4648185182953  0.5175271883010 1.0
C      1  0.3151260794977  0.3893689846302  0.6829406781712 1.0
C      1  0.7100610972303  0.2999163120417  0.3230769898840 1.0
C      1  0.7200711600627  0.7211800252855  0.6185406983341 1.0
C      1  0.6124503614890  0.6104948793486  0.3566027962600 1.0
C      1  0.1433267960028  0.4363569777889  0.5085244516758 1.0
C      1  0.3200727158690  0.5187965478364  0.5935149104120 1.0
C      1  0.5989867105415  0.4687654919472  0.1889765137878 1.0
C      1  0.3702219095419  0.2331850231293  0.2160091090453 1.0
C      1  0.6523941560982  0.6705839312724  0.4258333835999 1.0
C      1  0.2970155113269  0.7526428411428  0.6205267201008 1.0
C      1  0.5573509536360  0.2497682261183  0.7495153757273 1.0
C      1  0.2253659254074  0.2916735184467  0.4078444506672 1.0
C      1  0.4677213988139  0.1998402159874  0.6206277452024 1.0
END
