TITL C-141674-2200-39 -3.482 3375.00 0 0 0 73 (C1) n - 1
REM
REM Run started: at 2020.03.16 22:06:29 in /rds/user/bk393/hpc-work/AIRSS.pl-DENE/CARBON/New-Try
REM VASP from code version vasp.5.4.4.18Apr17-6-g9f103f2a35 (build Oct 11 2019 16:45:47) gamma-only
REM
REM
REM
REM
REM ./C.cell (9f5935e56d41cf50cb14479ce98dda23)
REM AIRSS Version 0.9.1 bugfix July 2018 build 013d7b7c2542+ Fri, 06 Jul 2018 19:26:36 +0100
REM compiler GCC version 4.8.5 20150623 (Red Hat 4.8.5-39)
REM options -cpp -mtune=generic -march=x86-64 -g -O0
REM seed -299867835 831028025 147100823 -1666648626 845221364 1999553895 256014711 -2012729848 2138112867 -360670416 -683866477 -534172160
REM
REM C.POTCAR (d86ddea03c3ceb6dc662c8ad6801f873)
REM 
CELL 1.54180   15.00000   15.00000   15.00000   90.00000   90.00000   90.00000
LATT -1
SFAC C  
C      1  0.5577052207854  0.2959009764520  0.4851078435603 1.0
C      1  0.4540917204647  0.3323278361178  0.3558125104104 1.0
C      1  0.6830361892436  0.3553405156921  0.3609722977082 1.0
C      1  0.5659795880798  0.3427070215954  0.6692684593538 1.0
C      1  0.2837717740279  0.4044154001570  0.6990512471200 1.0
C      1  0.4681465202271  0.8118012341405  0.4116630481008 1.0
C      1  0.3552896475609  0.6304853198090  0.5639077041874 1.0
C      1  0.5283014081859  0.6972855209207  0.3201226972127 1.0
C      1  0.1963365307257  0.5965414751729  0.6693080603287 1.0
C      1  0.6390306462167  0.4946812417414  0.3686168092873 1.0
C      1  0.3407696765795  0.2925959961356  0.4899302964698 1.0
C      1  0.4972262748324  0.7917439464587  0.3360963186564 1.0
C      1  0.6880276796051  0.6239429408721  0.5578090019405 1.0
C      1  0.6297533298065  0.5887363458338  0.2494793817410 1.0
C      1  0.3269880501625  0.5492313242855  0.5064954083186 1.0
C      1  0.4370584311412  0.6980556014347  0.5629151606658 1.0
C      1  0.5227007234866  0.5768377680669  0.4661277796550 1.0
C      1  0.3725768515219  0.3548618036567  0.4140409248594 1.0
C      1  0.2998492346495  0.3327694381430  0.6405395136866 1.0
C      1  0.6871753726696  0.5170454273092  0.2806121900555 1.0
C      1  0.5011319758975  0.3569376609841  0.7784813490293 1.0
C      1  0.7040885756041  0.3584093581259  0.4587521829555 1.0
C      1  0.1899281301068  0.5433028197944  0.5998881428278 1.0
C      1  0.2716651602046  0.3347562466306  0.5436557894112 1.0
C      1  0.4378280016792  0.4180988662264  0.4771930533115 1.0
C      1  0.5273242252556  0.5623348723865  0.5664016113819 1.0
C      1  0.2833278697829  0.5699594115534  0.7023045043209 1.0
C      1  0.7335640390307  0.4710955910018  0.5942202149761 1.0
C      1  0.3512880215661  0.6258079044629  0.6567543627314 1.0
C      1  0.4671800524724  0.7339826050782  0.4721276258943 1.0
C      1  0.3511902681639  0.5408294894236  0.3214443067090 1.0
C      1  0.6975059422461  0.4064286061727  0.6543275158233 1.0
C      1  0.5469477638795  0.4648802174262  0.3606928867661 1.0
C      1  0.4002027048064  0.5020138033674  0.2485052163704 1.0
C      1  0.4832649573277  0.3393332180939  0.5327530480635 1.0
C      1  0.7104959117508  0.5589173499832  0.6290428814835 1.0
C      1  0.5313321992457  0.6658249436625  0.6962178566783 1.0
C      1  0.5394304725356  0.5612186499410  0.2314557368919 1.0
C      1  0.7285706541299  0.4476174455248  0.4990447802839 1.0
C      1  0.3968462748170  0.4788877196338  0.5429266613943 1.0
C      1  0.7272919526400  0.6888869605992  0.5114425805854 1.0
C      1  0.6267629250217  0.6740197703248  0.2977131133574 1.0
C      1  0.2368783394183  0.5036287832738  0.5353598421675 1.0
C      1  0.5777700709247  0.4012749205343  0.7505457100791 1.0
C      1  0.4713363048425  0.4862612543492  0.5999793169807 1.0
C      1  0.6525015983142  0.4526384589577  0.7289612640910 1.0
C      1  0.4607247308679  0.3322895314376  0.6914378495067 1.0
C      1  0.5147631004013  0.6501894475876  0.6017513161457 1.0
C      1  0.5869830733572  0.6091809097469  0.7394396391928 1.0
C      1  0.4991117219962  0.3917972017593  0.6170998645453 1.0
C      1  0.2942046401446  0.4813844424637  0.7301848201959 1.0
C      1  0.3975002694206  0.5976808725175  0.2636424405338 1.0
C      1  0.5199614454229  0.3922188796423  0.2981790510646 1.0
C      1  0.4813670567055  0.6339065634237  0.2583700814592 1.0
C      1  0.7181669095138  0.7167957815233  0.4294937737393 1.0
C      1  0.5035596461449  0.6641624102782  0.4232137525162 1.0
C      1  0.4078620302703  0.2769658296045  0.5527684747497 1.0
C      1  0.5343635102791  0.2912134735356  0.3934819962581 1.0
C      1  0.6453052552797  0.3131779965467  0.5207804512876 1.0
C      1  0.6541776394450  0.5500883062710  0.7100844140921 1.0
C      1  0.4895685725889  0.4723219039680  0.2355337800461 1.0
C      1  0.6693284310162  0.5067510546781  0.4575954720995 1.0
C      1  0.7022813758836  0.4367771635543  0.3107576580956 1.0
C      1  0.6149640615908  0.5667885319932  0.5114776329841 1.0
C      1  0.3230411412512  0.5173052208808  0.4055042025470 1.0
C      1  0.4370987085365  0.6849413738724  0.6686093145862 1.0
C      1  0.5982030597362  0.3236705357399  0.3292481957526 1.0
C      1  0.2990332747094  0.4234127683961  0.4156957116202 1.0
C      1  0.4938446929168  0.4886726305889  0.4293706971607 1.0
C      1  0.6931659823889  0.7078619914173  0.3487965665919 1.0
C      1  0.3838723900029  0.2879418055625  0.6453154960425 1.0
C      1  0.2485026773734  0.4143461221334  0.4972538896835 1.0
C      1  0.6495755411195  0.3335032893701  0.6168451496197 1.0
END
