TITL C-158880-5323-27 -8.063 3375.00 -1354.68225275 0 0 166 (C1) n - 1
REM
REM Run started: at 2020.07.14 10:28:26 in /home/heco/bkarasulu/work/CARBON/AIRSS/Str-Search
REM VASP from code version vasp.5.4.4.18Apr17-6-g9f103f2a35 (build Jul 02 2020 21:03:42) gamma-only
REM
REM
REM
REM
REM ./C.cell (90889e035cd0f9d0e5f9cb6dd9eb5d52)
REM AIRSS Version 0.9.1 bugfix July 2018 build 013d7b7c2542+ Fri, 06 Jul 2018 19:26:36 +0100
REM compiler GCC version 9.2.0
REM options -cpp -mtune=generic -march=x86-64 -g -O0
REM seed -1797562532 -1833373243 1891175552 688493451 952655217 -1258433728 -239797352 -72962143 -505336138 1033930405 560068261 230847098 -1091294961 1136361224 -50472288 -1462054499 1959578243 524158545 1617680273 1089046892 1440272393 26381323 -1132189077 -988211035 1312697161 -2055237434 2116671579 -96968431 1812993680 -1515069425 1513003972 -729422636 2067930187
REM
REM C.POTCAR (d86ddea03c3ceb6dc662c8ad6801f873)
REM 
CELL 1.54180   15.00000   15.00000   15.00000   90.00000   90.00000   90.00000
LATT -1
SFAC C  
C      1  0.5314932602910  0.3132248390929  0.3888801383374 1.0
C      1  0.6902410405325  0.5986059755315  0.7219985946096 1.0
C      1  0.5285038659893  0.4480826328172  0.7959424093233 1.0
C      1  0.6139838407832  0.1523825403598  0.2431694128151 1.0
C      1  0.4548415348601  0.6904058398382  0.7833500857065 1.0
C      1  0.3871058317005  0.2449189849206  0.8144296242042 1.0
C      1  0.1848803002730  0.2931693860392  0.3578695615769 1.0
C      1  0.7182408444762  0.5793020279790  0.1946913175886 1.0
C      1  0.2643325067053  0.3937077063112  0.5124281518244 1.0
C      1  0.5499880589145  0.8781902504302  0.5763505186498 1.0
C      1  0.5868799992850  0.3688161715849  0.7913553317708 1.0
C      1  0.5464335792147  0.7027716459005  0.2648869897295 1.0
C      1  0.3878900221510  0.5410045871509  0.8200028500486 1.0
C      1  0.6576570283351  0.3459196394610  0.1692265443289 1.0
C      1  0.3242027065490  0.6704809990975  0.3737969886480 1.0
C      1  0.3325637999806  0.5394314550467  0.5952041614588 1.0
C      1  0.1064092680456  0.4507330550562  0.3967683127645 1.0
C      1  0.2454293004599  0.2347194569552  0.3589159974248 1.0
C      1  0.4975516727783  0.5711921522956  0.5874082332298 1.0
C      1  0.6227563331798  0.5916271898108  0.0725801870422 1.0
C      1  0.6654258767317  0.7966854969118  0.3602884869928 1.0
C      1  0.4024711340353  0.2606148575135  0.2983014676046 1.0
C      1  0.3891951242240  0.5109942528181  0.4494878614470 1.0
C      1  0.2551844326904  0.6624592737838  0.2218313607245 1.0
C      1  0.4699276477297  0.5631892238884  0.2166256506304 1.0
C      1  0.4603502154288  0.2712602185510  0.8410091433618 1.0
C      1  0.1896641517737  0.3932153836654  0.5519256310873 1.0
C      1  0.4627510646472  0.6653008655093  0.6878700749612 1.0
C      1  0.3349091032613  0.8008699709038  0.6855257350471 1.0
C      1  0.5783391566480  0.2059783100522  0.7714311547046 1.0
C      1  0.5366463994194  0.5370499689853  0.4121062490099 1.0
C      1  0.1660485667793  0.2816670689363  0.7807210383067 1.0
C      1  0.5091021356373  0.5839684280852  0.6880180369100 1.0
C      1  0.6382374453659  0.6244013395388  0.4983195915574 1.0
C      1  0.5032320250519  0.7738703200133  0.3109070385502 1.0
C      1  0.3497505406422  0.7653244019132  0.3802200452645 1.0
C      1  0.7135281060740  0.1647066118265  0.4484504727058 1.0
C      1  0.1783942185453  0.6016549210387  0.3606164739701 1.0
C      1  0.2207386276394  0.7463305683882  0.5859744189245 1.0
C      1  0.5510611676870  0.6132998783270  0.2453240057141 1.0
C      1  0.7704132241509  0.5235797033181  0.5125228573747 1.0
C      1  0.7387763686127  0.1927506588996  0.3559750161130 1.0
C      1  0.3509793310042  0.6101910829072  0.4514554295591 1.0
C      1  0.2513196705934  0.6494887550639  0.3165697133229 1.0
C      1  0.6918778899637  0.5014607086626  0.7019562758065 1.0
C      1  0.1424851701201  0.5181536502790  0.7283587326419 1.0
C      1  0.3607361977701  0.2911043159174  0.6678255778425 1.0
C      1  0.0851202971671  0.4787779472346  0.4822758931238 1.0
C      1  0.7711647059695  0.6599898451749  0.4167153606107 1.0
C      1  0.2073697204985  0.5851662803028  0.7557459575087 1.0
C      1  0.1894955226521  0.4424491566342  0.2878073044892 1.0
C      1  0.5820921042349  0.3782527816123  0.6054863683772 1.0
C      1  0.5777195410094  0.6197669349167  0.4286554635167 1.0
C      1  0.3309258686784  0.6930392150581  0.1742768151296 1.0
C      1  0.2888408483999  0.8128352399170  0.4348607458965 1.0
C      1  0.4674761458091  0.8662849753046  0.4422590731466 1.0
C      1  0.4636594485723  0.2446671290207  0.3783765335148 1.0
C      1  0.3996429562117  0.8496220203395  0.6643178297794 1.0
C      1  0.1995759141576  0.6565457789440  0.5431246177950 1.0
C      1  0.7477156013890  0.3436798847913  0.1735557163471 1.0
C      1  0.8328246095705  0.3423825880601  0.3174560937767 1.0
C      1  0.3795866513356  0.6666081590754  0.5311476768731 1.0
C      1  0.6393652993704  0.8452160639044  0.4409010816482 1.0
C      1  0.4777056337945  0.3960395336583  0.3451765553483 1.0
C      1  0.2497376029580  0.8088055057839  0.5238283720231 1.0
C      1  0.7427269523940  0.4395928027376  0.4889869179357 1.0
C      1  0.1453600277687  0.5151412534268  0.3353859142097 1.0
C      1  0.4501871651734  0.1244930037943  0.5737958608860 1.0
C      1  0.3066805261013  0.5694842812459  0.7613621004592 1.0
C      1  0.1278291318385  0.5932664779937  0.5810542204381 1.0
C      1  0.8115928381061  0.3489208371560  0.2259744963768 1.0
C      1  0.3924906376745  0.6621043488452  0.1277415566984 1.0
C      1  0.4381137495541  0.8054551877641  0.3713580512409 1.0
C      1  0.7838090427334  0.6285104001858  0.5929187538199 1.0
C      1  0.8584518665922  0.3817018410444  0.7332135102607 1.0
C      1  0.6345686429476  0.5681483144655  0.2444114027973 1.0
C      1  0.4266123334905  0.4060648189155  0.5513087775654 1.0
C      1  0.5263403986260  0.1437003871015  0.6248793771413 1.0
C      1  0.5859620752580  0.3362800029225  0.4719377855342 1.0
C      1  0.4009287016653  0.3664802263355  0.6413946042586 1.0
C      1  0.2946853171784  0.6148996945022  0.5417393063504 1.0
C      1  0.2659559186101  0.7378071543171  0.6746406249515 1.0
C      1  0.2052046808360  0.6017030902906  0.1656499488095 1.0
C      1  0.5424870378653  0.5504080897102  0.7830389407022 1.0
C      1  0.5501875402009  0.2839572359898  0.8138982256448 1.0
C      1  0.2573982720952  0.6566906704285  0.7305605460058 1.0
C      1  0.7405406458745  0.3055623493320  0.6625370678475 1.0
C      1  0.4494274061280  0.6621889179007  0.5907324397306 1.0
C      1  0.4005321619450  0.3619967035099  0.2916450054246 1.0
C      1  0.4104927473728  0.1439905823778  0.5035553432189 1.0
C      1  0.7545910549050  0.2291189195825  0.5102619006067 1.0
C      1  0.6260654540253  0.8521446060632  0.6243226983946 1.0
C      1  0.7156503460951  0.7553140010419  0.6633270792187 1.0
C      1  0.8256380849650  0.3795529719460  0.4777345896019 1.0
C      1  0.4088187918711  0.8888452659189  0.5136781968395 1.0
C      1  0.6705703269167  0.0695126455698  0.4644225192710 1.0
C      1  0.3261712016733  0.2492338984035  0.7423748646740 1.0
C      1  0.6440108533003  0.8067775325366  0.7074140458321 1.0
C      1  0.1217398162013  0.3589836747390  0.7888543383527 1.0
C      1  0.5681344197417  0.3723971298952  0.3082621522165 1.0
C      1  0.5375514911930  0.5954511669699  0.0689405112396 1.0
C      1  0.5901842096423  0.3490736983690  0.2168594906114 1.0
C      1  0.4185660701451  0.5079107137692  0.5509640324789 1.0
C      1  0.3572235711040  0.4339638259941  0.2541342912125 1.0
C      1  0.4210618664462  0.5123086874245  0.2736474228711 1.0
C      1  0.5782845610469  0.5611381733748  0.5362940901665 1.0
C      1  0.4570291848837  0.4950975754005  0.3696605116234 1.0
C      1  0.2636776394090  0.4525786985197  0.2272414341446 1.0
C      1  0.6789014929798  0.3653761965462  0.7280424065506 1.0
C      1  0.5277503094732  0.4017459291812  0.5265217796561 1.0
C      1  0.7390673204402  0.6643500744754  0.6709082589005 1.0
C      1  0.6844329680211  0.1655299040205  0.2855778296885 1.0
C      1  0.5279970207187  0.1732586724408  0.2258016093801 1.0
C      1  0.6246791173571  0.6122949180537  0.7894722631524 1.0
C      1  0.8049615920733  0.2853453639706  0.4581659914497 1.0
C      1  0.1514275414953  0.3760931393146  0.3476963331483 1.0
C      1  0.4623926323738  0.5994220502709  0.1224317132831 1.0
C      1  0.1223288106129  0.5172462290637  0.6360853280207 1.0
C      1  0.6110711092225  0.2870885085042  0.5623875874049 1.0
C      1  0.7054552514178  0.5916034476750  0.1049530210424 1.0
C      1  0.7665585338867  0.5406528328540  0.2808792528644 1.0
C      1  0.4012823807224  0.1885714325881  0.4225367179268 1.0
C      1  0.6523766608874  0.4177907763337  0.4464504235677 1.0
C      1  0.1099977278007  0.4399782511299  0.5703258518170 1.0
C      1  0.7065845832540  0.2658109018922  0.5861941229547 1.0
C      1  0.1528357390923  0.6297148041524  0.4476267393155 1.0
C      1  0.8013667187365  0.2642003955235  0.3658193649431 1.0
C      1  0.7035181728845  0.8071227100873  0.5826670520446 1.0
C      1  0.7103168869157  0.8025514320983  0.4900763555518 1.0
C      1  0.6077616284797  0.6965273283348  0.8286223741010 1.0
C      1  0.4581448580414  0.5981248009765  0.8225148255208 1.0
C      1  0.8371573226821  0.5057389647628  0.3441105876687 1.0
C      1  0.4556788859440  0.8856296846782  0.5985055494099 1.0
C      1  0.5975739424118  0.7709571392422  0.3047995844199 1.0
C      1  0.3864005625436  0.4361898014887  0.7087589985777 1.0
C      1  0.6228979648160  0.1400477906732  0.4919535018031 1.0
C      1  0.8218017095230  0.4235563377656  0.7967853806570 1.0
C      1  0.7356414057208  0.6196161824678  0.5029643509033 1.0
C      1  0.6377813449504  0.4272376002380  0.6600541288841 1.0
C      1  0.5758001571612  0.4776408511756  0.4832383602373 1.0
C      1  0.3332476856568  0.5132538751722  0.6829623430157 1.0
C      1  0.8035358676194  0.5922212323804  0.3563551097354 1.0
C      1  0.5833774441368  0.1899114551425  0.5599251165064 1.0
C      1  0.3174501921845  0.8717011988917  0.5010077812877 1.0
C      1  0.5246048422837  0.7408031936168  0.8176758080527 1.0
C      1  0.6418022672098  0.4290311849075  0.3464932586004 1.0
C      1  0.5492256905761  0.1541655311164  0.7119946446450 1.0
C      1  0.9472370943442  0.4347722106590  0.5831531823371 1.0
C      1  0.4273270403795  0.4522970157646  0.7921730260334 1.0
C      1  0.3487571570338  0.4143226277702  0.4836500881627 1.0
C      1  0.0961505575497  0.5722316034563  0.4954691682649 1.0
C      1  0.9196664611691  0.5150414107330  0.5959863095531 1.0
C      1  0.7363365822958  0.7481080665930  0.4111172946047 1.0
C      1  0.8514803114019  0.4154240676103  0.3773809243815 1.0
C      1  0.2334869886952  0.2407762505077  0.7563553839157 1.0
C      1  0.1255554835623  0.4406790287612  0.7759208636599 1.0
C      1  0.4518609382657  0.2070475964371  0.2300649437328 1.0
C      1  0.6042684633724  0.7827690868495  0.7851570733839 1.0
C      1  0.8341527556645  0.3385738232686  0.6524135467165 1.0
C      1  0.8404493063838  0.5566521513022  0.5744801720480 1.0
C      1  0.7365426877014  0.4417510965595  0.7570994226757 1.0
C      1  0.6715904579749  0.5022427502665  0.2993500210437 1.0
C      1  0.8746788550848  0.3744654839649  0.5719202417489 1.0
C      1  0.3321385755058  0.2125505059979  0.3579483857526 1.0
C      1  0.2383150559660  0.5242157095338  0.1757573029741 1.0
C      1  0.5583355652380  0.8716396218361  0.4783055845365 1.0
END
