TITL C-151104-9391-24 -6.762 3375.00 0 0 0 145 (C1) n - 1
REM
REM Run started: at 2020.03.16 11:42:38 in /rds/user/bk393/hpc-work/AIRSS.pl-DENE/CARBON/New-Try
REM VASP from code version vasp.5.4.4.18Apr17-6-g9f103f2a35 (build Oct 11 2019 16:45:47) gamma-only
REM
REM
REM
REM
REM ./C.cell (9f5935e56d41cf50cb14479ce98dda23)
REM AIRSS Version 0.9.1 bugfix July 2018 build 013d7b7c2542+ Fri, 06 Jul 2018 19:26:36 +0100
REM compiler GCC version 4.8.5 20150623 (Red Hat 4.8.5-39)
REM options -cpp -mtune=generic -march=x86-64 -g -O0
REM seed -1483709769 -2138703612 1515142918 -781110253 961583800 1110692829 -2073422515 460932088 -1999396516 965128981 702619527 -510925895
REM
REM C.POTCAR (d86ddea03c3ceb6dc662c8ad6801f873)
REM 
CELL 1.54180   15.00000   15.00000   15.00000   90.00000   90.00000   90.00000
LATT -1
SFAC C  
C      1  0.8371012823842  0.3161370388341  0.6196252634759 1.0
C      1  0.5395236101210  0.3853374134547  0.6597086994438 1.0
C      1  0.5006180953305  0.2990809216321  0.7020154774449 1.0
C      1  0.8222899540442  0.4302328168061  0.2898515664306 1.0
C      1  0.6507069463517  0.4609918043423  0.3948001261983 1.0
C      1  0.4964452940405  0.4722006967358  0.1584018927415 1.0
C      1  0.8735188841475  0.5572777616214  0.4843063236994 1.0
C      1  0.7670973214303  0.3501574298691  0.2987017121333 1.0
C      1  0.8128983991763  0.6089005766043  0.6493727792034 1.0
C      1  0.5631597919597  0.4092959257979  0.1621807925972 1.0
C      1  0.5902244258925  0.5019656110279  0.8397970633011 1.0
C      1  0.6841161182525  0.3731142290699  0.4419623532423 1.0
C      1  0.4318820374692  0.1791770144901  0.4935186711656 1.0
C      1  0.4388541959492  0.5584891988570  0.8846933390406 1.0
C      1  0.6586435445978  0.1767307654042  0.3821870245391 1.0
C      1  0.4278342162375  0.2032012093216  0.3296047098381 1.0
C      1  0.3568508368491  0.2393109153463  0.4973770280471 1.0
C      1  0.3320220732237  0.2151023720097  0.3342431611664 1.0
C      1  0.2376686234447  0.6725913363739  0.4988152747385 1.0
C      1  0.5057454436558  0.5588723927428  0.6861649698863 1.0
C      1  0.1720621170131  0.4904592506085  0.3215762808504 1.0
C      1  0.4175129297695  0.7615469942064  0.2752957651900 1.0
C      1  0.4571565316529  0.5208155804321  0.6087009279869 1.0
C      1  0.6909829557574  0.3172199519188  0.2636409610750 1.0
C      1  0.4666538220239  0.2603287420319  0.2618957802354 1.0
C      1  0.5100391755538  0.7558513827561  0.2504960022034 1.0
C      1  0.3285451353550  0.7135904477268  0.5091125066782 1.0
C      1  0.4877527258968  0.6291626202397  0.9236754091007 1.0
C      1  0.6157250389596  0.6235249783526  0.5973026660931 1.0
C      1  0.3644038029957  0.4946115176476  0.5892270073405 1.0
C      1  0.6402263356708  0.5926254690428  0.2945565901393 1.0
C      1  0.6344185974030  0.4233472614386  0.8136892429289 1.0
C      1  0.1768590508737  0.3575319617608  0.3822371866131 1.0
C      1  0.1702801778990  0.5158543203459  0.6479912841926 1.0
C      1  0.6587222733044  0.3755791330786  0.5423186309283 1.0
C      1  0.6363927235194  0.2516386394726  0.3195760327213 1.0
C      1  0.7229871261267  0.7080144613850  0.3750278287135 1.0
C      1  0.5909963497017  0.7551002234478  0.2961789788692 1.0
C      1  0.3026557764106  0.5812485751023  0.3210448277114 1.0
C      1  0.5159606436079  0.7657556295811  0.4487073776495 1.0
C      1  0.6194556208905  0.5447472118653  0.4460317552332 1.0
C      1  0.7822021946158  0.6599129061656  0.5766895212297 1.0
C      1  0.3957247537501  0.3326225761472  0.2487087322032 1.0
C      1  0.4905321664542  0.8429066421738  0.5399896471471 1.0
C      1  0.3603991525783  0.7798824973161  0.4365520927543 1.0
C      1  0.4496040236598  0.4034916096321  0.8414463203623 1.0
C      1  0.1234950555547  0.4175368133175  0.3611815901534 1.0
C      1  0.6214854224534  0.5337230591950  0.5469634676479 1.0
C      1  0.4886485206468  0.3442508405818  0.5040861744606 1.0
C      1  0.3653720306890  0.4483127292321  0.4689523008226 1.0
C      1  0.3597122592237  0.5549169373674  0.1618477183848 1.0
C      1  0.4492051859611  0.3222035367141  0.7826883746121 1.0
C      1  0.2014517314754  0.6567786240403  0.5812459661916 1.0
C      1  0.3797824754723  0.6321647147779  0.3672376667451 1.0
C      1  0.6836314519394  0.4616385596421  0.5863047551156 1.0
C      1  0.6467939485062  0.3524569437952  0.7716721899359 1.0
C      1  0.2215611984402  0.4872872919333  0.7747994685006 1.0
C      1  0.5970256706075  0.6782521541621  0.8193778284488 1.0
C      1  0.2208133085488  0.3471330882708  0.6935504940641 1.0
C      1  0.5818823916986  0.4047964225225  0.3387840421920 1.0
C      1  0.5612011125720  0.3624698781444  0.5672593517952 1.0
C      1  0.8257907997293  0.2777316856890  0.4589182006911 1.0
C      1  0.3755367702477  0.7224606052679  0.7806968008945 1.0
C      1  0.5427978549760  0.5816808106698  0.2803609324809 1.0
C      1  0.6033135650805  0.3118956373589  0.6949271588023 1.0
C      1  0.3532528987882  0.3216185805739  0.7824456765652 1.0
C      1  0.4925041000873  0.1912443002038  0.5682590585598 1.0
C      1  0.6420511775180  0.1620455490993  0.4625831896133 1.0
C      1  0.3001846098266  0.3008424631449  0.2798195639802 1.0
C      1  0.6090103754606  0.3192121286281  0.3931971983223 1.0
C      1  0.5866682796924  0.7170027629284  0.7223973770658 1.0
C      1  0.5875052653321  0.2145820039055  0.5299331210839 1.0
C      1  0.8158632528960  0.5024062932828  0.2315081666055 1.0
C      1  0.2400327643533  0.4691656225762  0.2464469666995 1.0
C      1  0.8462769759913  0.2766745206598  0.5389804869173 1.0
C      1  0.6923035736754  0.6993540926137  0.5960493552948 1.0
C      1  0.3536299323543  0.4053240692523  0.8358024459039 1.0
C      1  0.6010847045104  0.3659982804457  0.2395790485725 1.0
C      1  0.4333973952375  0.6178994447061  0.1719656756037 1.0
C      1  0.4624103864769  0.7490620458983  0.8145502106707 1.0
C      1  0.1779237782008  0.5627765886077  0.5688549977356 1.0
C      1  0.4881923140749  0.4230292758133  0.3643002973164 1.0
C      1  0.3848365736432  0.6335146305007  0.4734384865907 1.0
C      1  0.8061375561091  0.6239772639692  0.4938037291682 1.0
C      1  0.5085373137341  0.5644343842681  0.1908093558216 1.0
C      1  0.3212373403440  0.6486586828546  0.7996280360470 1.0
C      1  0.6725050700150  0.7558117852392  0.6786121447720 1.0
C      1  0.5068075488902  0.4708798339549  0.6789769472378 1.0
C      1  0.1958809477420  0.5664877063970  0.7307266019417 1.0
C      1  0.6608756378131  0.7683329655824  0.5289097008930 1.0
C      1  0.5185822533539  0.6993657204976  0.8724263806546 1.0
C      1  0.3713751346048  0.7352171196652  0.3543315927765 1.0
C      1  0.8497908337972  0.4232617191850  0.3804294404323 1.0
C      1  0.4421959141461  0.7058028514813  0.2047156157222 1.0
C      1  0.4882148279822  0.6650161947856  0.4837044297548 1.0
C      1  0.8770556605183  0.4888751246368  0.4370747241986 1.0
C      1  0.5408242642684  0.6824039664904  0.5635031637269 1.0
C      1  0.8019079802007  0.3808758810810  0.6566292440752 1.0
C      1  0.5858484844774  0.6151702391810  0.6969738278970 1.0
C      1  0.4744971335692  0.1994552482196  0.4110283515721 1.0
C      1  0.3372744811140  0.7281284941108  0.6167042904260 1.0
C      1  0.4696546891934  0.4353986521943  0.4625349739003 1.0
C      1  0.4126688364033  0.3934425429699  0.3261695644197 1.0
C      1  0.2889557690686  0.5551373700440  0.2204669349223 1.0
C      1  0.3994722008703  0.7470224850181  0.6870284429609 1.0
C      1  0.5255330428193  0.5822153495513  0.4405663679968 1.0
C      1  0.4004990916049  0.4653673139331  0.1396625130055 1.0
C      1  0.6143063244493  0.5888359675678  0.7962354982873 1.0
C      1  0.5555580304335  0.2733893136659  0.2573228987508 1.0
C      1  0.2210757332106  0.5547993251247  0.3777596536328 1.0
C      1  0.3524147677263  0.4052304498801  0.5592537860336 1.0
C      1  0.7520212925977  0.4614001249424  0.6499114975986 1.0
C      1  0.2813293158550  0.3008431829704  0.7301052130183 1.0
C      1  0.6885488385932  0.5567998317533  0.3759359022141 1.0
C      1  0.7856447822820  0.3439880682762  0.4005355020800 1.0
C      1  0.6266055390815  0.2897364827039  0.5928153080920 1.0
C      1  0.3572386461392  0.3893661510550  0.1745706809504 1.0
C      1  0.6982399479467  0.6268337975368  0.2211428900859 1.0
C      1  0.5102841212564  0.5116173528668  0.5182805420809 1.0
C      1  0.7881061452544  0.5409004419661  0.6895964508587 1.0
C      1  0.4810974339867  0.5913504817320  0.3513728729589 1.0
C      1  0.2562303148358  0.6900438069377  0.6524744536703 1.0
C      1  0.3502855739292  0.5668221783170  0.8457528738380 1.0
C      1  0.7731118180692  0.5729251340485  0.2171193770388 1.0
C      1  0.2501574177476  0.6426672700936  0.7342046885225 1.0
C      1  0.5912164578876  0.7813963878156  0.3874875646323 1.0
C      1  0.2690653757420  0.3301204851259  0.3780572601889 1.0
C      1  0.4384767549617  0.8253751782567  0.4686059186076 1.0
C      1  0.6743416380627  0.7680298468126  0.4342142565886 1.0
C      1  0.4938337999093  0.7586527706659  0.7253460026604 1.0
C      1  0.2692923803532  0.3780844085360  0.2097735345710 1.0
C      1  0.5653074756084  0.7749520236388  0.5445105053870 1.0
C      1  0.3974102835066  0.3123516333151  0.5597043582829 1.0
C      1  0.3310465359479  0.4127580599488  0.3828672632059 1.0
C      1  0.6719957783463  0.6953475181155  0.2887205374713 1.0
C      1  0.4961047692922  0.4823409420663  0.8656290261742 1.0
C      1  0.7531937103930  0.6285360365882  0.4111720797103 1.0
C      1  0.5388967395422  0.2717259709249  0.4502647481077 1.0
C      1  0.3050774765876  0.2484163687652  0.4206220146653 1.0
C      1  0.1893858403288  0.4323363690970  0.6991637122524 1.0
C      1  0.2349024747132  0.5711587914398  0.4785722750960 1.0
C      1  0.4547369346500  0.2543349987864  0.6266084565652 1.0
C      1  0.3368386533988  0.5428733160528  0.5026911759542 1.0
C      1  0.2860915842417  0.4844561268054  0.3381003625102 1.0
C      1  0.3021156725500  0.4834833107548  0.8281194938097 1.0
END
