TITL C-156655-5461-4 -8.966 3375.00 0 0 0 383 (C1) n - 1
REM
REM Run started: at 2020.03.11 03:11:20 in /rds/user/bk393/hpc-work/AIRSS.pl-DENE/CARBON/New-Try
REM VASP from code version vasp.5.4.4.18Apr17-6-g9f103f2a35 (build Oct 11 2019 16:45:47) gamma-only
REM
REM
REM
REM
REM ./C.cell (67df479faaa1345d4e7bfe0367c0c0c2)
REM AIRSS Version 0.9.1 bugfix July 2018 build 013d7b7c2542+ Fri, 06 Jul 2018 19:26:36 +0100
REM compiler GCC version 4.8.5 20150623 (Red Hat 4.8.5-39)
REM options -cpp -mtune=generic -march=x86-64 -g -O0
REM seed 172348710 856571935 -1682959003 -1704167887 332910648 -1296995114 1035975310 -217990321 1460584176 -1574711213 175295109 2108655829
REM
REM C.POTCAR (d86ddea03c3ceb6dc662c8ad6801f873)
REM 
CELL 1.54180   15.00000   15.00000   15.00000   90.00000   90.00000   90.00000
LATT -1
SFAC C  
C      1  0.5120892739838  0.3806119874694  0.0139459831383 1.0
C      1  0.0700502847103  0.7325338028542  0.7349827157754 1.0
C      1  0.4810504105546  0.2147335973688  0.2544151682542 1.0
C      1  0.4214751004359  0.8583911491542  0.3491308432621 1.0
C      1  0.2774137820321  0.1586868469596  0.5256585801468 1.0
C      1  0.3256181973035  0.5111486432260  0.5849872681578 1.0
C      1  0.4851456734254  0.2858309698554  0.4057569139166 1.0
C      1  0.0337104172256  0.5382759835802  0.6696281862637 1.0
C      1  0.3956104841434  0.6639161195770  0.6143818202793 1.0
C      1  0.9088189900180  0.7682306119904  0.4960008248860 1.0
C      1  0.6905083321174  0.0662465230692  0.3023285446100 1.0
C      1  0.6284192130765  0.5301171595867  0.5750187982446 1.0
C      1  0.4841085360283  0.0609934965645  0.2858358233952 1.0
C      1  0.2734334965345  0.4888233084199  0.2761512668788 1.0
C      1  0.5149090260554  0.1337643667648  0.5591215099173 1.0
C      1  0.4516473052299  0.9766310282126  0.5491470747793 1.0
C      1  0.7396079193851  0.1989052568185  0.4297362968411 1.0
C      1  0.4040071392977  0.0066477253266  0.3152476265938 1.0
C      1  0.6594628764453  0.9708456907051  0.6850509752879 1.0
C      1  0.4529540436233  0.1529052354707  0.7009716868842 1.0
C      1  0.4769198127455  0.2947427223719  0.6047559413319 1.0
C      1  0.6347150099213  0.2802298081191  0.3077027551467 1.0
C      1  0.6258906510267  0.8936505713471  0.8290202329442 1.0
C      1  0.2092718339595  0.4983727342257  0.7547484066421 1.0
C      1  0.3860439450414  0.2866795518817  0.9930141025008 1.0
C      1  0.5381843515121  0.5953014755486  0.2445876446202 1.0
C      1  0.3764901564125  0.8080525635423  0.9104118956558 1.0
C      1  0.7225656187401  0.2758576407517  0.3691079845907 1.0
C      1  0.3768836828320  0.0411531734313  0.5630692423633 1.0
C      1  0.1771657153692  0.6260203243982  0.5979343458443 1.0
C      1  0.9794307960566  0.3222912258046  0.3684609973016 1.0
C      1  0.1613210689010  0.8006608228443  0.2346087678574 1.0
C      1  0.7638236366324  0.3492651407228  0.4264650650289 1.0
C      1  0.4645074474771  0.6279669901586  0.6746192878894 1.0
C      1  0.1894803705075  0.2983519912465  0.4843095694499 1.0
C      1  0.5655387316587  0.2038322078690  0.3061041860074 1.0
C      1  0.3746760198291  0.3285053057679  0.4759660711908 1.0
C      1  0.2535068690751  0.6658439023334  0.5400264151221 1.0
C      1  0.8842781242021  0.5593048054020  0.4850615173023 1.0
C      1  0.3654150921863  0.9708705307232  0.7013575865386 1.0
C      1  0.1791258206462  0.1918156247704  0.6639281054220 1.0
C      1  0.7061359201474  0.1061922541254  0.3985103370112 1.0
C      1  0.2751101908643  0.3293919098102  0.2526124870237 1.0
C      1  0.5439641228270  0.8273836005951  0.2207360990092 1.0
C      1  0.9073603275583  0.3668826756740  0.2105972123955 1.0
C      1  0.4878150128567  0.5075861335811  0.3518783780323 1.0
C      1  0.9772670146249  0.5622451448196  0.4535309098321 1.0
C      1  0.0442427286468  0.3957232297425  0.4856951322028 1.0
C      1  0.6248161772986  0.1467970628166  0.1524105592065 1.0
C      1  0.7323022395290  0.9013242721838  0.7061030266949 1.0
C      1  0.3937959076970  0.5306493138756  0.3808561019518 1.0
C      1  0.6636996101122  0.4707492843600  0.4004988047326 1.0
C      1  0.3024763321435  0.6256173762179  0.8115640176039 1.0
C      1  0.3613072589614  0.6843144603817  0.4066885867905 1.0
C      1  0.5077522638483  0.2406265839855  0.6843025642598 1.0
C      1  0.4886980931391  0.4789351062994  0.0218066926516 1.0
C      1  0.1272149805899  0.6586958934334  0.1744068222069 1.0
C      1  0.8793820721049  0.6605077574492  0.7813779340672 1.0
C      1  0.6615691590911  0.2981839117326  0.9670845661174 1.0
C      1  0.8429856883347  0.1774622035934  0.6779835348664 1.0
C      1  0.2616117660457  0.6736411230773  0.4401903302308 1.0
C      1  0.4033516318271  0.4969811654707  0.7588796667863 1.0
C      1  0.1191934869374  0.3001454476811  0.5621389523939 1.0
C      1  0.9208903084914  0.3056857128116  0.2956709937363 1.0
C      1  0.6481819758931  0.7403650216581  0.3504387271565 1.0
C      1  0.4706808098823  0.6889711643330  0.7516337090065 1.0
C      1  0.7084173217594  0.5150914782288  0.1266304089649 1.0
C      1  0.7034510601714  0.4961575732554  0.5411982817648 1.0
C      1  0.3114385729022  0.1396115941532  0.7992356803897 1.0
C      1  0.3214278283150  0.5631303685205  0.9554712938746 1.0
C      1  0.0912991247707  0.3982007690678  0.5746102175938 1.0
C      1  0.4116663508428  0.1078139461313  0.7873586407843 1.0
C      1  0.0295423530923  0.6477884728710  0.5135740137108 1.0
C      1  0.5033731645021  0.7577335549164  0.1767025972850 1.0
C      1  0.2839516093243  0.8062029191424  0.8843826535138 1.0
C      1  0.4929221482142  0.5120123599667  0.5171855862081 1.0
C      1  0.9368315124021  0.5580280617053  0.6735139425010 1.0
C      1  0.3174543768582  0.7341733296900  0.9416719834949 1.0
C      1  0.1982358659128  0.5034966166613  0.3989688095384 1.0
C      1  0.5143988859230  0.0762815837823  0.7088424935930 1.0
C      1  0.7445619188582  0.4176702208636  0.5832884210296 1.0
C      1  0.3305012705452  0.6007274104135  0.5735377718556 1.0
C      1  0.9091978882220  0.7382698564630  0.3975188775464 1.0
C      1  0.5553130034025  0.5425139468016  0.8242706002770 1.0
C      1  0.5063323738340  0.9366173239790  0.7819448156681 1.0
C      1  0.7478364889935  0.9628616435180  0.5118871736054 1.0
C      1  0.4374013232789  0.3750260128017  0.4159827469506 1.0
C      1  0.3595215946920  0.6110545536678  0.3461733775520 1.0
C      1  0.0630687230003  0.2953001741040  0.3719751083280 1.0
C      1  0.2393667535815  0.3093459803526  0.0548244190738 1.0
C      1  0.8322656670817  0.6836849591338  0.2861676618927 1.0
C      1  0.7353575562296  0.2026424280515  0.2281302127119 1.0
C      1  0.1666665460916  0.8653900669121  0.7557018059862 1.0
C      1  0.7994353731164  0.4554473882395  0.6725808031022 1.0
C      1  0.5455900516012  0.8455266135833  0.6428146911359 1.0
C      1  0.0581002925478  0.5960125956601  0.3197209964929 1.0
C      1  0.8581890303757  0.9067889947644  0.4026677115636 1.0
C      1  0.4605773277407  0.4731984192282  0.4375517235278 1.0
C      1  0.8525034434846  0.5315790141512  0.0755941655263 1.0
C      1  0.1555224498992  0.8420649121764  0.5151744816604 1.0
C      1  0.4701435587776  0.2093539876136  0.3506377334401 1.0
C      1  0.4733113430248  0.5317557515855  0.6873790097135 1.0
C      1  0.3466967140711  0.1026253065401  0.4867018216990 1.0
C      1  0.6009127139403  0.9223274867016  0.6118369938567 1.0
C      1  0.4004865834551  0.9138666979038  0.2616253426884 1.0
C      1  0.5245573656937  0.6225144352326  0.0869396089168 1.0
C      1  0.2782239202402  0.6070298393935  0.0354802284310 1.0
C      1  0.0102994991369  0.3705402047274  0.7156776668144 1.0
C      1  0.5494946750120  0.1081289505644  0.4609631753449 1.0
C      1  0.7689390075940  0.3478158573026  0.7978899961294 1.0
C      1  0.6369446237802  0.0882708451628  0.4694103167018 1.0
C      1  0.5746154393259  0.6156654929906  0.4251915421751 1.0
C      1  0.1937141025907  0.4502937615077  0.9565788162811 1.0
C      1  0.4205531639094  0.1267693103913  0.6034275096051 1.0
C      1  0.7325759545646  0.7106316946528  0.8414218621659 1.0
C      1  0.9792551488189  0.7128209862088  0.5707500825428 1.0
C      1  0.7890427481758  0.3424814351460  0.5248328032348 1.0
C      1  0.2611717875778  0.9761188172426  0.3760101457351 1.0
C      1  0.2803632348149  0.5924959499968  0.2958768039871 1.0
C      1  0.5889318401238  0.7976186280056  0.3051107844430 1.0
C      1  0.1626329797366  0.5930705522920  0.7676333446304 1.0
C      1  0.9820096557919  0.2408044853270  0.6105795393974 1.0
C      1  0.4805015048487  0.5322558006162  0.1114123049264 1.0
C      1  0.5031925764717  0.1266087683294  0.8449679953287 1.0
C      1  0.2419608692550  0.0707909551120  0.6515601862868 1.0
C      1  0.0810921189168  0.6675841180563  0.2535699215545 1.0
C      1  0.2193001478686  0.1708992673050  0.2547932314203 1.0
C      1  0.7091183891112  0.7741294201437  0.1618791729068 1.0
C      1  0.8217844144557  0.5037743411650  0.4291410269560 1.0
C      1  0.1598795875583  0.1868534314879  0.3207905653690 1.0
C      1  0.8225358432377  0.3126328940091  0.8756979136505 1.0
C      1  0.4989515069174  0.9120894038921  0.2277806095822 1.0
C      1  0.4878652459106  0.3962805599445  0.8499763817456 1.0
C      1  0.6569786078230  0.9144572544381  0.5296818384932 1.0
C      1  0.8399175958203  0.4056326951802  0.7536592838730 1.0
C      1  0.1862553960475  0.4505778961855  0.3114547462526 1.0
C      1  0.1904141016120  0.9101877550110  0.3513298508295 1.0
C      1  0.5058444181614  0.8091949751168  0.3572299461374 1.0
C      1  0.8916362794247  0.6498816781223  0.3578094129408 1.0
C      1  0.9029250538839  0.1745630529265  0.6034268992872 1.0
C      1  0.3127251275558  0.0459280100238  0.3243628451314 1.0
C      1  0.6126942122808  0.2537006072354  0.5241733146086 1.0
C      1  0.6962336118203  0.1074688131960  0.5569273133398 1.0
C      1  0.4196932592261  0.3253150008962  0.8406796433190 1.0
C      1  0.7425927388667  0.7174278232850  0.6800623809512 1.0
C      1  0.4583514524530  0.1274026187802  0.2051581940857 1.0
C      1  0.5838361211944  0.2718989320103  0.9026083334658 1.0
C      1  0.8437828784979  0.1726582686373  0.4223868676338 1.0
C      1  0.9172107939168  0.6480305935120  0.6281086741018 1.0
C      1  0.8737505396212  0.7742662034731  0.3188381022500 1.0
C      1  0.6570019161321  0.4776573999976  0.9484657258690 1.0
C      1  0.6307796867270  0.4772834056663  0.1658054814389 1.0
C      1  0.3904487901299  0.2813936662832  0.5602119026469 1.0
C      1  0.7000507535401  0.5895265371211  0.2706312621990 1.0
C      1  0.3581256006449  0.1368389401997  0.1890116103098 1.0
C      1  0.5100253836442  0.7517103765709  0.4231234179535 1.0
C      1  0.2201736795124  0.4599805936764  0.0520871600463 1.0
C      1  0.3894211861442  0.7022978098160  0.0770679468966 1.0
C      1  0.4667685182486  0.5310711243374  0.2026953503264 1.0
C      1  0.5341228377278  0.9872787341717  0.5915817398140 1.0
C      1  0.5016525019529  0.8568179468196  0.7209914800952 1.0
C      1  0.5358453788225  0.5888434690805  0.3461170247758 1.0
C      1  0.5196687638922  0.1268519276221  0.3642141015350 1.0
C      1  0.4090834086662  0.2471028613071  0.9014529662700 1.0
C      1  0.2901952199057  0.2867831698537  0.7619859172819 1.0
C      1  0.0433322414332  0.4819605379863  0.3251965822299 1.0
C      1  0.8473645640915  0.8638125149558  0.3163544272192 1.0
C      1  0.6962191320934  0.2941944664084  0.0506160135505 1.0
C      1  0.5133899308091  0.3989858545247  0.7523426022501 1.0
C      1  0.1485751241970  0.5707008079136  0.1417945985276 1.0
C      1  0.8741289089424  0.4977820844189  0.6252578307803 1.0
C      1  0.7740708449344  0.4677875848494  0.0821289141686 1.0
C      1  0.9442022248527  0.3342847068609  0.6452972938343 1.0
C      1  0.7627145425252  0.8138796608211  0.5206500927470 1.0
C      1  0.5466923074291  0.6538109608848  0.8151135031844 1.0
C      1  0.2656308602970  0.4441184506269  0.4364153366268 1.0
C      1  0.7486815173606  0.6333724710332  0.9029273977794 1.0
C      1  0.5985083136138  0.7113098717552  0.4367405377626 1.0
C      1  0.9132594338893  0.5661830965901  0.7742163266171 1.0
C      1  0.7220467867156  0.6702866611793  0.3356286713917 1.0
C      1  0.0873464798675  0.6955848508450  0.4443336079712 1.0
C      1  0.2984449719834  0.7042041120455  0.0426167214080 1.0
C      1  0.6077111308349  0.3571616375915  0.6570013527343 1.0
C      1  0.7285868626804  0.9666041648788  0.3169529836483 1.0
C      1  0.4349397409258  0.7153842876140  0.4657890880386 1.0
C      1  0.5836215585471  0.3558797661005  0.5045881009521 1.0
C      1  0.5354371680007  0.2339050511876  0.0909994326194 1.0
C      1  0.2183184079069  0.5561149678456  0.0771496956322 1.0
C      1  0.1680227329657  0.8877585581437  0.6666597432448 1.0
C      1  0.1244872052862  0.7895467251517  0.7879707344246 1.0
C      1  0.3240068213377  0.9268650073878  0.4217955225178 1.0
C      1  0.7481093791719  0.4380480412733  0.2686822787376 1.0
C      1  0.1380718383503  0.1105663873694  0.4915907707601 1.0
C      1  0.8903976042874  0.5373694777147  0.1639181112832 1.0
C      1  0.6891940153470  0.1237961012675  0.2210611320190 1.0
C      1  0.5804440842465  0.0824920268671  0.7869496358047 1.0
C      1  0.3535503439861  0.6437190190502  0.9009929535408 1.0
C      1  0.5956605055445  0.3717941789138  0.3224022332259 1.0
C      1  0.1689106035900  0.1547826394997  0.4169083381775 1.0
C      1  0.5497985217709  0.2781967184651  0.4614031327540 1.0
C      1  0.7750048458390  0.0561634481860  0.5292139303712 1.0
C      1  0.5631078156811  0.5672292048973  0.5103825577116 1.0
C      1  0.7477561241549  0.1692582183290  0.8022315450982 1.0
C      1  0.2061283589010  0.6358692600259  0.6916325528654 1.0
C      1  0.3646664199336  0.8016414268109  0.7090770294319 1.0
C      1  0.3101608435288  0.8765847633012  0.2230806358689 1.0
C      1  0.3094408126329  0.2455347843137  0.0504267851771 1.0
C      1  0.7458538181891  0.2739128080968  0.5901344915792 1.0
C      1  0.8312135893099  0.3438898279237  0.1531927300398 1.0
C      1  0.2379556096926  0.1230097408452  0.7277788192284 1.0
C      1  0.4193923950955  0.9504534879050  0.3979911413651 1.0
C      1  0.9181251185309  0.3413704958665  0.7449661458386 1.0
C      1  0.4171629852901  0.3364034639473  0.1422386280049 1.0
C      1  0.2177077618032  0.8717397371160  0.2637655921372 1.0
C      1  0.4784018284705  0.8028136000414  0.8893490624041 1.0
C      1  0.2312440169076  0.5306426945185  0.9085990163772 1.0
C      1  0.5155313999211  0.7091660911542  0.8953432383319 1.0
C      1  0.2570188314351  0.7595027469051  0.1139474440379 1.0
C      1  0.5625475378833  0.0717321019215  0.6235971971768 1.0
C      1  0.7303791497922  0.6067789999453  0.1750671237065 1.0
C      1  0.8130608055379  0.4786124669553  0.8966780273821 1.0
C      1  0.3921741549508  0.3974444574206  0.3301041965738 1.0
C      1  0.8157896908098  0.6796748541907  0.8470900660310 1.0
C      1  0.5476519192118  0.9835450964372  0.2662283007749 1.0
C      1  0.6858340256165  0.6827122656507  0.5973504287457 1.0
C      1  0.6322858580167  0.5258687124886  0.6753040623173 1.0
C      1  0.4484020442568  0.6540514334898  0.9371414413940 1.0
C      1  0.6086165270650  0.6869324357017  0.7407306074448 1.0
C      1  0.2418519136462  0.3509512138580  0.4156069893215 1.0
C      1  0.6785771636589  0.2805388656692  0.2099109840534 1.0
C      1  0.2962530564998  0.7545990697174  0.3961823658981 1.0
C      1  0.5637457389115  0.3132004225008  0.7316370563338 1.0
C      1  0.2425244019178  0.2487600299172  0.1934731808910 1.0
C      1  0.1929445021434  0.4223047689571  0.1416280939340 1.0
C      1  0.7404950022217  0.8405408652436  0.1985262811742 1.0
C      1  0.4002087085423  0.4869696989346  0.9495059852403 1.0
C      1  0.7840435428063  0.2578584265758  0.2906375577295 1.0
C      1  0.6322627305626  0.9890583862328  0.3044602435255 1.0
C      1  0.1264729117831  0.5337680339160  0.4538435797251 1.0
C      1  0.7233431196112  0.2596781219519  0.7622069928063 1.0
C      1  0.5361174806348  0.6968257810588  0.6733150375831 1.0
C      1  0.9693378502248  0.2465400612951  0.5123929438460 1.0
C      1  0.2075407536948  0.8216154273299  0.8304312967242 1.0
C      1  0.1654448051547  0.3424886122563  0.7101182210171 1.0
C      1  0.5822968480283  0.5188065836934  0.9941432887276 1.0
C      1  0.5378678570902  0.3590694516399  0.9266334973339 1.0
C      1  0.8867163909292  0.2636474937368  0.8141254176498 1.0
C      1  0.3627492918597  0.1893022959877  0.5584131031673 1.0
C      1  0.5339712618173  0.8776712468455  0.8613944659139 1.0
C      1  0.3872103210435  0.4353474659595  0.6161756671659 1.0
C      1  0.9125925950203  0.4108110340182  0.5884894335020 1.0
C      1  0.7446543925611  0.6143779265110  0.7012660692576 1.0
C      1  0.4102721796055  0.4067346122523  0.7155292547686 1.0
C      1  0.5043887402478  0.2022530925901  0.8937892720806 1.0
C      1  0.1787313085739  0.7429187549193  0.1603616747101 1.0
C      1  0.0634865004711  0.4437346533404  0.6681360960932 1.0
C      1  0.8268292636022  0.6068811817441  0.0347960976555 1.0
C      1  0.7980730271593  0.3818859267901  0.9450613646140 1.0
C      1  0.6609090027750  0.0732578785077  0.6509572184558 1.0
C      1  0.6020883653496  0.9770442602790  0.7762164685023 1.0
C      1  0.6520913127932  0.6233951389167  0.6799701089247 1.0
C      1  0.6875780628049  0.8474089113561  0.7755796305622 1.0
C      1  0.3118025275136  0.5267112265908  0.7762339011603 1.0
C      1  0.1259320094062  0.4866304919014  0.1742670397302 1.0
C      1  0.1486949423880  0.5403861541214  0.5517790786265 1.0
C      1  0.0140747326179  0.5633884997910  0.7755901869792 1.0
C      1  0.8360791232844  0.4115431129899  0.4190557158748 1.0
C      1  0.4425782432346  0.7829718020490  0.7512614419460 1.0
C      1  0.8106866078328  0.8940920225112  0.5505941271283 1.0
C      1  0.6207811126903  0.5311220165043  0.2510380413631 1.0
C      1  0.3369895360074  0.8341047301271  0.3995461274752 1.0
C      1  0.6216315240221  0.7404447196216  0.5366318990411 1.0
C      1  0.2190776119082  0.6069731264887  0.3743094419365 1.0
C      1  0.3287466064331  0.7278030829162  0.6605224440123 1.0
C      1  0.4476195257388  0.3045774082189  0.2308400449769 1.0
C      1  0.6714269777755  0.6592897110060  0.0435906649797 1.0
C      1  0.2051330476738  0.3504044967734  0.3236345778300 1.0
C      1  0.1405655254475  0.8541980813225  0.4158061737807 1.0
C      1  0.6736567899858  0.8229791680172  0.5167641490754 1.0
C      1  0.1989309172286  0.1275936448283  0.5810884880905 1.0
C      1  0.6370951633911  0.2468926778658  0.1184070634061 1.0
C      1  0.1017794888215  0.4397341697820  0.2559618730885 1.0
C      1  0.1029230779083  0.3301089207119  0.2163833556998 1.0
C      1  0.9532773216393  0.5002261585175  0.3000520657512 1.0
C      1  0.6468771020219  0.4917858696578  0.8494325831902 1.0
C      1  0.2812999446713  0.4186655692479  0.1998519902053 1.0
C      1  0.5348915288400  0.7567798669062  0.5953240739129 1.0
C      1  0.5571576494255  0.6712102141425  0.1699334245533 1.0
C      1  0.2415941807749  0.2169645098488  0.4550925299500 1.0
C      1  0.8854595837706  0.7056462702388  0.7009668450287 1.0
C      1  0.2975695565530  0.3986909261100  0.0489661497686 1.0
C      1  0.8002252775404  0.8695170356373  0.6503958203639 1.0
C      1  0.8198756071946  0.7420525271182  0.5458859193849 1.0
C      1  0.1737795675249  0.3177177597571  0.1420957755421 1.0
C      1  0.7964441127469  0.0728033304610  0.4320751580535 1.0
C      1  0.3151472128878  0.2147321308062  0.8608775519162 1.0
C      1  0.8231459205566  0.7680949580024  0.6525899868786 1.0
C      1  0.4824556394751  0.9466814891808  0.4708714086496 1.0
C      1  0.2762765084099  0.7531832341876  0.5806074689433 1.0
C      1  0.7672157532538  0.6555307103502  0.5373899620420 1.0
C      1  0.6716540987452  0.1190248706873  0.7493993110302 1.0
C      1  0.8612618574640  0.4860428759318  0.8157001939893 1.0
C      1  0.0439093892859  0.4828245156439  0.4346377534021 1.0
C      1  0.8355397998392  0.5989023185592  0.4117127579456 1.0
C      1  0.6894753229716  0.3497388685798  0.6235099083021 1.0
C      1  0.6803106749466  0.3878532319841  0.8308620832232 1.0
C      1  0.4637310101758  0.4548410761853  0.2724061933788 1.0
C      1  0.3129290642700  0.2825394410585  0.4107599638752 1.0
C      1  0.3269921038475  0.8115334716295  0.1582405485913 1.0
C      1  0.9009920899773  0.1842187412372  0.5051887031766 1.0
C      1  0.9222401732548  0.4652778425924  0.2183445439284 1.0
C      1  0.7770726222521  0.8974249726208  0.2647662568652 1.0
C      1  0.3611557204450  0.3140474425792  0.2962780152980 1.0
C      1  0.1074649786410  0.8379616447440  0.6059538567563 1.0
C      1  0.4478463604109  0.7198170757632  0.5530241131786 1.0
C      1  0.3349063403687  0.8862663000381  0.6897133647113 1.0
C      1  0.7773771505464  0.5264562180560  0.2715325695500 1.0
C      1  0.5301359096338  0.1494172216921  0.1343156208386 1.0
C      1  0.0993398053875  0.7557870650645  0.2924007908025 1.0
C      1  0.6551830104406  0.4519469147667  0.3062367421809 1.0
C      1  0.8811473304624  0.3771476024040  0.5023517277086 1.0
C      1  0.7853738972776  0.9736444819816  0.4084133544543 1.0
C      1  0.1767852233881  0.4520830920389  0.5847344103596 1.0
C      1  0.4399804233333  0.0122887353908  0.7492863433696 1.0
C      1  0.3299185260253  0.4627869361113  0.3569581556605 1.0
C      1  0.3446375513033  0.3904604196329  0.9641611551458 1.0
C      1  0.4125226881996  0.7638515804543  0.1414698102940 1.0
C      1  0.9615209171191  0.3333613857548  0.4671451696434 1.0
C      1  0.0491614315669  0.7664299391000  0.6391092725190 1.0
C      1  0.0790952476330  0.5958810696543  0.5898184240347 1.0
C      1  0.3372042648053  0.3694532383804  0.5603870144139 1.0
C      1  0.2608406328939  0.3850398424311  0.8974472704776 1.0
C      1  0.0702860637123  0.6350133732833  0.7654053419639 1.0
C      1  0.6962807574402  0.3827226797199  0.9303903650580 1.0
C      1  0.3060114822794  0.0038038654538  0.6280510809657 1.0
C      1  0.4777535843118  0.4666094139486  0.6002551635848 1.0
C      1  0.5238737868154  0.3793018154619  0.2460466192774 1.0
C      1  0.7464227443731  0.6263940517086  0.4358637602345 1.0
C      1  0.8487740702311  0.5895077600975  0.5709667870337 1.0
C      1  0.7680952907765  0.2314117845105  0.6712632441115 1.0
C      1  0.3140065411929  0.2052188189762  0.1351372255539 1.0
C      1  0.6096600007710  0.4020925359517  0.4233146323337 1.0
C      1  0.4545231021807  0.4910490174371  0.8556168624755 1.0
C      1  0.7250850859489  0.5245350402429  0.4510855289335 1.0
C      1  0.2673549727487  0.4425199841218  0.5395056268713 1.0
C      1  0.6296650530980  0.2999183981685  0.8045801381346 1.0
C      1  0.2100004792219  0.6136952069497  0.8529942584318 1.0
C      1  0.2290456747809  0.2756834004604  0.6873973453937 1.0
C      1  0.8692457646552  0.2338767900059  0.3266530628224 1.0
C      1  0.2528827031768  0.2911787274629  0.8555336623760 1.0
C      1  0.5353421028789  0.3808058621050  0.5925882038599 1.0
C      1  0.7007812465633  0.2080302004683  0.5265918918454 1.0
C      1  0.2468155794190  0.8357021187258  0.5568936382944 1.0
C      1  0.7558589806396  0.6473623551355  0.9999543070881 1.0
C      1  0.1206020007919  0.6178154032440  0.3965645283244 1.0
C      1  0.3500328037175  0.3974062477926  0.1322148263524 1.0
C      1  0.4665558801796  0.3041112459646  0.0615720788951 1.0
C      1  0.2945563960718  0.1103779454247  0.2568406432005 1.0
C      1  0.8487076412064  0.1849239032859  0.7786757131756 1.0
C      1  0.6878554865823  0.7483075985156  0.7616292502349 1.0
C      1  0.6695552536548  0.6884100668786  0.1392596585158 1.0
C      1  0.2605273571869  0.9064870730528  0.6264728191268 1.0
C      1  0.3718875286478  0.3331077294856  0.7642151724666 1.0
C      1  0.1272526456885  0.2831902613736  0.3036109753255 1.0
C      1  0.2575568561908  0.4677770565382  0.8361083228901 1.0
C      1  0.0966160828559  0.3092662795610  0.4605799106212 1.0
C      1  0.5991906952887  0.6020607755296  0.0286981545895 1.0
C      1  0.8849636469200  0.8699654301855  0.4842659815123 1.0
C      1  0.0824705972773  0.2384589786329  0.6448418103045 1.0
C      1  0.2797105568759  0.6739661328588  0.7242552157413 1.0
C      1  0.5787304082362  0.4021915654199  0.1610219827759 1.0
C      1  0.7814231775417  0.3677074956643  0.0611180683245 1.0
C      1  0.5438516194381  0.2229335800657  0.5890962043782 1.0
C      1  0.1669185407629  0.4392477730445  0.6885386298703 1.0
C      1  0.4543770222523  0.6596096521771  0.0303991278778 1.0
C      1  0.7339465568821  0.5234937975284  0.7003173833068 1.0
C      1  0.7622786371211  0.3424614906442  0.2275996569809 1.0
C      1  0.8271136597376  0.6002390389412  0.2160432961727 1.0
C      1  0.0819508439501  0.3059580168111  0.7169271134045 1.0
C      1  0.0946593411861  0.7761292913474  0.3842386835157 1.0
C      1  0.7272996361431  0.5335347397825  0.9000636649587 1.0
C      1  0.9637139581381  0.5871748966767  0.3513845255543 1.0
C      1  0.5531009587498  0.4992016612091  0.7333011562992 1.0
END
