TITL C-159652-3453-14 -1.042 3375.00 -164.74457663 0 0 21 (C1) n - 1
REM
REM Run started: at 2020.12.04 20:54:50 in /rds/project/t2_vol4/rds-t2-cs072/BORA/CARBON/AIRSS/Generating-Clusters/Str-Search/Only-C1/C10-100
REM VASP from code version vasp.5.4.4.18Apr17-6-g9f103f2a35 (build Oct 11 2019 16:45:47) gamma-only
REM
REM
REM
REM
REM ./C.cell (67c5d0192afd7a3ce4a0888e5fe73b87)
REM AIRSS Version 0.9.1 bugfix July 2018 build 013d7b7c2542+ Fri, 06 Jul 2018 19:26:36 +0100
REM compiler GCC version 4.8.5 20150623 (Red Hat 4.8.5-39)
REM options -cpp -mtune=generic -march=x86-64 -g -O0
REM seed 2118406075 2067892399 1545703025 723719883 -1332446462 2083872125 -99612505 1506563889 2134879599 164442107 25598538 -1123357081
REM
REM C.POTCAR (d86ddea03c3ceb6dc662c8ad6801f873)
REM 
CELL 1.54180   15.00000   15.00000   15.00000   90.00000   90.00000   90.00000
LATT -1
SFAC C  
C      1  0.6179343551885  0.4850801107495  0.5480150105186 1.0
C      1  0.5364747696496  0.5151276708213  0.3482270715380 1.0
C      1  0.5985943658001  0.6131249691057  0.4477749769994 1.0
C      1  0.3900077568392  0.4314249986610  0.5274304661819 1.0
C      1  0.5288595936085  0.3570367873145  0.5202986664281 1.0
C      1  0.5800238174683  0.5942041634699  0.3676636004160 1.0
C      1  0.3674925199372  0.5160861875484  0.3957336330751 1.0
C      1  0.3440307821146  0.4919496749258  0.4736194614005 1.0
C      1  0.4392940537111  0.4412383570251  0.6119995033608 1.0
C      1  0.4409938386982  0.4844471462920  0.3491535578532 1.0
C      1  0.5179868769551  0.3820221070727  0.6086452896912 1.0
C      1  0.5941591729975  0.5812894001117  0.5333317443953 1.0
C      1  0.5962303585856  0.4170617444406  0.4789146146281 1.0
C      1  0.4439039084073  0.3704918589964  0.4708218928586 1.0
C      1  0.5170329558698  0.6011945806083  0.5898672638315 1.0
C      1  0.5003512570251  0.5142577852204  0.6322327451759 1.0
C      1  0.4096546154151  0.7403290229664  0.5949264857874 1.0
C      1  0.5803462525890  0.4568722291032  0.6307263836491 1.0
C      1  0.4656385985334  0.6757609392022  0.5945810525913 1.0
C      1  0.4677073290662  0.3985948099727  0.3857095815885 1.0
C      1  0.5632830215405  0.4324055563921  0.3903268980315 1.0
END
