TITL C-158880-5323-33 -11.653 3375.00 -2332.94259934 0 0 283 (C1) n - 1
REM
REM Run started: at 2020.07.14 21:28:50 in /home/heco/bkarasulu/work/CARBON/AIRSS/Str-Search
REM VASP from code version vasp.5.4.4.18Apr17-6-g9f103f2a35 (build Jul 02 2020 21:03:42) gamma-only
REM
REM
REM
REM
REM ./C.cell (90889e035cd0f9d0e5f9cb6dd9eb5d52)
REM AIRSS Version 0.9.1 bugfix July 2018 build 013d7b7c2542+ Fri, 06 Jul 2018 19:26:36 +0100
REM compiler GCC version 9.2.0
REM options -cpp -mtune=generic -march=x86-64 -g -O0
REM seed -845043817 301455058 863579426 -1061854178 1570125086 1473471702 -1050176470 262100016 -1731124659 724121989 -1221049444 974191415 1820755249 264986947 1449118650 -1534738229 276903737 1419423309 1306234198 36330002 -1320515030 -1533394037 -504811296 -606652483 968337525 -1986643245 -1818516702 1429492906 -538040419 522104340 555623201 223435639 1672187125
REM
REM C.POTCAR (d86ddea03c3ceb6dc662c8ad6801f873)
REM 
CELL 1.54180   15.00000   15.00000   15.00000   90.00000   90.00000   90.00000
LATT -1
SFAC C  
C      1  0.2186337234078  0.2364625206922  0.2428863558894 1.0
C      1  0.8683429331130  0.6915675484996  0.1485795133407 1.0
C      1  0.4479885467100  0.3527943944387  0.7122384168572 1.0
C      1  0.1628213385769  0.6750944500021  0.7599337030685 1.0
C      1  0.4243884989666  0.5589646661298  0.6942820673687 1.0
C      1  0.3218779928761  0.2417483746920  0.1248319062667 1.0
C      1  0.4093314560943  0.3469787847352  0.3129733102090 1.0
C      1  0.9000620921684  0.7196748784435  0.2235964795219 1.0
C      1  0.8604416475433  0.3431038411575  0.2516736552060 1.0
C      1  0.6696158300697  0.5558081428907  0.0850799362282 1.0
C      1  0.4602770247076  0.3661178266353  0.0604106852348 1.0
C      1  0.8340865078552  0.8170234636853  0.4349388135882 1.0
C      1  0.7098549063440  0.4341595503226  0.3643715198653 1.0
C      1  0.6690502318374  0.5287435634989  0.1840063144462 1.0
C      1  0.2005172594606  0.3035598507142  0.7659192477908 1.0
C      1  0.5898316878489  0.0936009207158  0.5387712783634 1.0
C      1  0.4139682135279  0.1166570360058  0.2701807842916 1.0
C      1  0.0074337040944  0.4160187769423  0.3152688495215 1.0
C      1  0.9315219459296  0.3568638955548  0.3191688772186 1.0
C      1  0.6616185655824  0.0516200009312  0.4724551819686 1.0
C      1  0.8408145947374  0.4090703315951  0.5179924940198 1.0
C      1  0.6416922150066  0.7427851108572  0.4872564602659 1.0
C      1  0.2882807000630  0.2387751742485  0.3047521087241 1.0
C      1  0.8191059749995  0.7353995857305  0.2900036585608 1.0
C      1  0.8428436092749  0.6553888759830  0.4443861007071 1.0
C      1  0.4929251323942  0.1914613254354  0.4405392172588 1.0
C      1  0.3215595168013  0.6684127367672  0.3485681438031 1.0
C      1  0.4708129847446  0.2716940490203  0.0635394267427 1.0
C      1  0.5211132859665  0.6184969795641  0.3627484498184 1.0
C      1  0.5704968615096  0.6415856857338  0.8920475700011 1.0
C      1  0.4634656655332  0.9498097431502  0.2678842644496 1.0
C      1  0.2262145066647  0.6650187277915  0.3232697716731 1.0
C      1  0.5319620028304  0.7065122224973  0.1516807073231 1.0
C      1  0.1289251874120  0.7812599699996  0.6692986658773 1.0
C      1  0.2701963669589  0.5082391858972  0.1471154554628 1.0
C      1  0.4470880516948  0.5285863884607  0.0830688378390 1.0
C      1  0.5276397831501  0.0242109069696  0.3833592929137 1.0
C      1  0.3546853241232  0.6894357444609  0.7539085453097 1.0
C      1  0.2093052204004  0.3361257136835  0.4599793502094 1.0
C      1  0.3464169227712  0.5279570975536  0.7282988305021 1.0
C      1  0.7049695639727  0.4051707996360  0.0960511577731 1.0
C      1  0.1625951756562  0.5180149392454  0.6179475643063 1.0
C      1  0.2603870593418  0.1774255073920  0.1589196602738 1.0
C      1  0.1892351196550  0.5245923820689  0.8424106594061 1.0
C      1  0.5414159734455  0.1414973688309  0.1970751698876 1.0
C      1  0.2488650774353  0.9623867124705  0.5401601639682 1.0
C      1  0.7641544489759  0.8989255588462  0.6552359491727 1.0
C      1  0.6847267510292  0.5112921059048  0.5674712461183 1.0
C      1  0.2834389074581  0.9103695368333  0.3101429187941 1.0
C      1  0.8834863100330  0.7428405919535  0.4684794306501 1.0
C      1  0.1357748738028  0.3026731420457  0.6991186237443 1.0
C      1  0.6238527259129  0.5928902833575  0.5630417912720 1.0
C      1  0.2982623532910  0.5982949548732  0.1051997694971 1.0
C      1  0.5363648675141  0.4266595780186  0.8329218908360 1.0
C      1  0.8630670624643  0.2414423361769  0.4079339991236 1.0
C      1  0.1374004068219  0.8459199812114  0.6076741920749 1.0
C      1  0.9526918369447  0.6474794115725  0.5948701280200 1.0
C      1  0.2931683965635  0.2791513350911  0.7372124310948 1.0
C      1  0.4182995077765  0.5589764246990  0.2454479813182 1.0
C      1  0.2743361927069  0.6689535758603  0.1671483595409 1.0
C      1  0.7649135027477  0.3332869941280  0.8441192205074 1.0
C      1  0.4778035457409  0.4362697199866  0.5842149001664 1.0
C      1  0.4856097192241  0.1266619126581  0.7642744264385 1.0
C      1  0.7497441699041  0.2487816805122  0.6704608403626 1.0
C      1  0.9985089705978  0.4023979637001  0.5438295675734 1.0
C      1  0.4509294935507  0.1524586747846  0.1841401252443 1.0
C      1  0.0540467548251  0.3510839627702  0.5982128760845 1.0
C      1  0.6962279793363  0.3546333158603  0.4355140977861 1.0
C      1  0.7431716868614  0.4592744700855  0.6384354960032 1.0
C      1  0.7963522758887  0.6505566340568  0.3471650155621 1.0
C      1  0.3894006736348  0.6104763425484  0.0839636463873 1.0
C      1  0.0758374885362  0.6436412110266  0.3748520785619 1.0
C      1  0.6867158196749  0.6774140213194  0.5474027435169 1.0
C      1  0.6021907851713  0.1635818454278  0.6819274397361 1.0
C      1  0.0649381527449  0.5287139799820  0.6552194948036 1.0
C      1  0.3597797871439  0.7166217851756  0.4304169723473 1.0
C      1  0.5566321952230  0.6292311164460  0.1896001883108 1.0
C      1  0.8112476929619  0.8827341355874  0.5008481958307 1.0
C      1  0.8130991885640  0.4279536876817  0.2261631196647 1.0
C      1  0.9895607719645  0.4957563567979  0.5895868193043 1.0
C      1  0.4306404589170  0.6916405157905  0.1250731205583 1.0
C      1  0.5194812369074  0.8025873094364  0.3260654748124 1.0
C      1  0.7885057627662  0.4965195458370  0.8785466510213 1.0
C      1  0.3128471855661  0.4211715661671  0.1155836487257 1.0
C      1  0.2098230637437  0.8696879945494  0.3182265425179 1.0
C      1  0.4879192640533  0.5106466853606  0.9893469915219 1.0
C      1  0.7369274828687  0.1729362254985  0.6075209862446 1.0
C      1  0.5747428309545  0.5552456668639  0.3165389149989 1.0
C      1  0.7928913271786  0.5518625243680  0.3381690056776 1.0
C      1  0.2122320514401  0.5643414018952  0.5416036084706 1.0
C      1  0.8069639208910  0.4875922625369  0.7808150860651 1.0
C      1  0.4238204534869  0.0652913860403  0.6016231486127 1.0
C      1  0.4601010485985  0.8064495039330  0.6482808986538 1.0
C      1  0.5649829914171  0.5052286634863  0.7802416820800 1.0
C      1  0.4700524109285  0.4281067109557  0.3274892391322 1.0
C      1  0.7493033096630  0.5438305543949  0.4963932638873 1.0
C      1  0.8528988569273  0.6097517340688  0.7666297845526 1.0
C      1  0.2281131409507  0.0443596990389  0.5830689289340 1.0
C      1  0.0749953857945  0.4554944378396  0.7332731894427 1.0
C      1  0.6160374229106  0.3414555113885  0.6215351398077 1.0
C      1  0.1927989451648  0.2791988846364  0.5333479313433 1.0
C      1  0.2749502617946  0.3331710759522  0.1335755592709 1.0
C      1  0.4479980401379  0.5797301760842  0.4066042093161 1.0
C      1  0.0517062448742  0.6284749633624  0.4705711742459 1.0
C      1  0.3828180639646  0.6559731976080  0.2688820746156 1.0
C      1  0.5948126744978  0.8626130032154  0.3460270966112 1.0
C      1  0.4727337387433  0.7722364738078  0.5523508334754 1.0
C      1  0.3637127823253  0.7101978244825  0.1919187254753 1.0
C      1  0.3391302547720  0.9495400088471  0.5081000563320 1.0
C      1  0.1838732601347  0.0973140588258  0.6413369530837 1.0
C      1  0.5839157883754  0.3029008554638  0.9392356995675 1.0
C      1  0.5392097557688  0.1058286797135  0.4499601945292 1.0
C      1  0.2090130230426  0.7441027538345  0.7112946878598 1.0
C      1  0.6788605562297  0.8067116486799  0.3337903616580 1.0
C      1  0.6233619001802  0.2979546896639  0.4517944946935 1.0
C      1  0.3625341382659  0.6319507138900  0.5618480678101 1.0
C      1  0.3034266996839  0.4483683147195  0.6918649424260 1.0
C      1  0.7730526303403  0.5796883037681  0.8290084833362 1.0
C      1  0.1723038183275  0.7204448725171  0.4723221011395 1.0
C      1  0.7154850050597  0.3193473493520  0.1208288978749 1.0
C      1  0.5451599737365  0.7163724985534  0.3571972864838 1.0
C      1  0.4793608723576  0.3364274881705  0.3659652890415 1.0
C      1  0.1820337481115  0.1568981239309  0.1896932800593 1.0
C      1  0.4657611928969  0.3746369640377  0.8038539905666 1.0
C      1  0.5870014739378  0.4707444931977  0.9823270811534 1.0
C      1  0.3489062362192  0.4066912494288  0.4805140133338 1.0
C      1  0.4114227874925  0.6431443860794  0.4701943232093 1.0
C      1  0.1825304144714  0.4186284083290  0.4021916031133 1.0
C      1  0.6756447099001  0.7125925992683  0.6407440559332 1.0
C      1  0.8373027321784  0.4488359986234  0.6102015739492 1.0
C      1  0.1912791338860  0.3724759200352  0.8318118858747 1.0
C      1  0.3082378282726  0.7671626403894  0.5003007602306 1.0
C      1  0.6922999809348  0.6396117366424  0.3509606455502 1.0
C      1  0.6901434893824  0.7176096460675  0.0935716144111 1.0
C      1  0.7977857852466  0.2110400115196  0.7464762719757 1.0
C      1  0.5371016966871  0.7701182016076  0.7129073753559 1.0
C      1  0.3674851031778  0.2275984579623  0.7770996612980 1.0
C      1  0.8239849343617  0.6816523218055  0.7035721459759 1.0
C      1  0.6928564440351  0.6216091980592  0.7834505478717 1.0
C      1  0.8027552893997  0.2668360829165  0.2575156698959 1.0
C      1  0.4647670663522  0.6680159950092  0.5489154809171 1.0
C      1  0.8506327656093  0.6568364405225  0.6062507480695 1.0
C      1  0.5928043056203  0.9063019988135  0.5559697954201 1.0
C      1  0.6591565516553  0.4729772759229  0.0430420371697 1.0
C      1  0.7714116297292  0.8399035455140  0.7315683852635 1.0
C      1  0.2934031081786  0.7049159342277  0.5818120019412 1.0
C      1  0.5772399812478  0.7978175249852  0.5463451995806 1.0
C      1  0.1813613794975  0.5000255651044  0.1955648198743 1.0
C      1  0.5534552348374  0.2250597487301  0.9039113679248 1.0
C      1  0.2956912900407  0.7298286438987  0.6797056236023 1.0
C      1  0.4648946245678  0.0339878666623  0.3030832041181 1.0
C      1  0.5285464997387  0.3890458872537  0.6546987434167 1.0
C      1  0.6655620736255  0.1180939796192  0.3190803156622 1.0
C      1  0.1090180727718  0.4166772827990  0.3252593704955 1.0
C      1  0.3052974092754  0.2812435942679  0.6412306053410 1.0
C      1  0.3645267295423  0.7486601147927  0.8352431550114 1.0
C      1  0.3735065568941  0.8860689487851  0.4423421871060 1.0
C      1  0.7838332331278  0.8065503418833  0.3541883246356 1.0
C      1  0.7232455713278  0.6733133696888  0.7146791356099 1.0
C      1  0.3467558479892  0.3581338429797  0.6875213979908 1.0
C      1  0.6057609394363  0.1620253990919  0.2542832709480 1.0
C      1  0.2076142830689  0.3286497019288  0.1979254447179 1.0
C      1  0.9195210786245  0.3158167966215  0.4020626957938 1.0
C      1  0.3937769698696  0.1890013074651  0.4182749330148 1.0
C      1  0.5070441997367  0.9527735057317  0.5915362772201 1.0
C      1  0.4473301410691  0.8659914108599  0.2989547573928 1.0
C      1  0.6251119361998  0.6487576259593  0.9593617619923 1.0
C      1  0.7786532663244  0.6373781932643  0.5257883631844 1.0
C      1  0.7147584882640  0.5431313777836  0.4002330816401 1.0
C      1  0.5314957364393  0.2455470650415  0.9952669299259 1.0
C      1  0.2015340265099  0.6609236436071  0.5467673450347 1.0
C      1  0.4010249873912  0.8005300169290  0.4801878935657 1.0
C      1  0.6413892918620  0.9491816159203  0.4710443607319 1.0
C      1  0.5486580345491  0.2686227456412  0.3875381579404 1.0
C      1  0.4291315886664  0.2908516702728  0.5316136508378 1.0
C      1  0.5281517882914  0.2111408435484  0.8073440215062 1.0
C      1  0.4744752176139  0.8970251713022  0.6695177320890 1.0
C      1  0.7570855154497  0.7561454500910  0.2168227043427 1.0
C      1  0.7430368616826  0.4550102249197  0.1729306630129 1.0
C      1  0.8974640518306  0.5689854214090  0.4648514441466 1.0
C      1  0.2226218191489  0.5159524945068  0.4467870230296 1.0
C      1  0.5010428650374  0.4149191119715  0.9911980241802 1.0
C      1  0.8119652039786  0.2547356264214  0.8295069617579 1.0
C      1  0.1052352267075  0.6830018049535  0.5259866831515 1.0
C      1  0.5033625056726  0.2418225448923  0.5277619688635 1.0
C      1  0.6857647678829  0.4061840627904  0.5799714979470 1.0
C      1  0.3111100195885  0.6016608137140  0.7954548347654 1.0
C      1  0.3083471880777  0.4850270833506  0.4866244084004 1.0
C      1  0.4917706877253  0.5258859920921  0.6261326807475 1.0
C      1  0.3500460490125  0.2495450925061  0.4847092120147 1.0
C      1  0.7863740824420  0.1596506447740  0.5231237919876 1.0
C      1  0.4986324570609  0.5469881058520  0.1749288054520 1.0
C      1  0.8834900216757  0.5280917573082  0.7361487342849 1.0
C      1  0.5938679110963  0.2507673699660  0.2977451058143 1.0
C      1  0.1256614466552  0.2884308477286  0.6004814541637 1.0
C      1  0.3060476400095  0.3278489319718  0.4380526447531 1.0
C      1  0.4868899980712  0.9261872896333  0.7654771662330 1.0
C      1  0.2056675033652  0.6540617584443  0.2271329802419 1.0
C      1  0.1357866082261  0.4535578388593  0.8082371594215 1.0
C      1  0.7445192223395  0.1081396552551  0.4557465996397 1.0
C      1  0.7949102399911  0.4676627100255  0.3116524561151 1.0
C      1  0.2617290676222  0.5776442882345  0.3674803709948 1.0
C      1  0.6126632754621  0.0784887363961  0.3867092036133 1.0
C      1  0.4439520047537  0.6450611785653  0.7296061625136 1.0
C      1  0.4012946700083  0.4338057437924  0.0945423543161 1.0
C      1  0.1924523764607  0.8800030846722  0.5445979216181 1.0
C      1  0.9076862854951  0.4909007137668  0.6497170774746 1.0
C      1  0.0449759487993  0.4940581174245  0.3147196480542 1.0
C      1  0.3640138564563  0.8868806190615  0.3487174486026 1.0
C      1  0.4307480591680  0.5637999629431  0.9208623951385 1.0
C      1  0.0816732468826  0.6952930934737  0.7073907904331 1.0
C      1  0.3126616266838  0.5521192325930  0.5504354580928 1.0
C      1  0.7471869297204  0.1407035976480  0.3620681817274 1.0
C      1  0.7212632971719  0.2839853291845  0.2027769804218 1.0
C      1  0.6415667243905  0.7221567417641  0.3881670727222 1.0
C      1  0.0687143892198  0.3718078002922  0.6923048718606 1.0
C      1  0.4139653887772  0.9877665739835  0.5494487394887 1.0
C      1  0.6397976622852  0.4037971261486  0.3043502538159 1.0
C      1  0.5600215321422  0.4593354128060  0.2921423582848 1.0
C      1  0.3090107309018  0.5005478389637  0.3186066324223 1.0
C      1  0.4121848010493  0.2173030149048  0.1195719371367 1.0
C      1  0.7403650535736  0.4408686179783  0.7324293153958 1.0
C      1  0.4222410985400  0.3862067406756  0.5348084697390 1.0
C      1  0.3624725372835  0.1123993587047  0.6540124351205 1.0
C      1  0.7490314846495  0.3677616184242  0.5123107512124 1.0
C      1  0.4500234132099  0.2786683662061  0.7951267164316 1.0
C      1  0.1738666615911  0.8125964335917  0.3772003309358 1.0
C      1  0.9103339912140  0.7359624955062  0.5638067029189 1.0
C      1  0.2691795545001  0.4880648147315  0.8892830511443 1.0
C      1  0.2534907723392  0.4145815886578  0.3246143786446 1.0
C      1  0.8383436651235  0.5027387452515  0.4858774544332 1.0
C      1  0.6915634902060  0.9145657758265  0.5974364443248 1.0
C      1  0.3128889961032  0.3314903053145  0.3363887280716 1.0
C      1  0.9271256494184  0.3609936903677  0.4926227068558 1.0
C      1  0.7223971563756  0.9096765394999  0.5071157420442 1.0
C      1  0.5431867231068  0.0931945724362  0.6998666137141 1.0
C      1  0.3605405381360  0.1724159315974  0.3315914065422 1.0
C      1  0.6642571904465  0.3001504179102  0.7059307022984 1.0
C      1  0.6392112443997  0.5994956759797  0.2550519494121 1.0
C      1  0.6221182350779  0.7593236463352  0.1539993165480 1.0
C      1  0.0292238887369  0.6311882966769  0.6636117349487 1.0
C      1  0.5497807277291  0.4804757263035  0.6940864970774 1.0
C      1  0.9781965083565  0.5794759502472  0.5188047591073 1.0
C      1  0.5709924465655  0.4790787624833  0.1936307710528 1.0
C      1  0.5929451183188  0.6085158781139  0.7978317624362 1.0
C      1  0.0751770452092  0.5830049158692  0.3025883967960 1.0
C      1  0.5673544530518  0.3972192656995  0.9196433737390 1.0
C      1  0.6461069731047  0.3156714055411  0.2637211414427 1.0
C      1  0.5816946719204  0.9380320963528  0.3947400352065 1.0
C      1  0.7628068082602  0.1374451022827  0.7021666225783 1.0
C      1  0.2746749477727  0.1314637750434  0.6065942487624 1.0
C      1  0.2151422132488  0.8093839177005  0.4743705852566 1.0
C      1  0.3942080453441  0.1442144396994  0.7401462264948 1.0
C      1  0.8410545005724  0.8823545402494  0.5915081806765 1.0
C      1  0.3318238994993  0.5180268953744  0.2259180197404 1.0
C      1  0.6028096644457  0.2311087672795  0.7413519293461 1.0
C      1  0.6346383311651  0.1727948626268  0.5888681362998 1.0
C      1  0.4233040220172  0.7232744785096  0.8888932026697 1.0
C      1  0.4126698118396  0.5116487133959  0.3416823628209 1.0
C      1  0.5988305069926  0.2656553045339  0.5489365164660 1.0
C      1  0.5237169350734  0.0505450692822  0.6143780636455 1.0
C      1  0.8431254417407  0.7821851158799  0.7087808172470 1.0
C      1  0.6728924366800  0.7863280788564  0.2333829592786 1.0
C      1  0.7090538961930  0.3636347916896  0.7673324444725 1.0
C      1  0.8503752011210  0.2226537336273  0.4990915602236 1.0
C      1  0.2661464399296  0.3938161666049  0.8884167213287 1.0
C      1  0.5336972875704  0.5998793449994  0.5749788722718 1.0
C      1  0.5285673053990  0.6742657999967  0.7451428613137 1.0
C      1  0.2788229529299  0.2273668034759  0.5620445710313 1.0
C      1  0.1549446412136  0.7105950827260  0.3757853360658 1.0
C      1  0.6603368191065  0.6415677871703  0.0402584557702 1.0
C      1  0.7756848992326  0.7183021472967  0.1329920163804 1.0
C      1  0.7829947136897  0.4111556824226  0.8995320543847 1.0
C      1  0.6042207205903  0.7654411539774  0.6394055677965 1.0
C      1  0.2095266285001  0.6062376600790  0.8022640154673 1.0
C      1  0.3433671184017  0.5513530182113  0.8834184792571 1.0
C      1  0.1428527287742  0.5793135638889  0.2285298738359 1.0
C      1  0.8852425500961  0.8078814020990  0.6245726626554 1.0
C      1  0.4734087960195  0.6485821891657  0.9087036174046 1.0
C      1  0.2225002547597  0.4685382716340  0.6600750692123 1.0
C      1  0.1787715115602  0.4115286239446  0.2482270211781 1.0
C      1  0.5382222962320  0.8570455098440  0.7611299654834 1.0
C      1  0.8082095208384  0.2101595884611  0.3358845112694 1.0
END
