TITL C-153043-6840-15 -2.661 3375.00 -436.66084523 0 0 55 (C1) n - 1
REM
REM Run started: at 2020.12.26 16:01:47 in /rds/project/t2_vol4/rds-t2-cs072/BORA/CARBON/AIRSS/Generating-Clusters/Str-Search/Only-C1/C10-100
REM VASP from code version vasp.5.4.4.18Apr17-6-g9f103f2a35 (build Oct 11 2019 16:45:47) gamma-only
REM
REM
REM
REM
REM ./C.cell (67c5d0192afd7a3ce4a0888e5fe73b87)
REM AIRSS Version 0.9.1 bugfix July 2018 build 013d7b7c2542+ Fri, 06 Jul 2018 19:26:36 +0100
REM compiler GCC version 4.8.5 20150623 (Red Hat 4.8.5-39)
REM options -cpp -mtune=generic -march=x86-64 -g -O0
REM seed 98962763 -612838985 -1092804513 2140167464 -2106505414 550741563 539114946 451784827 2146994043 -315700407 -1357496377 1934182376
REM
REM C.POTCAR (d86ddea03c3ceb6dc662c8ad6801f873)
REM 
CELL 1.54180   15.00000   15.00000   15.00000   90.00000   90.00000   90.00000
LATT -1
SFAC C  
C      1  0.4641986136722  0.5124137310055  0.4422774091034 1.0
C      1  0.6044442692868  0.5002107408655  0.5961829991328 1.0
C      1  0.3390858628536  0.5834223586652  0.6271994485938 1.0
C      1  0.4070298894370  0.2935162805621  0.5710087318299 1.0
C      1  0.5137227209523  0.5515018338021  0.2576558715783 1.0
C      1  0.4426377994716  0.4035265439950  0.2906281680088 1.0
C      1  0.6309647644651  0.6973618636326  0.4877344336994 1.0
C      1  0.3535581991177  0.7153583693142  0.5325687465469 1.0
C      1  0.6150318627426  0.3852783002999  0.3261512517189 1.0
C      1  0.3788630814008  0.5212526467987  0.3810964149255 1.0
C      1  0.5219630876030  0.7949283801537  0.5280950585980 1.0
C      1  0.3293717708687  0.6680812940635  0.4528900424474 1.0
C      1  0.6082282133890  0.7689946397362  0.5526357467287 1.0
C      1  0.7202392359236  0.3247939166255  0.5432208011348 1.0
C      1  0.5568829103077  0.6678120048775  0.4374266923571 1.0
C      1  0.4260919132243  0.3925867554181  0.5716096571471 1.0
C      1  0.5776481883845  0.5438999764613  0.3240930933693 1.0
C      1  0.4736501405243  0.5153641627663  0.7444391558169 1.0
C      1  0.4173079129274  0.4376668859003  0.6512022325299 1.0
C      1  0.4797968358276  0.4438474745888  0.5021953106927 1.0
C      1  0.4307382395506  0.7676048794613  0.5120561457661 1.0
C      1  0.4390561678497  0.4272049999767  0.7483758750623 1.0
C      1  0.4368653934688  0.5655296269136  0.2199017219789 1.0
C      1  0.6335273060863  0.4756022895574  0.3536384694650 1.0
C      1  0.6760252551581  0.6456095423993  0.5521317384219 1.0
C      1  0.5565840115876  0.2675760349251  0.4175953513694 1.0
C      1  0.5491261260808  0.5692902213679  0.4180653849934 1.0
C      1  0.2721406489014  0.4848938689733  0.4988377479806 1.0
C      1  0.5648787532898  0.5486559740283  0.7562087253702 1.0
C      1  0.6246526549139  0.5127210598385  0.6865391913513 1.0
C      1  0.4075206778128  0.5305935785788  0.6712888990080 1.0
C      1  0.5580983329653  0.2697675610185  0.5145463533932 1.0
C      1  0.3113866563401  0.4525524809555  0.4201562856025 1.0
C      1  0.5794130014864  0.4376079880439  0.5208480647944 1.0
C      1  0.4973015187956  0.7390339472309  0.4529447829657 1.0
C      1  0.6325584506839  0.6977055178537  0.7095409015016 1.0
C      1  0.2887021616741  0.5341478233590  0.5642100368760 1.0
C      1  0.3235964325907  0.2681971157268  0.5353759835899 1.0
C      1  0.3530236463694  0.6768035480323  0.6178973502712 1.0
C      1  0.6728769447181  0.5502395619031  0.5449193501320 1.0
C      1  0.3252792191045  0.3595003606747  0.4027831181181 1.0
C      1  0.4191563005257  0.4952490425218  0.2890396041510 1.0
C      1  0.6274362278333  0.5043464162678  0.4557445302217 1.0
C      1  0.6247831220822  0.3447448419692  0.5304106759697 1.0
C      1  0.6506901517673  0.7149322051432  0.6221039730455 1.0
C      1  0.4861936692668  0.2542096274579  0.5647548645546 1.0
C      1  0.3484218169999  0.6128820988790  0.3949354296668 1.0
C      1  0.7056630452586  0.5021025143488  0.6394427244167 1.0
C      1  0.4027381023067  0.3381748657414  0.3505542568993 1.0
C      1  0.6404022402051  0.3161486637244  0.3884573524584 1.0
C      1  0.2881122423233  0.2996965230369  0.4670968017569 1.0
C      1  0.5281089540324  0.3603403770261  0.2956034536176 1.0
C      1  0.4893060789815  0.2900724380290  0.3563302535842 1.0
C      1  0.7022303034927  0.3291223291010  0.4569070559655 1.0
C      1  0.5926888731169  0.6353218164027  0.7504458797207 1.0
END
