TITL C-159652-3453-10 -4.393 3375.00 -740.30965126 0 0 90 (C1) n - 1
REM
REM Run started: at 2020.12.04 19:42:17 in /rds/project/t2_vol4/rds-t2-cs072/BORA/CARBON/AIRSS/Generating-Clusters/Str-Search/Only-C1/C10-100
REM VASP from code version vasp.5.4.4.18Apr17-6-g9f103f2a35 (build Oct 11 2019 16:45:47) gamma-only
REM
REM
REM
REM
REM ./C.cell (67c5d0192afd7a3ce4a0888e5fe73b87)
REM AIRSS Version 0.9.1 bugfix July 2018 build 013d7b7c2542+ Fri, 06 Jul 2018 19:26:36 +0100
REM compiler GCC version 4.8.5 20150623 (Red Hat 4.8.5-39)
REM options -cpp -mtune=generic -march=x86-64 -g -O0
REM seed 1443689507 -152315412 149078818 323690734 120006802 -616411750 1432523877 485160666 -626686608 -617828908 1302183602 -1678404243
REM
REM C.POTCAR (d86ddea03c3ceb6dc662c8ad6801f873)
REM 
CELL 1.54180   15.00000   15.00000   15.00000   90.00000   90.00000   90.00000
LATT -1
SFAC C  
C      1  0.3272353872495  0.2653354725320  0.5579256721421 1.0
C      1  0.4376477605401  0.7809807326959  0.5782683354709 1.0
C      1  0.3212852577099  0.3298431494643  0.3073607073493 1.0
C      1  0.5337163576424  0.7429606857647  0.3543692814000 1.0
C      1  0.4465398943084  0.5311089100706  0.7439465419397 1.0
C      1  0.7792858925614  0.3564092172819  0.4082902757568 1.0
C      1  0.5442987724704  0.3985067721556  0.7572541476415 1.0
C      1  0.5904138242094  0.5967233175990  0.4455138168938 1.0
C      1  0.5093204429484  0.7663559222935  0.4430065384041 1.0
C      1  0.6736950130024  0.6036559087671  0.6821016128270 1.0
C      1  0.5214431868399  0.2652756360362  0.4064457365211 1.0
C      1  0.4508019890812  0.2961938663875  0.6776793570872 1.0
C      1  0.3704700561777  0.5268733153889  0.4402085354383 1.0
C      1  0.3562979357307  0.2683035198919  0.3722304798634 1.0
C      1  0.7145103755434  0.3912115454466  0.5994783331456 1.0
C      1  0.5949874383740  0.2448525329783  0.4717904628713 1.0
C      1  0.2727569840879  0.5525896750498  0.3106544752486 1.0
C      1  0.4620279034314  0.7081531766380  0.3048616414306 1.0
C      1  0.4088068278455  0.2465420148842  0.6063228602233 1.0
C      1  0.6127284556939  0.2843884930178  0.6593529639637 1.0
C      1  0.5072100733251  0.4062918589337  0.2915537528513 1.0
C      1  0.6664374020790  0.7148079470723  0.5565943703115 1.0
C      1  0.8245738350934  0.4373159628482  0.4394063666980 1.0
C      1  0.5617264411744  0.7274949605072  0.6770069901057 1.0
C      1  0.3036288527282  0.4826493164675  0.4806768386876 1.0
C      1  0.6208748947339  0.4567446696504  0.7523776819784 1.0
C      1  0.7637086918042  0.5847631928363  0.5371975128832 1.0
C      1  0.2161234417330  0.5978547592988  0.5054384124785 1.0
C      1  0.4647427149825  0.4336805098662  0.5421267372669 1.0
C      1  0.7185115589282  0.6626255085090  0.4995652293027 1.0
C      1  0.5406424381267  0.3080282212006  0.7143819785379 1.0
C      1  0.6383009821722  0.3845689505897  0.5428457374859 1.0
C      1  0.7350186373895  0.4868314314454  0.3195932422752 1.0
C      1  0.3849823227380  0.6583190867878  0.3202042202654 1.0
C      1  0.5479435909883  0.3882993104874  0.5484554061110 1.0
C      1  0.2220860192651  0.5763099995572  0.5970175578869 1.0
C      1  0.4343242701057  0.4296541999566  0.2361980355806 1.0
C      1  0.7007251186917  0.4171834009258  0.7186989363264 1.0
C      1  0.6817395860728  0.2351520623690  0.4454892146050 1.0
C      1  0.8051924784775  0.5263707916514  0.4748965766224 1.0
C      1  0.5893675663660  0.2963146036906  0.5592095326273 1.0
C      1  0.6112475311975  0.5526678065904  0.7389354612009 1.0
C      1  0.5793501639890  0.4744540978566  0.3275136923453 1.0
C      1  0.4207187055718  0.7723915255072  0.4848453040967 1.0
C      1  0.2989478799439  0.4270427346308  0.5663153274921 1.0
C      1  0.3912635922746  0.4160926162305  0.5976802276924 1.0
C      1  0.6261454253541  0.3865943043387  0.3478904289320 1.0
C      1  0.4429669766473  0.5103030088167  0.1917835247617 1.0
C      1  0.7382659817440  0.5554418461171  0.6269865422170 1.0
C      1  0.4008780104526  0.2244851933917  0.5155403076830 1.0
C      1  0.3694200718455  0.7178040565507  0.6075829201364 1.0
C      1  0.4636420287712  0.5145690999247  0.4779350905795 1.0
C      1  0.7584759767690  0.2722653357549  0.4409686677462 1.0
C      1  0.4432109052506  0.5908635953302  0.1682990018281 1.0
C      1  0.6602711319818  0.5361834203561  0.2939326802120 1.0
C      1  0.2812076185467  0.5596590022687  0.6738993778424 1.0
C      1  0.7179566598771  0.3930943115624  0.3410328014887 1.0
C      1  0.4302161054680  0.2407338711891  0.4254094212976 1.0
C      1  0.6676646266984  0.6306889895536  0.3125463473021 1.0
C      1  0.2194313736236  0.3439089679669  0.4529932534397 1.0
C      1  0.5732937050283  0.7443582404634  0.5234281079737 1.0
C      1  0.1751440588397  0.4255956519629  0.4429986050850 1.0
C      1  0.3408850412179  0.4040598156613  0.2557232908800 1.0
C      1  0.4991596471449  0.6774751328905  0.7259642606893 1.0
C      1  0.6679027326420  0.6491143362776  0.4119966713861 1.0
C      1  0.4286018735417  0.6504565945025  0.2388734702664 1.0
C      1  0.8032075232055  0.5100132266861  0.3828329631495 1.0
C      1  0.2663175806863  0.3335003482779  0.5390631927159 1.0
C      1  0.2806046797637  0.6577546459533  0.4588987849997 1.0
C      1  0.5454648296175  0.5245731191192  0.4128823416514 1.0
C      1  0.5255650124978  0.7753605499425  0.6037689518925 1.0
C      1  0.4586536249501  0.4385815230275  0.7435091739755 1.0
C      1  0.5435381041038  0.3350242529662  0.3458842640301 1.0
C      1  0.2464037895141  0.4894214031898  0.6275577666857 1.0
C      1  0.3728010776204  0.5826670626305  0.6982845730673 1.0
C      1  0.3245190788568  0.6056446090512  0.3793995323877 1.0
C      1  0.6197341356231  0.7024314540965  0.3412726236948 1.0
C      1  0.2702141700178  0.3037867626466  0.3821576162344 1.0
C      1  0.6467971585553  0.6892997199012  0.6499667692090 1.0
C      1  0.4057752211634  0.6226644022889  0.6058112732299 1.0
C      1  0.5225234376725  0.5890297350899  0.7527933977793 1.0
C      1  0.3325941416639  0.7234045917897  0.5006626148913 1.0
C      1  0.2089750991421  0.5059483893229  0.4627038410863 1.0
C      1  0.4078216688232  0.3789810088567  0.6876889913159 1.0
C      1  0.4038736738431  0.6762964185671  0.6958741256406 1.0
C      1  0.4746310988840  0.5940962351149  0.5450715225367 1.0
C      1  0.2902884161356  0.4828726913381  0.2697114558632 1.0
C      1  0.7500379980131  0.4656603632385  0.6496620699042 1.0
C      1  0.5428029574826  0.6445480028179  0.5139147919145 1.0
C      1  0.6944567253199  0.3306119193959  0.6735560710642 1.0
END
