TITL C-159652-3453-13 -3.979 3375.00 -679.57242965 0 0 83 (C1) n - 1
REM
REM Run started: at 2020.12.04 20:48:25 in /rds/project/t2_vol4/rds-t2-cs072/BORA/CARBON/AIRSS/Generating-Clusters/Str-Search/Only-C1/C10-100
REM VASP from code version vasp.5.4.4.18Apr17-6-g9f103f2a35 (build Oct 11 2019 16:45:47) gamma-only
REM
REM
REM
REM
REM ./C.cell (67c5d0192afd7a3ce4a0888e5fe73b87)
REM AIRSS Version 0.9.1 bugfix July 2018 build 013d7b7c2542+ Fri, 06 Jul 2018 19:26:36 +0100
REM compiler GCC version 4.8.5 20150623 (Red Hat 4.8.5-39)
REM options -cpp -mtune=generic -march=x86-64 -g -O0
REM seed 1068783251 521313560 1952694726 -1578194561 -2049353239 187567502 761357318 954516227 1981299118 371111980 1120870939 704321906
REM
REM C.POTCAR (d86ddea03c3ceb6dc662c8ad6801f873)
REM 
CELL 1.54180   15.00000   15.00000   15.00000   90.00000   90.00000   90.00000
LATT -1
SFAC C  
C      1  0.6969632259308  0.3169064747641  0.4075492320681 1.0
C      1  0.3174444261753  0.3488144012393  0.6378007276590 1.0
C      1  0.3259027378079  0.4078549278998  0.7139352702499 1.0
C      1  0.2742526853924  0.6206433353924  0.4781892057113 1.0
C      1  0.2996585320762  0.5723058332696  0.3158363216952 1.0
C      1  0.4259059820920  0.6645735492316  0.3569505932535 1.0
C      1  0.5988107998724  0.5409684832249  0.2170924331822 1.0
C      1  0.4356345623544  0.5458198244311  0.5186837865898 1.0
C      1  0.3106509588582  0.4188180282427  0.3173200019090 1.0
C      1  0.6202103568942  0.5959125954977  0.6882428180681 1.0
C      1  0.5196762126819  0.3251152166051  0.3766758650498 1.0
C      1  0.4440494930659  0.6620834574809  0.6487090813898 1.0
C      1  0.6865261904141  0.4395203383768  0.6208960938161 1.0
C      1  0.3362907638216  0.5685316023249  0.7171611368795 1.0
C      1  0.4660458569161  0.2461742793787  0.4791996482449 1.0
C      1  0.7590584633436  0.4955012869070  0.4806299873516 1.0
C      1  0.5675660437348  0.5576031389804  0.6130499365232 1.0
C      1  0.6074995877590  0.4816397791486  0.5751995493400 1.0
C      1  0.5028194906107  0.5515025196407  0.2360127489969 1.0
C      1  0.7136776809577  0.6052591664760  0.6706228995660 1.0
C      1  0.7382172529879  0.5161574237327  0.3838392761189 1.0
C      1  0.7450602418490  0.4183867677032  0.5367403039043 1.0
C      1  0.6232306470186  0.7202360609359  0.4709128048998 1.0
C      1  0.7328758510714  0.3326721467685  0.4985055500153 1.0
C      1  0.6370075704952  0.3849986336866  0.6932606041639 1.0
C      1  0.6993276979309  0.5129321702048  0.6961509102883 1.0
C      1  0.4118317820919  0.7824206938914  0.5476209552636 1.0
C      1  0.7227392283046  0.6365660221809  0.5812824865851 1.0
C      1  0.5536369173792  0.5026274246950  0.7897223212661 1.0
C      1  0.4480897212830  0.5955897898223  0.4325990617340 1.0
C      1  0.4177149968588  0.3267127535430  0.4038186187079 1.0
C      1  0.4506622096112  0.3897990497449  0.2555444749128 1.0
C      1  0.6965380005574  0.2485135459324  0.5333582600610 1.0
C      1  0.3656005551828  0.2919280646715  0.5908642306586 1.0
C      1  0.4833527452225  0.5862288919740  0.5934649886868 1.0
C      1  0.6579788196416  0.7029681601210  0.5556158197744 1.0
C      1  0.5097510043086  0.6295753656472  0.3053720929387 1.0
C      1  0.4096199215389  0.4579068598481  0.5216380185498 1.0
C      1  0.6214868960529  0.3742440282993  0.2614481256278 1.0
C      1  0.4970921315849  0.2728187933956  0.6496886649020 1.0
C      1  0.4749676094979  0.6322421280761  0.7440502581836 1.0
C      1  0.6494292689358  0.4635931677000  0.2391043122711 1.0
C      1  0.5660603819512  0.4929645003356  0.4075845268887 1.0
C      1  0.4314590605420  0.4857816411299  0.2363924556574 1.0
C      1  0.2843909390310  0.4922035892335  0.6946798386534 1.0
C      1  0.2748242897578  0.5522068331845  0.4056777038596 1.0
C      1  0.6072430795464  0.6656345841072  0.3039074094042 1.0
C      1  0.6534746971225  0.6780149478777  0.3897817493178 1.0
C      1  0.4587114802123  0.4798488682690  0.7879966592877 1.0
C      1  0.3398096303577  0.4968793203335  0.2718323399405 1.0
C      1  0.3617826599671  0.4013880054385  0.4574127599502 1.0
C      1  0.7183430958340  0.4590828751443  0.3126321281434 1.0
C      1  0.2808205763517  0.5994628234188  0.5763359444411 1.0
C      1  0.4745249533243  0.3316425088775  0.7212709995879 1.0
C      1  0.5701877568631  0.7366719414001  0.5501733473446 1.0
C      1  0.3338501078366  0.7703766795843  0.5185142710425 1.0
C      1  0.2397234955805  0.5160224664188  0.6117862661735 1.0
C      1  0.2014517776418  0.4606770393085  0.5479244567071 1.0
C      1  0.6409695890378  0.2498230138699  0.4528424510566 1.0
C      1  0.5632610344183  0.3275012311570  0.6899917364701 1.0
C      1  0.1987776180796  0.4336930998734  0.4685122051781 1.0
C      1  0.4144448078446  0.3995511942429  0.7552945566048 1.0
C      1  0.3798351318650  0.3552030541060  0.3131486882907 1.0
C      1  0.5644090141839  0.4023420094961  0.4168846932951 1.0
C      1  0.3410343295555  0.6332279121343  0.6455067994311 1.0
C      1  0.4814612035661  0.7423701144671  0.5907676492667 1.0
C      1  0.3435562612427  0.7212907936722  0.3676277746029 1.0
C      1  0.3383212166775  0.6566632428713  0.3063699367313 1.0
C      1  0.5326863616000  0.3489453247739  0.2784495823528 1.0
C      1  0.2788504861468  0.4467402745495  0.4099112356356 1.0
C      1  0.3568511068328  0.3838327423318  0.5538381983462 1.0
C      1  0.5484221495021  0.2478295487533  0.4335806318643 1.0
C      1  0.6938861311755  0.3648098803539  0.3285335719403 1.0
C      1  0.6335415584502  0.4605230556897  0.7527878249744 1.0
C      1  0.5588440367897  0.5977224911441  0.7637743356431 1.0
C      1  0.6505683403306  0.6206025649812  0.2373095401055 1.0
C      1  0.4130190891995  0.5630828112694  0.7697946478955 1.0
C      1  0.4462249526290  0.2455794144165  0.5721560752618 1.0
C      1  0.7492716692016  0.5896695533733  0.5023279570134 1.0
C      1  0.5186549319156  0.5686006992360  0.3837322102119 1.0
C      1  0.7193732459146  0.6114287449894  0.4125112460227 1.0
C      1  0.5811189356453  0.4540368398990  0.4912476346423 1.0
C      1  0.3011033961113  0.7114055832007  0.4548367837056 1.0
END
