TITL C-151104-9391-35 -3.908 3375.00 0 0 0 84 (C1) n - 1
REM
REM Run started: at 2020.03.16 18:05:26 in /rds/user/bk393/hpc-work/AIRSS.pl-DENE/CARBON/New-Try
REM VASP from code version vasp.5.4.4.18Apr17-6-g9f103f2a35 (build Oct 11 2019 16:45:47) gamma-only
REM
REM
REM
REM
REM ./C.cell (9f5935e56d41cf50cb14479ce98dda23)
REM AIRSS Version 0.9.1 bugfix July 2018 build 013d7b7c2542+ Fri, 06 Jul 2018 19:26:36 +0100
REM compiler GCC version 4.8.5 20150623 (Red Hat 4.8.5-39)
REM options -cpp -mtune=generic -march=x86-64 -g -O0
REM seed 313828975 -2099177447 -1514364321 174403419 -766654855 -1876279764 589896384 616323494 -559669567 1889213479 -2119800821 1102393998
REM
REM C.POTCAR (d86ddea03c3ceb6dc662c8ad6801f873)
REM 
CELL 1.54180   15.00000   15.00000   15.00000   90.00000   90.00000   90.00000
LATT -1
SFAC C  
C      1  0.6165251115318  0.3440426670412  0.3157669067313 1.0
C      1  0.5708468607172  0.6165220010044  0.4326064513818 1.0
C      1  0.5407884889111  0.7181523466374  0.6583507588455 1.0
C      1  0.3861975551519  0.6455132180774  0.5723385902259 1.0
C      1  0.3698055992516  0.4383485005209  0.5318764535282 1.0
C      1  0.7435724789615  0.5507349886587  0.3969726944428 1.0
C      1  0.4944985856869  0.2766987672661  0.6493974712347 1.0
C      1  0.5711259705811  0.2071900691527  0.4114687114446 1.0
C      1  0.4937318535486  0.1837438206088  0.5108315963448 1.0
C      1  0.4749684342790  0.3568749892076  0.6968137723035 1.0
C      1  0.7275868464789  0.3876535002064  0.4827223043629 1.0
C      1  0.5449516424862  0.3268874044869  0.2561985846094 1.0
C      1  0.8047866067196  0.5384940184057  0.5668396113220 1.0
C      1  0.2967364238120  0.6183166505671  0.3814740872757 1.0
C      1  0.5459757975959  0.6462782566194  0.5257484438698 1.0
C      1  0.4652113380047  0.5009711723981  0.7427910812912 1.0
C      1  0.6623254988674  0.4084119790524  0.7121005609396 1.0
C      1  0.4572082242891  0.7313197768383  0.6973353166590 1.0
C      1  0.7474075495119  0.3873100468202  0.5812828041720 1.0
C      1  0.5664898289178  0.4696824655875  0.3696524907210 1.0
C      1  0.4130505036218  0.4325950237916  0.7126859519263 1.0
C      1  0.6311209460770  0.5243885117771  0.2930082012312 1.0
C      1  0.7057994679045  0.4937025556187  0.6949914259190 1.0
C      1  0.5933156236618  0.3374634055206  0.5432573451527 1.0
C      1  0.3600745692166  0.2626605933104  0.5451049271887 1.0
C      1  0.6851183705491  0.5902235713580  0.3319906907579 1.0
C      1  0.5932275901759  0.5871363160455  0.5894629144389 1.0
C      1  0.3721328231878  0.7159084811913  0.6419953568467 1.0
C      1  0.6954292650087  0.3388065712897  0.6519926304228 1.0
C      1  0.3283376846309  0.7362466822040  0.5468408247954 1.0
C      1  0.5890858123420  0.1625194553659  0.4967422453374 1.0
C      1  0.3680421129003  0.7627512975937  0.4604859126892 1.0
C      1  0.2836484635874  0.5744902095587  0.4716598112228 1.0
C      1  0.4542157830312  0.6152435058530  0.5229247999330 1.0
C      1  0.5654516271458  0.4198029581401  0.5818837450025 1.0
C      1  0.6735007417800  0.5836338936822  0.6940717512547 1.0
C      1  0.4907792964782  0.6038375059457  0.3642732055764 1.0
C      1  0.4548440631483  0.8005686990981  0.4436954562681 1.0
C      1  0.5563850567497  0.7362978820242  0.5644347305676 1.0
C      1  0.5686819372214  0.3895712105896  0.6799776942888 1.0
C      1  0.4500652937869  0.5523299106752  0.4468105059712 1.0
C      1  0.3528615771449  0.6952338262076  0.3850924086468 1.0
C      1  0.3321733247999  0.4670697964439  0.3646964962627 1.0
C      1  0.3078287762477  0.5533971885976  0.2192492776581 1.0
C      1  0.7683260747625  0.4743990141400  0.6212077317173 1.0
C      1  0.6560558854862  0.4345520121999  0.3362367673476 1.0
C      1  0.2323321402925  0.5145540826992  0.5491080363598 1.0
C      1  0.3077273870037  0.5435833189110  0.3156264652998 1.0
C      1  0.2953985547690  0.3295902263018  0.4409131928985 1.0
C      1  0.3148953993141  0.3571708727621  0.5359673884758 1.0
C      1  0.3300282968852  0.3697632329104  0.3606930565309 1.0
C      1  0.4425452755607  0.6884403444160  0.3412573417078 1.0
C      1  0.7566090904275  0.6168441214436  0.5447609406656 1.0
C      1  0.4946722031478  0.5841746888252  0.7430699850023 1.0
C      1  0.5789944958170  0.5005473896404  0.5465006864230 1.0
C      1  0.6890913965916  0.6252734808244  0.6095188743541 1.0
C      1  0.3336969021486  0.2439836456698  0.4543599976102 1.0
C      1  0.3624202730805  0.5020203348376  0.4551022678653 1.0
C      1  0.5298688988257  0.5292837475696  0.2958515963122 1.0
C      1  0.5513104133456  0.5154266523434  0.4536580477616 1.0
C      1  0.3281917699528  0.4698858083448  0.6748181066132 1.0
C      1  0.6568369339466  0.3225468551650  0.4702628858198 1.0
C      1  0.3945018098931  0.2263716970364  0.3825598688934 1.0
C      1  0.4977369394744  0.7599810450405  0.3630903321525 1.0
C      1  0.5886188764246  0.7570659672043  0.4018671669587 1.0
C      1  0.2840789285217  0.4378686068514  0.5882264825357 1.0
C      1  0.7348342954088  0.6279530549385  0.4548225905829 1.0
C      1  0.3876834222170  0.3035008391120  0.3192901455419 1.0
C      1  0.3921716451345  0.5254301362330  0.2078895003108 1.0
C      1  0.3447098096685  0.6430898327502  0.7145602817803 1.0
C      1  0.7272975848496  0.4532995065280  0.4092132228868 1.0
C      1  0.6247001949439  0.2832732939303  0.3892298145918 1.0
C      1  0.5445120168805  0.7913692160005  0.4858329411563 1.0
C      1  0.2984367814686  0.5618375908456  0.6883007562778 1.0
C      1  0.2913091701138  0.6415615671941  0.5449515648581 1.0
C      1  0.4307564801997  0.6571916650743  0.7529675569082 1.0
C      1  0.5982269829469  0.2986266092161  0.6333843602467 1.0
C      1  0.5731147783155  0.6171959191159  0.6869590976746 1.0
C      1  0.4752772044254  0.5111393982932  0.2180232915471 1.0
C      1  0.6521526861791  0.6643436785690  0.3998284085260 1.0
C      1  0.2439403835327  0.5829622031654  0.6101313840557 1.0
C      1  0.4625331851187  0.3175356004401  0.2667387596984 1.0
C      1  0.4442084656413  0.2328581666314  0.5774941573598 1.0
C      1  0.4742854615824  0.1944793857862  0.4158276456274 1.0
END
