TITL C-151104-9391-26 -3.102 3375.00 0 0 0 65 (C1) n - 1
REM
REM Run started: at 2020.03.16 12:09:54 in /rds/user/bk393/hpc-work/AIRSS.pl-DENE/CARBON/New-Try
REM VASP from code version vasp.5.4.4.18Apr17-6-g9f103f2a35 (build Oct 11 2019 16:45:47) gamma-only
REM
REM
REM
REM
REM ./C.cell (9f5935e56d41cf50cb14479ce98dda23)
REM AIRSS Version 0.9.1 bugfix July 2018 build 013d7b7c2542+ Fri, 06 Jul 2018 19:26:36 +0100
REM compiler GCC version 4.8.5 20150623 (Red Hat 4.8.5-39)
REM options -cpp -mtune=generic -march=x86-64 -g -O0
REM seed 367527260 -1042503961 1606703408 732879210 -1902464085 1979689409 1962200791 1177499566 -233343431 -554180756 -1880362438 -1849184223
REM
REM C.POTCAR (d86ddea03c3ceb6dc662c8ad6801f873)
REM 
CELL 1.54180   15.00000   15.00000   15.00000   90.00000   90.00000   90.00000
LATT -1
SFAC C  
C      1  0.2554692870564  0.5651798299650  0.5424592640766 1.0
C      1  0.6229811702320  0.6402552530667  0.6715356429531 1.0
C      1  0.7070388940148  0.6494489704990  0.5305457888399 1.0
C      1  0.4654194137975  0.2118736960895  0.5761709994694 1.0
C      1  0.6200098689877  0.6742127989869  0.3930485015154 1.0
C      1  0.3227085613018  0.2508818953756  0.5023031400156 1.0
C      1  0.6634098376255  0.3604391619188  0.5890118790998 1.0
C      1  0.2664238909558  0.4138966523890  0.4870494666543 1.0
C      1  0.7652961562642  0.5816602068500  0.4894642843829 1.0
C      1  0.8074715225149  0.5388930776071  0.5648468751043 1.0
C      1  0.2779805331399  0.4402625433242  0.3900487924177 1.0
C      1  0.4375101615046  0.6608851191070  0.4019665969154 1.0
C      1  0.7717824214371  0.5608463424524  0.6380349972995 1.0
C      1  0.6199314796839  0.3829826921204  0.6707092637623 1.0
C      1  0.4608007554315  0.7192013226711  0.6593335590978 1.0
C      1  0.5353672306397  0.3328753305054  0.6897687017962 1.0
C      1  0.4691584630592  0.5295845161878  0.2416967468598 1.0
C      1  0.5842028165440  0.4646580140160  0.7134819433451 1.0
C      1  0.4473388665069  0.4559885969389  0.3047105800232 1.0
C      1  0.4872925748228  0.2942482019569  0.6166233186645 1.0
C      1  0.4556123455602  0.5059037450530  0.3947959095175 1.0
C      1  0.4114331345602  0.7502324482897  0.5826317106261 1.0
C      1  0.3604366936248  0.3302038159282  0.2913827328493 1.0
C      1  0.4916492508023  0.4155719501549  0.7188918634003 1.0
C      1  0.4146482570759  0.7918542323408  0.4977762229292 1.0
C      1  0.5790616611496  0.2750359948625  0.4573086682917 1.0
C      1  0.6292685453740  0.6824873987220  0.4861578541648 1.0
C      1  0.4665254484221  0.6287253259575  0.5044825813012 1.0
C      1  0.6931499580523  0.4733916398652  0.3670706927098 1.0
C      1  0.5482621888319  0.6853367676045  0.5381816880457 1.0
C      1  0.6193368031113  0.5350082879400  0.3257801950590 1.0
C      1  0.4888811590409  0.4485415819261  0.5463344202540 1.0
C      1  0.4847956369384  0.2731938696880  0.4845765566299 1.0
C      1  0.4079156689976  0.2150421758520  0.5020736401096 1.0
C      1  0.7388692614635  0.5540132623753  0.4021039348275 1.0
C      1  0.3080404322801  0.4769663907867  0.6514273547062 1.0
C      1  0.4973462180380  0.5262035617999  0.4852738853641 1.0
C      1  0.2829985294219  0.3235497129853  0.5010214175583 1.0
C      1  0.3468453625837  0.5461018139016  0.7039966648522 1.0
C      1  0.3840200556874  0.6558985795443  0.5672508550858 1.0
C      1  0.6778683516302  0.3901904210390  0.4047873200137 1.0
C      1  0.4704122157310  0.4767189344168  0.6345188131744 1.0
C      1  0.7050986387699  0.6297389041712  0.6283496783272 1.0
C      1  0.6780856826925  0.6101628482583  0.3568924073074 1.0
C      1  0.2970194441668  0.3678382794487  0.3308331836214 1.0
C      1  0.4123522056381  0.6242263068187  0.6642042257076 1.0
C      1  0.4044882971377  0.7504890451404  0.4249695623632 1.0
C      1  0.6011354092926  0.3292881679208  0.3786686856933 1.0
C      1  0.5530224781643  0.7016306615610  0.6313977545747 1.0
C      1  0.4893375023845  0.5651249116190  0.6661187475050 1.0
C      1  0.5392112765084  0.5813873749916  0.2720159779240 1.0
C      1  0.3856123530924  0.5746763058592  0.3745816648621 1.0
C      1  0.5434477378080  0.5464614183662  0.3958129378628 1.0
C      1  0.3038832782158  0.5247136806895  0.3498136934027 1.0
C      1  0.5751865376081  0.5620383072654  0.7046386440839 1.0
C      1  0.5294020462343  0.6422518236524  0.3577995225950 1.0
C      1  0.3964920172841  0.4565364142076  0.6972700606048 1.0
C      1  0.4738186954602  0.3574099774934  0.5395198555036 1.0
C      1  0.5355216854186  0.3277245827951  0.3138562963535 1.0
C      1  0.4529987568683  0.3575055087894  0.2947736173702 1.0
C      1  0.6994695840593  0.3658375655178  0.4984191164557 1.0
C      1  0.2950759770131  0.6367609943684  0.5338757515095 1.0
C      1  0.6427084979129  0.2959089177516  0.5222609038036 1.0
C      1  0.3757786600123  0.5287774132100  0.2807917884318 1.0
C      1  0.2658821543603  0.4750644570433  0.5625006003737 1.0
END
