TITL C-153043-6840-4 -1.328 3375.00 -203.01633810 0 0 27 (C1) n - 1
REM
REM Run started: at 2020.12.26 12:18:15 in /rds/project/t2_vol4/rds-t2-cs072/BORA/CARBON/AIRSS/Generating-Clusters/Str-Search/Only-C1/C10-100
REM VASP from code version vasp.5.4.4.18Apr17-6-g9f103f2a35 (build Oct 11 2019 16:45:47) gamma-only
REM
REM
REM
REM
REM ./C.cell (67c5d0192afd7a3ce4a0888e5fe73b87)
REM AIRSS Version 0.9.1 bugfix July 2018 build 013d7b7c2542+ Fri, 06 Jul 2018 19:26:36 +0100
REM compiler GCC version 4.8.5 20150623 (Red Hat 4.8.5-39)
REM options -cpp -mtune=generic -march=x86-64 -g -O0
REM seed -1884348052 1500788979 -652445333 -16520425 210813372 -183349396 2002125477 2101156918 -1016594969 552882783 -1418831009 1118482082
REM
REM C.POTCAR (d86ddea03c3ceb6dc662c8ad6801f873)
REM 
CELL 1.54180   15.00000   15.00000   15.00000   90.00000   90.00000   90.00000
LATT -1
SFAC C  
C      1  0.4645246114381  0.3023183533677  0.4230690468958 1.0
C      1  0.3936993278279  0.6498796547911  0.6593784807506 1.0
C      1  0.6485732090662  0.4117232901809  0.3529901451727 1.0
C      1  0.4286127083303  0.3324746176934  0.5033053068131 1.0
C      1  0.5225017168589  0.6817763548827  0.5872093171747 1.0
C      1  0.4783230106784  0.3794734551819  0.6705404008814 1.0
C      1  0.5681987731871  0.3561935894012  0.6116131504335 1.0
C      1  0.5739217074560  0.6257113179285  0.4336778593186 1.0
C      1  0.4829977429199  0.4767831392051  0.6736385570138 1.0
C      1  0.6622038479806  0.4994005237980  0.3676037242133 1.0
C      1  0.4982399087827  0.4310142749009  0.5792823358775 1.0
C      1  0.4079201852853  0.5745441830930  0.4257920670178 1.0
C      1  0.4202226547018  0.4265430306452  0.5158099076026 1.0
C      1  0.3164814075786  0.5562972416422  0.4357625433714 1.0
C      1  0.5323911095600  0.5973170592118  0.6387803717054 1.0
C      1  0.4992934671476  0.5419647379160  0.3093186079168 1.0
C      1  0.3796706418558  0.4982476331014  0.4749434610383 1.0
C      1  0.4912089556340  0.5933937272586  0.3863485385556 1.0
C      1  0.5683263411545  0.5336553882666  0.6952178041766 1.0
C      1  0.6486071069444  0.5734917157981  0.4062138506995 1.0
C      1  0.5133288601927  0.3204577677455  0.3579205355412 1.0
C      1  0.5162242615537  0.4642039808903  0.2840057809180 1.0
C      1  0.4377057362240  0.7176418085270  0.6278645954700 1.0
C      1  0.5640075300317  0.3881436037911  0.3160829864056 1.0
C      1  0.4435492595767  0.5677966836636  0.6639419151709 1.0
C      1  0.5611030306590  0.6769399614229  0.5075017503058 1.0
C      1  0.4781630873743  0.3226128056951  0.5921867595595 1.0
END
