TITL C-153043-6840-30 -0.696 3375.00 -102.44648198 0 0 14 (C1) n - 1
REM
REM Run started: at 2020.12.26 21:15:59 in /rds/project/t2_vol4/rds-t2-cs072/BORA/CARBON/AIRSS/Generating-Clusters/Str-Search/Only-C1/C10-100
REM VASP from code version vasp.5.4.4.18Apr17-6-g9f103f2a35 (build Oct 11 2019 16:45:47) gamma-only
REM
REM
REM
REM
REM ./C.cell (67c5d0192afd7a3ce4a0888e5fe73b87)
REM AIRSS Version 0.9.1 bugfix July 2018 build 013d7b7c2542+ Fri, 06 Jul 2018 19:26:36 +0100
REM compiler GCC version 4.8.5 20150623 (Red Hat 4.8.5-39)
REM options -cpp -mtune=generic -march=x86-64 -g -O0
REM seed -804634095 1526940828 -1388230827 785204897 -430947106 -1035493539 565544064 -613448450 788378070 1325845123 1510051239 1962570533
REM
REM C.POTCAR (d86ddea03c3ceb6dc662c8ad6801f873)
REM 
CELL 1.54180   15.00000   15.00000   15.00000   90.00000   90.00000   90.00000
LATT -1
SFAC C  
C      1  0.4658272549355  0.6301081594943  0.3781563622612 1.0
C      1  0.4747953990278  0.6398859193827  0.6514377484367 1.0
C      1  0.4684545107333  0.6332856099102  0.5582323541947 1.0
C      1  0.4198541941251  0.4835664938996  0.2808661950723 1.0
C      1  0.5911477906743  0.4271688447686  0.6325946040490 1.0
C      1  0.6404546367367  0.3728022901568  0.6766664564853 1.0
C      1  0.5041009227235  0.5609731363120  0.6125375718303 1.0
C      1  0.4509363095584  0.6123997550366  0.4705414909362 1.0
C      1  0.5267464599330  0.2892867830332  0.4219350998771 1.0
C      1  0.4605431275869  0.5199108049601  0.4416835107950 1.0
C      1  0.5156990335148  0.3671972179515  0.4554263569154 1.0
C      1  0.4460514763547  0.5369927659994  0.3463908782592 1.0
C      1  0.5037050269181  0.4505356256773  0.4912138576470 1.0
C      1  0.5316838571779  0.4758863934176  0.5823177132406 1.0
END
