TITL C-151104-9391-38 -3.742 3375.00 0 0 0 80 (C1) n - 1
REM
REM Run started: at 2020.03.16 18:51:42 in /rds/user/bk393/hpc-work/AIRSS.pl-DENE/CARBON/New-Try
REM VASP from code version vasp.5.4.4.18Apr17-6-g9f103f2a35 (build Oct 11 2019 16:45:47) gamma-only
REM
REM
REM
REM
REM ./C.cell (9f5935e56d41cf50cb14479ce98dda23)
REM AIRSS Version 0.9.1 bugfix July 2018 build 013d7b7c2542+ Fri, 06 Jul 2018 19:26:36 +0100
REM compiler GCC version 4.8.5 20150623 (Red Hat 4.8.5-39)
REM options -cpp -mtune=generic -march=x86-64 -g -O0
REM seed 219323711 295767412 -2010139710 -554971775 1877776214 -860744847 1385217988 1616972690 386821751 -777887057 -410284267 -626017957
REM
REM C.POTCAR (d86ddea03c3ceb6dc662c8ad6801f873)
REM 
CELL 1.54180   15.00000   15.00000   15.00000   90.00000   90.00000   90.00000
LATT -1
SFAC C  
C      1  0.6588150855843  0.5018181897439  0.5928091396831 1.0
C      1  0.4627031345053  0.8403909756786  0.5581898888214 1.0
C      1  0.2852693149207  0.4174284388239  0.4454699465469 1.0
C      1  0.5309480160419  0.2423805726679  0.4567926588632 1.0
C      1  0.4039106546717  0.5072153138380  0.5504183282797 1.0
C      1  0.2329087552283  0.5570270383192  0.3555395682096 1.0
C      1  0.6841921274902  0.7325097867649  0.4239943058211 1.0
C      1  0.3911713993497  0.3231295448952  0.3144258877155 1.0
C      1  0.3318300589979  0.3934580040749  0.2847772670935 1.0
C      1  0.3599942510483  0.4859851988724  0.4565748494820 1.0
C      1  0.6548688758364  0.3457708687308  0.4486661869103 1.0
C      1  0.7660106062873  0.4015193811003  0.5582318515777 1.0
C      1  0.5682402298807  0.7250699274803  0.3435923664248 1.0
C      1  0.4276026042168  0.3230245818660  0.7128193967519 1.0
C      1  0.4968335345248  0.6792449892464  0.3024043441093 1.0
C      1  0.6323519747018  0.3128767881079  0.3581623995943 1.0
C      1  0.4194795691800  0.6353008640538  0.4211150739073 1.0
C      1  0.3581250261951  0.3799519665711  0.6628501463478 1.0
C      1  0.4380046356473  0.5178203464057  0.2901599223942 1.0
C      1  0.6775447685407  0.5595328101575  0.6628885043112 1.0
C      1  0.6232431222714  0.4589190640699  0.2776621880913 1.0
C      1  0.7282426946351  0.5796933581567  0.4092282051866 1.0
C      1  0.4241953906766  0.2341373759134  0.5816196527784 1.0
C      1  0.2081443988174  0.4759181307007  0.5101349564921 1.0
C      1  0.7253004169912  0.3464689687886  0.6226341454974 1.0
C      1  0.3293583365739  0.2740185537454  0.3769580574794 1.0
C      1  0.4831275477299  0.6513155216582  0.5603505290031 1.0
C      1  0.6572802657151  0.3097849767018  0.6524415011117 1.0
C      1  0.5211397956781  0.5263705957344  0.7625390117450 1.0
C      1  0.4418520820313  0.4721757610768  0.7692437817901 1.0
C      1  0.5390038199926  0.4377965606069  0.7286843131206 1.0
C      1  0.7324990761919  0.6664817096097  0.4671852839301 1.0
C      1  0.3567390642252  0.6622926114967  0.6708855666432 1.0
C      1  0.5640505325065  0.3147841825238  0.6155098962064 1.0
C      1  0.3973152513273  0.8139614587561  0.6074722593528 1.0
C      1  0.2883984312349  0.3606468869031  0.3656640411706 1.0
C      1  0.7559198350181  0.5872520476444  0.6082467597292 1.0
C      1  0.7346164211148  0.4000317281104  0.4688909987788 1.0
C      1  0.4832367923282  0.5657983410070  0.4314655208597 1.0
C      1  0.2508586736866  0.3994512551987  0.5372065786467 1.0
C      1  0.2949106592377  0.3393841100520  0.5942706067802 1.0
C      1  0.5810491586722  0.3052407578437  0.5128256112518 1.0
C      1  0.4768841470023  0.2684202438525  0.6493914065023 1.0
C      1  0.3708041701080  0.5663101076323  0.6413092486472 1.0
C      1  0.2611027581099  0.5210353885312  0.4407162055484 1.0
C      1  0.5289622765933  0.6063837220229  0.7100459317448 1.0
C      1  0.6446223928655  0.3805459002045  0.2937730592480 1.0
C      1  0.7441451437205  0.4995443787712  0.4555038779578 1.0
C      1  0.6121709101010  0.6286528345450  0.6741884397690 1.0
C      1  0.4084682845929  0.6865249502404  0.4994762356925 1.0
C      1  0.4448369979620  0.4871556328956  0.3881793084595 1.0
C      1  0.3560360739000  0.2391260335754  0.4600605397885 1.0
C      1  0.5820728911613  0.7580994047743  0.4481901822967 1.0
C      1  0.6747966790663  0.6026617265474  0.3289372567231 1.0
C      1  0.4174463365071  0.7032066085328  0.3529272359766 1.0
C      1  0.5669999215136  0.4034652633309  0.4722826614256 1.0
C      1  0.4804962744835  0.3331982167432  0.3470303039576 1.0
C      1  0.5119341961503  0.5867308018771  0.2739652176400 1.0
C      1  0.4512889829170  0.6313409480044  0.6559610417836 1.0
C      1  0.7287048459060  0.6635288562271  0.5631807396721 1.0
C      1  0.7539530536797  0.5027531590401  0.5540091174466 1.0
C      1  0.4473813829979  0.2172501769278  0.4895457673992 1.0
C      1  0.3775222668409  0.4783930313666  0.6944079511612 1.0
C      1  0.4290535882774  0.4341267174563  0.6142391784272 1.0
C      1  0.3493032934049  0.7458622367819  0.6374318662888 1.0
C      1  0.5289811959961  0.4173454616839  0.6279730910890 1.0
C      1  0.5699903055339  0.4740457028126  0.5522208825220 1.0
C      1  0.5504447822242  0.2653779665007  0.3648665093420 1.0
C      1  0.6369601595518  0.6877387623158  0.5985246885025 1.0
C      1  0.4987590493118  0.4075384021600  0.4017384597229 1.0
C      1  0.2807640932971  0.5413327875763  0.2880272528341 1.0
C      1  0.3349974898177  0.2630537850741  0.5539386812758 1.0
C      1  0.3514009867880  0.4855901915148  0.2609940389401 1.0
C      1  0.4993021235968  0.8170167263629  0.4743755704279 1.0
C      1  0.4956578860562  0.5506902104982  0.5268055923929 1.0
C      1  0.4739438345709  0.3795725183676  0.7732819230158 1.0
C      1  0.4308437359521  0.7567296391398  0.4364969187477 1.0
C      1  0.6547067402158  0.6940278855709  0.3413485640532 1.0
C      1  0.6042549094281  0.5507555018133  0.2854302644656 1.0
C      1  0.5687194502931  0.7014884750314  0.5382230906218 1.0
END
