TITL C-156655-5461-6 -11.778 3375.00 0 0 0 269 (C1) n - 1
REM
REM Run started: at 2020.03.11 10:28:13 in /rds/user/bk393/hpc-work/AIRSS.pl-DENE/CARBON/New-Try
REM VASP from code version vasp.5.4.4.18Apr17-6-g9f103f2a35 (build Oct 11 2019 16:45:47) gamma-only
REM
REM
REM
REM
REM ./C.cell (67df479faaa1345d4e7bfe0367c0c0c2)
REM AIRSS Version 0.9.1 bugfix July 2018 build 013d7b7c2542+ Fri, 06 Jul 2018 19:26:36 +0100
REM compiler GCC version 4.8.5 20150623 (Red Hat 4.8.5-39)
REM options -cpp -mtune=generic -march=x86-64 -g -O0
REM seed -1957483609 1021650029 1174758804 -1238115845 -585275776 832970224 -1971582436 1558485439 -401870798 315486680 531691881 16754099
REM
REM C.POTCAR (d86ddea03c3ceb6dc662c8ad6801f873)
REM 
CELL 1.54180   15.00000   15.00000   15.00000   90.00000   90.00000   90.00000
LATT -1
SFAC C  
C      1  0.7280037820140  0.8747869900054  0.4746314778067 1.0
C      1  0.9410392715826  0.6518247732813  0.2861928708856 1.0
C      1  0.6282523013720  0.3558645441902  0.3807768424897 1.0
C      1  0.2572598983967  0.7376999295173  0.3649069266580 1.0
C      1  0.7289701675869  0.4358951753994  0.7944638436354 1.0
C      1  0.4220145018249  0.4170905358460  0.4163771913900 1.0
C      1  0.7389563688266  0.2042850465436  0.7540398405499 1.0
C      1  0.5598935307324  0.3475226181347  0.0647210706316 1.0
C      1  0.3180564001414  0.6342149421213  0.6751222999065 1.0
C      1  0.5285778959015  0.8369233995890  0.2456323901912 1.0
C      1  0.6716979124257  0.4026480700338  0.8706443328187 1.0
C      1  0.1398075132661  0.2376105279486  0.3676612297554 1.0
C      1  0.0381191041489  0.6033389415126  0.4579204546557 1.0
C      1  0.6302271813346  0.4240080279315  0.0828780836695 1.0
C      1  0.5954107528025  0.4286789931973  0.9171085803458 1.0
C      1  0.5532494648479  0.7660621708375  0.7999676551935 1.0
C      1  0.7189402607214  0.4197611838626  0.1134051654540 1.0
C      1  0.3094227413061  0.3693521102072  0.2678156373409 1.0
C      1  0.4524219236175  0.7734685176995  0.2467666289042 1.0
C      1  0.7345973813811  0.3420028785776  0.1694898617905 1.0
C      1  0.6494058543345  0.5642721443513  0.3846024493371 1.0
C      1  0.1486049348673  0.3211630977826  0.3106693308674 1.0
C      1  0.5190272568134  0.0900328955691  0.7262581997266 1.0
C      1  0.3854307841587  0.5937932817661  0.5042857686318 1.0
C      1  0.1724804520523  0.3189658607424  0.2150797472352 1.0
C      1  0.5568221184475  0.3442057159590  0.9628215754391 1.0
C      1  0.2862960210486  0.3587947337909  0.1044770013168 1.0
C      1  0.4374510533143  0.8260559507718  0.4513297402688 1.0
C      1  0.2832019824646  0.7720682040940  0.7209043801056 1.0
C      1  0.8924878990700  0.3687843748909  0.4844238221283 1.0
C      1  0.7072520607255  0.4109048027623  0.3931754887023 1.0
C      1  0.7282405878341  0.6906106773646  0.2170993149587 1.0
C      1  0.8800703682473  0.1067324819449  0.5569013975466 1.0
C      1  0.6032080666321  0.5710292887972  0.8263045902445 1.0
C      1  0.5299365013632  0.1336715093589  0.3148086002730 1.0
C      1  0.4708963752880  0.3403390420683  0.7457543083719 1.0
C      1  0.7150803173223  0.6876945060664  0.5549811429604 1.0
C      1  0.2023517070162  0.1770903126546  0.3894709649977 1.0
C      1  0.0074438467711  0.4706870320626  0.7337671739182 1.0
C      1  0.4231759446498  0.6418883670643  0.7128137479799 1.0
C      1  0.8587145325051  0.2019039800089  0.4058719339655 1.0
C      1  0.7004386240485  0.6504156295122  0.3762381443854 1.0
C      1  0.3367108087966  0.8311441701038  0.4772655014826 1.0
C      1  0.9291542878079  0.5858417132828  0.4668925257032 1.0
C      1  0.1449041818780  0.3823902763157  0.7423226308052 1.0
C      1  0.2594626351198  0.4535045414888  0.6604752049557 1.0
C      1  0.4010757491151  0.5092974875405  0.8956087571893 1.0
C      1  0.7178601414964  0.1891866249545  0.5471110535419 1.0
C      1  0.0792670519174  0.7390730516566  0.5809539877508 1.0
C      1  0.2466545421375  0.4532500946715  0.3806486060994 1.0
C      1  0.6616386242836  0.6284551276803  0.7858760406778 1.0
C      1  0.8537637676236  0.7803514423505  0.6792956667075 1.0
C      1  0.9470656918759  0.4265088240133  0.5418087278578 1.0
C      1  0.5670226366209  0.5185023592052  0.9060332220648 1.0
C      1  0.4475906628278  0.3353279212756  0.8459063319404 1.0
C      1  0.1811484113447  0.5135605197932  0.4312512486125 1.0
C      1  0.4683591788341  0.4009902800610  0.0765320190643 1.0
C      1  0.3543201112424  0.8031714513334  0.2442581645224 1.0
C      1  0.0669318447988  0.5333183116046  0.5238034208612 1.0
C      1  0.6724115642397  0.8200379502874  0.6997851675480 1.0
C      1  0.6719742275560  0.7932595164558  0.3307401349072 1.0
C      1  0.5798070029932  0.5978107583135  0.2386160076578 1.0
C      1  0.5782029318901  0.6475544172086  0.6132108515267 1.0
C      1  0.0878176247390  0.6833868902937  0.5057905135350 1.0
C      1  0.2983441527293  0.1101289519738  0.5711219142118 1.0
C      1  0.2468597489964  0.6794203648105  0.1885405513996 1.0
C      1  0.6236832629365  0.0655508602155  0.4229095010674 1.0
C      1  0.6596556045399  0.1505790543388  0.7507426138425 1.0
C      1  0.1980659011552  0.5912406123471  0.3691964346512 1.0
C      1  0.2260359009330  0.1619883761682  0.5789895659181 1.0
C      1  0.7856032747744  0.2563000266114  0.6950959210637 1.0
C      1  0.8078971659848  0.5308800487851  0.5767703631393 1.0
C      1  0.3652638601894  0.7905184577092  0.7535244237167 1.0
C      1  0.6097580010443  0.5862157020559  0.1476295682694 1.0
C      1  0.5202970525114  0.8934045836103  0.3144152819196 1.0
C      1  0.5490087590863  0.5226164879453  0.7590467780096 1.0
C      1  0.5426379833221  0.6564055183416  0.3096738655835 1.0
C      1  0.4782436129392  0.5503102274384  0.9337475395543 1.0
C      1  0.4751081463985  0.6375654896435  0.9589461857621 1.0
C      1  0.6031251270939  0.1286053850419  0.6786026067266 1.0
C      1  0.6205172182299  0.1109635229800  0.3393977494718 1.0
C      1  0.3466681048983  0.5507913596958  0.4349630917219 1.0
C      1  0.3755369014769  0.5330808849096  0.5813981411741 1.0
C      1  0.5551385217318  0.3648732643489  0.7094880511425 1.0
C      1  0.9166254518321  0.4682487089256  0.7377197480169 1.0
C      1  0.3689689796686  0.4042692493909  0.0863571844224 1.0
C      1  0.7566263585356  0.2081094903806  0.3643793210873 1.0
C      1  0.2836723508085  0.3795368300222  0.5070351221606 1.0
C      1  0.6775372818457  0.8763050756123  0.5535612213363 1.0
C      1  0.4026644104251  0.3815314506646  0.2552211905567 1.0
C      1  0.7983913712525  0.1341820502731  0.5469932238232 1.0
C      1  0.7660677991642  0.6373133895199  0.2986973063527 1.0
C      1  0.3105930730752  0.1813795325176  0.6373720816470 1.0
C      1  0.8745291682987  0.1945170463018  0.5017557368366 1.0
C      1  0.4960186729913  0.4882702980843  0.0987360579561 1.0
C      1  0.2215086365785  0.6717099672747  0.4177129755084 1.0
C      1  0.2069895946776  0.5210513094311  0.6097322096966 1.0
C      1  0.6953351747808  0.4541542650447  0.7079195037967 1.0
C      1  0.5868795011443  0.5017036335335  0.1051011835160 1.0
C      1  0.4935059551233  0.6904350777900  0.6528357555544 1.0
C      1  0.7536164684318  0.5461836962613  0.4873155785787 1.0
C      1  0.6286676949729  0.3399340638319  0.5445275758880 1.0
C      1  0.2398237756366  0.6838998664017  0.6052551973443 1.0
C      1  0.1085234307775  0.4834862102297  0.2948000131800 1.0
C      1  0.4816772559640  0.2736194703081  0.6078194783000 1.0
C      1  0.2855653416415  0.1389269943160  0.3721715100385 1.0
C      1  0.8699583266143  0.5504436930057  0.7452736580820 1.0
C      1  0.5795224002153  0.8384423393081  0.6679142683249 1.0
C      1  0.6131761197872  0.7188355288145  0.5439029728743 1.0
C      1  0.2596391813496  0.6772218460082  0.7489525830484 1.0
C      1  0.1752048089317  0.6530927457403  0.6951867595710 1.0
C      1  0.3045944757068  0.4033959446902  0.8464353925971 1.0
C      1  0.5616118985983  0.3695435609515  0.3162248607227 1.0
C      1  0.8657639885293  0.7895728043008  0.5804001405536 1.0
C      1  0.4790718839702  0.1490748722597  0.7987591882184 1.0
C      1  0.6218502429250  0.7137158436891  0.3675279297860 1.0
C      1  0.2818538971489  0.5560904938708  0.1125854780068 1.0
C      1  0.2963501768399  0.8212421198412  0.3904464677231 1.0
C      1  0.3668663624378  0.1253172645534  0.3760854086369 1.0
C      1  0.4363246466024  0.8899391157323  0.3713933715571 1.0
C      1  0.7112160690872  0.2338233201618  0.8469228636713 1.0
C      1  0.1557326813296  0.2200351704731  0.5612281799490 1.0
C      1  0.2574862535074  0.5275944754357  0.3128694855155 1.0
C      1  0.2403798009505  0.3562912450140  0.3539566100586 1.0
C      1  0.3508734989952  0.4913330508159  0.1167446732576 1.0
C      1  0.2992996430143  0.5440582733250  0.6396400571396 1.0
C      1  0.4862214250299  0.8264553820354  0.5394885563172 1.0
C      1  0.3120232237368  0.1784450405265  0.7366525436074 1.0
C      1  0.0097071556063  0.5517672802330  0.6043509469526 1.0
C      1  0.5499675702486  0.3964413667921  0.5511886244403 1.0
C      1  0.3179120809315  0.6458777926654  0.8272337619562 1.0
C      1  0.1678205099021  0.5469444184007  0.5239148908858 1.0
C      1  0.2423057997882  0.3206285870355  0.4514899051372 1.0
C      1  0.9058511006979  0.5194731956497  0.3898086692583 1.0
C      1  0.1744445077825  0.2666356979337  0.1426957112219 1.0
C      1  0.7710188505793  0.5323422279911  0.3024204126202 1.0
C      1  0.4566828855021  0.7039117573105  0.3196695436602 1.0
C      1  0.7311408224342  0.4573206007220  0.6111884079685 1.0
C      1  0.4372405163336  0.8358746982764  0.6999984769381 1.0
C      1  0.4099363397857  0.6317283343766  0.1783194858187 1.0
C      1  0.3199530836536  0.5564307729659  0.8564388977660 1.0
C      1  0.1887691291718  0.6543566494191  0.5148443637207 1.0
C      1  0.5078189072313  0.0008675126174  0.7159910638565 1.0
C      1  0.9438791667876  0.3476360257132  0.3998640458861 1.0
C      1  0.7912211415223  0.3660501625484  0.8123937596288 1.0
C      1  0.5165642631264  0.0925052162879  0.4644038810687 1.0
C      1  0.1141926506845  0.2715303053965  0.6348085555836 1.0
C      1  0.9225456594117  0.5690364365841  0.3134740090691 1.0
C      1  0.7145655115001  0.7129899749453  0.8069327576579 1.0
C      1  0.6305454917511  0.1816567054771  0.8373427999221 1.0
C      1  0.3264189007617  0.6417208319175  0.1237528546518 1.0
C      1  0.4633744639080  0.7273463842321  0.4229680225130 1.0
C      1  0.5830751572433  0.5611494659990  0.5456387425836 1.0
C      1  0.4651000857927  0.4240121732690  0.5092029893738 1.0
C      1  0.4488152929985  0.7333512165807  0.5755915557974 1.0
C      1  0.4627645549670  0.1430808593342  0.3917136464298 1.0
C      1  0.0530187630875  0.5395840076326  0.6838813243939 1.0
C      1  0.5627268986672  0.3221491922684  0.6212663933694 1.0
C      1  0.8912276053433  0.3820802062788  0.6958109846901 1.0
C      1  0.5729974744795  0.5917399116588  0.4488277784778 1.0
C      1  0.7275313881207  0.3222991192858  0.8690097275356 1.0
C      1  0.6606074357474  0.6397026856543  0.6812072957606 1.0
C      1  0.4396208170280  0.3143795931330  0.3885293565294 1.0
C      1  0.8188155700887  0.8525024162609  0.6336163743552 1.0
C      1  0.8661650801446  0.7678238003488  0.4875278451519 1.0
C      1  0.6232563446191  0.1487161328323  0.5901356617960 1.0
C      1  0.5185379560977  0.5672673437225  0.3648490462653 1.0
C      1  0.7258666630223  0.5058339127955  0.3955553252364 1.0
C      1  0.4379243863720  0.5046676590579  0.3401544762071 1.0
C      1  0.7597284080191  0.6482281315584  0.4662792680723 1.0
C      1  0.7897421102520  0.4686749964601  0.2355232776269 1.0
C      1  0.3112596106513  0.3806187536339  0.6042674925135 1.0
C      1  0.7305500604466  0.8385683034304  0.3873392752932 1.0
C      1  0.5773012375213  0.2739196620850  0.1390940976667 1.0
C      1  0.8689244053494  0.2901134925781  0.5486118505725 1.0
C      1  0.7707675531644  0.2781296755642  0.5967010448367 1.0
C      1  0.3941708576032  0.4181660004563  0.8764700417951 1.0
C      1  0.4238917996883  0.2940761126521  0.6762977145606 1.0
C      1  0.5184755072735  0.2861183451048  0.8989260393192 1.0
C      1  0.4013004164511  0.7056089679527  0.8005268771124 1.0
C      1  0.3621142075340  0.7882750904920  0.1410625485604 1.0
C      1  0.5183110482199  0.7726116436668  0.7077503059207 1.0
C      1  0.7669060639469  0.4944136106214  0.1446423023277 1.0
C      1  0.6140604286466  0.6716681098231  0.0981104326697 1.0
C      1  0.5240168265256  0.4879016716135  0.5687856285203 1.0
C      1  0.4848403803881  0.7364081807155  0.8540672085321 1.0
C      1  0.1066995445044  0.5540521796516  0.3718712178029 1.0
C      1  0.7133874362778  0.7243528162470  0.6634802697196 1.0
C      1  0.0880421043054  0.4006766862991  0.3290831343541 1.0
C      1  0.6812985819599  0.7707321540234  0.2351687026527 1.0
C      1  0.1439386356579  0.8006422527214  0.6255630066597 1.0
C      1  0.1071514077952  0.7243564794491  0.6702297674860 1.0
C      1  0.7891857616466  0.3647101257790  0.2408471051433 1.0
C      1  0.3863816703203  0.1811953471586  0.7962562757060 1.0
C      1  0.2014439982985  0.4678841583619  0.7465660339239 1.0
C      1  0.5513433250624  0.0090817267762  0.4364313375552 1.0
C      1  0.5105163024269  0.9137161346440  0.7023341613595 1.0
C      1  0.2128843259970  0.5758673151096  0.1703108724298 1.0
C      1  0.2632129525613  0.2696142100264  0.7392114920349 1.0
C      1  0.2974105799394  0.7151434779765  0.2733026135122 1.0
C      1  0.5192329308659  0.1702395344255  0.2287722750819 1.0
C      1  0.8055989036575  0.3007876310817  0.3205681557584 1.0
C      1  0.2473583876731  0.7869353902894  0.6253542706069 1.0
C      1  0.8608088932002  0.6600094273744  0.3370754462611 1.0
C      1  0.9410466550093  0.3486290190654  0.6146569377020 1.0
C      1  0.6793632601847  0.5303943919644  0.5564781784568 1.0
C      1  0.6401460567641  0.2913111644269  0.4543354646433 1.0
C      1  0.3736047927597  0.2656034240191  0.8425462282133 1.0
C      1  0.0558291300506  0.3895982383277  0.7158913437354 1.0
C      1  0.5383267704934  0.1984954140015  0.8569812642158 1.0
C      1  0.1778417762845  0.2460480804507  0.4626326351409 1.0
C      1  0.8607190938992  0.6710714468057  0.4445559264643 1.0
C      1  0.8737779847453  0.4222799755390  0.3979614632551 1.0
C      1  0.4105581533426  0.8244331876637  0.6055792895053 1.0
C      1  0.3197112495170  0.8294251267936  0.5663671520440 1.0
C      1  0.5977690871433  0.7970882516037  0.1908083353431 1.0
C      1  0.5699441617182  0.6978716931770  0.4518101547777 1.0
C      1  0.2978229391201  0.3126502420718  0.8193002735738 1.0
C      1  0.4323826179575  0.5310841240324  0.1609572632986 1.0
C      1  0.8061805724775  0.8304062615457  0.4453774764170 1.0
C      1  0.3961085083631  0.4345206661077  0.5832292862200 1.0
C      1  0.0323406142807  0.3950740316062  0.4100177013205 1.0
C      1  0.3491085294158  0.8633999010891  0.3257708937349 1.0
C      1  0.8344494505950  0.3271669630472  0.7372514356756 1.0
C      1  0.5933403258309  0.5294257001600  0.3031100212027 1.0
C      1  0.3776265461380  0.6473014401818  0.2833476190083 1.0
C      1  0.2370429398029  0.2852844020668  0.0829528391986 1.0
C      1  0.3529705595174  0.5625481776724  0.3349666222600 1.0
C      1  0.4554959651852  0.7269092800440  0.1564921213293 1.0
C      1  0.1520185335995  0.5509480100388  0.6909320684329 1.0
C      1  0.4214886092351  0.6792961109666  0.5003828042671 1.0
C      1  0.0334602294695  0.3251806044064  0.6492488756745 1.0
C      1  0.3276622827992  0.2868921647569  0.6551942945740 1.0
C      1  0.4846808723071  0.7200051566911  0.9477341008228 1.0
C      1  0.7893293425089  0.3766118396812  0.3793064905106 1.0
C      1  0.5069090017522  0.9586440778677  0.3751468385776 1.0
C      1  0.0319091960434  0.4424873008333  0.4898051625587 1.0
C      1  0.6940863941162  0.1583730771122  0.2978521753989 1.0
C      1  0.4807962767475  0.2229383516442  0.5287203074358 1.0
C      1  0.5872919756602  0.8252373474486  0.5675288239819 1.0
C      1  0.1966476932051  0.4984528830501  0.2341899486441 1.0
C      1  0.4687007737953  0.5480710134998  0.7206286877093 1.0
C      1  0.5560200823316  0.4473885631057  0.2681064241081 1.0
C      1  0.3254539103486  0.4494891168066  0.4415336004985 1.0
C      1  0.2408192409820  0.3971886737317  0.1984240871413 1.0
C      1  0.7171870125638  0.3624306479051  0.5831410239857 1.0
C      1  0.6935670839392  0.6459911312185  0.1401505663210 1.0
C      1  0.1736170064335  0.2984522857710  0.7092936907279 1.0
C      1  0.7260763461369  0.8780552494300  0.6357523958590 1.0
C      1  0.4570570927150  0.4675294086341  0.2457759110021 1.0
C      1  0.2939886737669  0.7294370974063  0.1151037220666 1.0
C      1  0.6728863055285  0.2726373383864  0.1723351205395 1.0
C      1  0.6996144299686  0.2235297372127  0.4515192256847 1.0
C      1  0.8954089881779  0.2697969361641  0.3561023312745 1.0
C      1  0.4522076632797  0.2375308749897  0.4379268717362 1.0
C      1  0.4732131878964  0.3201613199162  0.2946237871875 1.0
C      1  0.7935408129915  0.7118032234669  0.7309239794065 1.0
C      1  0.8383271852904  0.6258322708980  0.7405275011950 1.0
C      1  0.5977683118414  0.4456962322854  0.7245215273827 1.0
C      1  0.4522338979528  0.5019019923412  0.6356664028824 1.0
C      1  0.9164147993350  0.5291331452980  0.5602093383323 1.0
C      1  0.5556397875529  0.7383171008976  0.1296810623397 1.0
C      1  0.2598146320143  0.4825767382242  0.8272324680830 1.0
C      1  0.6533402766920  0.7823612282988  0.7946099510858 1.0
C      1  0.5038135785395  0.2608267174164  0.2185090298214 1.0
C      1  0.5426961242394  0.1511231636790  0.5320933551622 1.0
C      1  0.6731545638223  0.1851169107470  0.2090331257965 1.0
C      1  0.5880305932698  0.1649897256393  0.1615306054331 1.0
C      1  0.7230984675540  0.6003962199136  0.6081724079320 1.0
END
