TITL C-159652-3453-33 -3.944 3375.00 -664.21356889 0 0 80 (C1) n - 1
REM
REM Run started: at 2020.12.05 02:21:45 in /rds/project/t2_vol4/rds-t2-cs072/BORA/CARBON/AIRSS/Generating-Clusters/Str-Search/Only-C1/C10-100
REM VASP from code version vasp.5.4.4.18Apr17-6-g9f103f2a35 (build Oct 11 2019 16:45:47) gamma-only
REM
REM
REM
REM
REM ./C.cell (67c5d0192afd7a3ce4a0888e5fe73b87)
REM AIRSS Version 0.9.1 bugfix July 2018 build 013d7b7c2542+ Fri, 06 Jul 2018 19:26:36 +0100
REM compiler GCC version 4.8.5 20150623 (Red Hat 4.8.5-39)
REM options -cpp -mtune=generic -march=x86-64 -g -O0
REM seed -592252949 514337767 86260142 724998976 -2109804855 -2040104243 -1569296019 -1564577430 750325882 1690397719 -1645982808 517637172
REM
REM C.POTCAR (d86ddea03c3ceb6dc662c8ad6801f873)
REM 
CELL 1.54180   15.00000   15.00000   15.00000   90.00000   90.00000   90.00000
LATT -1
SFAC C  
C      1  0.5329379539356  0.3898458783415  0.4574223684909 1.0
C      1  0.4513315013050  0.3757873638366  0.2781102844557 1.0
C      1  0.4080659304107  0.4618154037705  0.5869721251140 1.0
C      1  0.4859579984491  0.5006657938413  0.6058663924044 1.0
C      1  0.4397779800152  0.7171562918755  0.2794979854815 1.0
C      1  0.6789470739510  0.5333294069544  0.3543898866296 1.0
C      1  0.4623211431663  0.4714091410682  0.2553918232407 1.0
C      1  0.2209719142344  0.4825898884852  0.5484171195727 1.0
C      1  0.7652104720659  0.4924512485425  0.6279311452518 1.0
C      1  0.7225211062774  0.2496069170633  0.5974800397793 1.0
C      1  0.4522656945292  0.7559760932337  0.5121231781545 1.0
C      1  0.2612765285763  0.5488328831340  0.6512931673401 1.0
C      1  0.4745536925648  0.3668426182467  0.7429556251519 1.0
C      1  0.6005339060291  0.7386579716450  0.5543985180378 1.0
C      1  0.4555333270008  0.7156967678328  0.6023555687605 1.0
C      1  0.5514041674141  0.5062188657171  0.2627470758918 1.0
C      1  0.3755378113168  0.4416548808583  0.5033580449142 1.0
C      1  0.3300197824076  0.2976497309429  0.4068776628489 1.0
C      1  0.5454547361993  0.7069924736525  0.6282053990188 1.0
C      1  0.4507900304585  0.1978530535550  0.3718144746380 1.0
C      1  0.5783469971937  0.3114794211769  0.3945304379481 1.0
C      1  0.6258141454037  0.5661116369893  0.6332250196771 1.0
C      1  0.2548322288086  0.6513957736314  0.4217981738413 1.0
C      1  0.2320505391346  0.4502339332058  0.6372541256602 1.0
C      1  0.6627729843787  0.2332119541831  0.5283072830245 1.0
C      1  0.3759413402562  0.5138817146540  0.2737580618948 1.0
C      1  0.7002904474094  0.3592246350758  0.4239991658494 1.0
C      1  0.6779302492400  0.3332178850722  0.7132548206951 1.0
C      1  0.3319765421682  0.5963267171551  0.2970780430547 1.0
C      1  0.7403223148318  0.3321940499227  0.6393778184522 1.0
C      1  0.5211476146421  0.6778872493707  0.2510296878546 1.0
C      1  0.5205159281441  0.3014846508147  0.7189700854501 1.0
C      1  0.3635239882010  0.7442896045402  0.4785518705952 1.0
C      1  0.5741727903293  0.7531991606030  0.3890387510814 1.0
C      1  0.3217978339078  0.7167049344940  0.3973858657050 1.0
C      1  0.6372961469073  0.2144150293883  0.6209686672769 1.0
C      1  0.3604844392598  0.6867884795973  0.3123161286876 1.0
C      1  0.4601986055278  0.4592739667741  0.7475759213806 1.0
C      1  0.6041191251316  0.2686788512960  0.6927495474208 1.0
C      1  0.3766955125081  0.2152510034193  0.4076333626638 1.0
C      1  0.7038333803192  0.4328698771287  0.4916893140470 1.0
C      1  0.6092902069554  0.4558393742266  0.8133554773355 1.0
C      1  0.5982753257974  0.4393203516617  0.5122311425641 1.0
C      1  0.7224687435627  0.5233078952144  0.4404705263951 1.0
C      1  0.4990161089774  0.3018195836555  0.2644813943398 1.0
C      1  0.3465274065006  0.5874426528776  0.6688306881088 1.0
C      1  0.6580446561012  0.4025260809989  0.7730524782467 1.0
C      1  0.2168539230391  0.5763199900314  0.5683479403601 1.0
C      1  0.5335901752066  0.5099104078471  0.7897042933410 1.0
C      1  0.5450457144448  0.5955704447918  0.7607409752741 1.0
C      1  0.4385099216020  0.4070258172286  0.4422994220631 1.0
C      1  0.7124910253651  0.6896609953131  0.4447818974383 1.0
C      1  0.2557027443540  0.3596503193826  0.6316105058567 1.0
C      1  0.7498446171589  0.6063722015684  0.4768447199409 1.0
C      1  0.3700836453870  0.6710257750670  0.6225830696685 1.0
C      1  0.5754498380282  0.5051731804884  0.5809678694005 1.0
C      1  0.2442258882003  0.6479004458149  0.5176371235868 1.0
C      1  0.4126732580216  0.5105027405343  0.6750133791903 1.0
C      1  0.7231403284323  0.5708377410755  0.6315385548942 1.0
C      1  0.6892327810197  0.7131277839127  0.5368700020960 1.0
C      1  0.3850426020263  0.3733642003190  0.3580781664826 1.0
C      1  0.6535314136903  0.2781535983545  0.4496931916770 1.0
C      1  0.6411226244454  0.3785864911799  0.3510051807797 1.0
C      1  0.5178567444110  0.2522490321343  0.3387141254708 1.0
C      1  0.5725735425538  0.6013872710935  0.2631499049671 1.0
C      1  0.7436177733245  0.6400343443861  0.5697355168900 1.0
C      1  0.2763955735952  0.3330841615020  0.4750427851186 1.0
C      1  0.3293298897233  0.4487077443287  0.3285065535175 1.0
C      1  0.2665395000152  0.4831400248285  0.3857880941621 1.0
C      1  0.2645457008854  0.5769348315892  0.3654244609456 1.0
C      1  0.5214779967295  0.7506672504246  0.3118805536921 1.0
C      1  0.2567477545110  0.3086756635743  0.5641847681969 1.0
C      1  0.2721885123120  0.4386250081801  0.4746903381851 1.0
C      1  0.6538707343089  0.6977386278878  0.3748994711925 1.0
C      1  0.3133982542133  0.7016201753098  0.5524950414898 1.0
C      1  0.6470632743432  0.6178432779204  0.3210783451976 1.0
C      1  0.7525109627668  0.4151248337102  0.5876960035737 1.0
C      1  0.6254040633443  0.4639400149692  0.3131928052039 1.0
C      1  0.5738347011919  0.6336584037459  0.6854820952852 1.0
C      1  0.5430062694443  0.7639779617821  0.4798011004342 1.0
END
