TITL C-151104-9391-33 -4.984 3375.00 0 0 0 105 (C1) n - 1
REM
REM Run started: at 2020.03.16 17:20:32 in /rds/user/bk393/hpc-work/AIRSS.pl-DENE/CARBON/New-Try
REM VASP from code version vasp.5.4.4.18Apr17-6-g9f103f2a35 (build Oct 11 2019 16:45:47) gamma-only
REM
REM
REM
REM
REM ./C.cell (9f5935e56d41cf50cb14479ce98dda23)
REM AIRSS Version 0.9.1 bugfix July 2018 build 013d7b7c2542+ Fri, 06 Jul 2018 19:26:36 +0100
REM compiler GCC version 4.8.5 20150623 (Red Hat 4.8.5-39)
REM options -cpp -mtune=generic -march=x86-64 -g -O0
REM seed -574273342 533541049 539489833 -406934 -1364285167 624763211 -1247541684 -297468805 -128525996 1801562889 1531796779 -184762874
REM
REM C.POTCAR (d86ddea03c3ceb6dc662c8ad6801f873)
REM 
CELL 1.54180   15.00000   15.00000   15.00000   90.00000   90.00000   90.00000
LATT -1
SFAC C  
C      1  0.2825274237973  0.5795798219954  0.5010874708818 1.0
C      1  0.4186150133385  0.3263615483807  0.7023389418962 1.0
C      1  0.5281942958864  0.3226557960299  0.4822280540323 1.0
C      1  0.3263434686176  0.2472152026129  0.4292133471431 1.0
C      1  0.6506952564506  0.6658380156086  0.6717161306829 1.0
C      1  0.5466255524892  0.2501453767398  0.6496564152904 1.0
C      1  0.4447989931585  0.2178953432109  0.3328301236400 1.0
C      1  0.3559813482514  0.7850449108816  0.5021400331501 1.0
C      1  0.5114447638307  0.8188735599029  0.5781794332382 1.0
C      1  0.5373848643764  0.2300332352943  0.3074135018967 1.0
C      1  0.7592224999056  0.5657307006984  0.6002094649534 1.0
C      1  0.4260219553791  0.5639622276075  0.4166586171471 1.0
C      1  0.5100671640975  0.3042989688936  0.7184977784171 1.0
C      1  0.3192109119663  0.7339952236806  0.5730938757465 1.0
C      1  0.6062871995683  0.7957222496395  0.5689724632176 1.0
C      1  0.4511788778429  0.8170749348052  0.5067724497408 1.0
C      1  0.7570271456807  0.6114453253258  0.4494458949650 1.0
C      1  0.3955062436073  0.6931585461619  0.6233108314778 1.0
C      1  0.4672129274662  0.6557956027332  0.7688130307640 1.0
C      1  0.6233642335365  0.3271704525854  0.3599999871430 1.0
C      1  0.5996815034078  0.2361383259929  0.3758001543147 1.0
C      1  0.5267851090533  0.5923928042047  0.5476986237942 1.0
C      1  0.2836431537532  0.3139687860587  0.4888898803409 1.0
C      1  0.4483959004481  0.7191810249699  0.7017813730561 1.0
C      1  0.5794091321955  0.7652416961514  0.4146728351671 1.0
C      1  0.4348948700583  0.6315087404591  0.5612607007175 1.0
C      1  0.5852802562139  0.4675155962708  0.4645671749605 1.0
C      1  0.4245435547503  0.5661024689555  0.2039222885100 1.0
C      1  0.5129013569658  0.7758519444191  0.6670353854517 1.0
C      1  0.2518752555188  0.3699579220596  0.4111127377207 1.0
C      1  0.5449232321401  0.5974100283137  0.7808193950103 1.0
C      1  0.6674298214294  0.5034648634711  0.7217815638416 1.0
C      1  0.5603419362621  0.3852073903092  0.4147173760947 1.0
C      1  0.7450989054687  0.4031465394354  0.6294557665538 1.0
C      1  0.5985969465003  0.6223004214468  0.4804720614631 1.0
C      1  0.6314029908833  0.4107006107235  0.7327245504583 1.0
C      1  0.3381992592043  0.7680857217800  0.4070648337288 1.0
C      1  0.6893912523769  0.6708539420485  0.5039081849864 1.0
C      1  0.7340053926614  0.3137752269607  0.4900069345369 1.0
C      1  0.3795469135037  0.6036860030002  0.4903047949847 1.0
C      1  0.3381252000010  0.3386775466421  0.2844769310346 1.0
C      1  0.7990011865546  0.4315313139618  0.4000032532892 1.0
C      1  0.2750388917061  0.7093495421927  0.3747009478418 1.0
C      1  0.5456288289646  0.3963569520415  0.2304164437608 1.0
C      1  0.5072826629638  0.5976438954731  0.3863890330707 1.0
C      1  0.4704208906480  0.4391587440546  0.2768491300208 1.0
C      1  0.4385630822849  0.4438394963930  0.5292606777251 1.0
C      1  0.2165976131789  0.5102171494830  0.6280296120049 1.0
C      1  0.3432087156442  0.4351446379317  0.5635658968637 1.0
C      1  0.7622152974620  0.4921134039634  0.3343765053641 1.0
C      1  0.4754906540896  0.4369205097255  0.7916023871699 1.0
C      1  0.4915796852718  0.8039892708276  0.4186825250170 1.0
C      1  0.2915744668330  0.3010782057993  0.3564030210290 1.0
C      1  0.4833531058914  0.1911353028803  0.5005117627032 1.0
C      1  0.5141464667917  0.3043193720889  0.2404267579024 1.0
C      1  0.2501233994787  0.5500010123548  0.4036317206388 1.0
C      1  0.5158389193510  0.5895520166924  0.2209262707567 1.0
C      1  0.4282836007652  0.4700365424316  0.4299658732643 1.0
C      1  0.5767166558033  0.6703400258718  0.3858130741627 1.0
C      1  0.7591754456384  0.3428529106939  0.3964680602601 1.0
C      1  0.2295843241566  0.4822523687405  0.7189615266404 1.0
C      1  0.8091702893629  0.4571917256872  0.4891930897306 1.0
C      1  0.5253435702031  0.4989515531910  0.5359957246915 1.0
C      1  0.2440517616804  0.5791800054774  0.7364368807825 1.0
C      1  0.2551854961086  0.6581372183883  0.5698324104571 1.0
C      1  0.3131706769476  0.4586090478544  0.7623515289913 1.0
C      1  0.6607176584420  0.2619075062752  0.5296975645215 1.0
C      1  0.4133464864361  0.2060671739285  0.4244790640569 1.0
C      1  0.7757555736299  0.3839206690062  0.5443909316167 1.0
C      1  0.3240672475258  0.5550331789479  0.7861930101342 1.0
C      1  0.6403903458873  0.5980331708899  0.3358557547180 1.0
C      1  0.4187753892240  0.2872125988234  0.2687164870986 1.0
C      1  0.5958453228768  0.5553818791602  0.2529111465762 1.0
C      1  0.2238173960450  0.6082273876613  0.6461351407531 1.0
C      1  0.4708766706703  0.2167218873650  0.5906172810418 1.0
C      1  0.4278683504848  0.7301179185071  0.2779898866447 1.0
C      1  0.6361718974081  0.2772753229775  0.6224001396607 1.0
C      1  0.4083091260489  0.5869174051893  0.8010432676914 1.0
C      1  0.5484841563888  0.3810402638967  0.7619416473310 1.0
C      1  0.7932309735271  0.5474836208353  0.5123092839185 1.0
C      1  0.5748325480517  0.2319713359480  0.4725318550612 1.0
C      1  0.3239606345971  0.3398686932534  0.5674462226775 1.0
C      1  0.6060392650625  0.7494017066462  0.6560785614655 1.0
C      1  0.6766324918590  0.3514799505391  0.6698218966049 1.0
C      1  0.4781369080090  0.4224521423486  0.3679854450978 1.0
C      1  0.7041008535267  0.4373315554224  0.2789465667426 1.0
C      1  0.7385433930435  0.4951074317297  0.6599863093487 1.0
C      1  0.6206688229145  0.4606422359920  0.2397851837125 1.0
C      1  0.3913137022262  0.4866772027995  0.2459240462580 1.0
C      1  0.6419142470538  0.7636173930088  0.4889343606814 1.0
C      1  0.3901007450165  0.4015625637391  0.7547170763432 1.0
C      1  0.2637657379030  0.4568558235043  0.3682035829355 1.0
C      1  0.3172609366899  0.4356755808416  0.2854411759359 1.0
C      1  0.5951130032999  0.5475430289592  0.4144150455598 1.0
C      1  0.4834209132131  0.5263698071564  0.8109454115482 1.0
C      1  0.7033906551912  0.3506168024773  0.3190101298106 1.0
C      1  0.6261673526259  0.5913476509162  0.7336935884390 1.0
C      1  0.4218051883225  0.7777072502575  0.3565518552604 1.0
C      1  0.7367407524924  0.5809554129684  0.3619513184079 1.0
C      1  0.4684983273938  0.3519811188033  0.5416852734156 1.0
C      1  0.2765781128721  0.4980473107230  0.5583622605476 1.0
C      1  0.7091108340462  0.6446186722676  0.6001706277577 1.0
C      1  0.4468496265426  0.6582670650006  0.2307991722153 1.0
C      1  0.4060285338026  0.2969066805551  0.6066100678182 1.0
C      1  0.2484422498259  0.6305886300182  0.3594767543030 1.0
END
