TITL C-151104-9391-12 -1.538 3375.00 0 0 0 30 (C1) n - 1
REM
REM Run started: at 2020.03.16 04:06:37 in /rds/user/bk393/hpc-work/AIRSS.pl-DENE/CARBON/New-Try
REM VASP from code version vasp.5.4.4.18Apr17-6-g9f103f2a35 (build Oct 11 2019 16:45:47) gamma-only
REM
REM
REM
REM
REM ./C.cell (9f5935e56d41cf50cb14479ce98dda23)
REM AIRSS Version 0.9.1 bugfix July 2018 build 013d7b7c2542+ Fri, 06 Jul 2018 19:26:36 +0100
REM compiler GCC version 4.8.5 20150623 (Red Hat 4.8.5-39)
REM options -cpp -mtune=generic -march=x86-64 -g -O0
REM seed -1508983211 1689869177 -1161436449 1078650328 -468146790 -891502145 868048387 -531436985 1012426156 728455768 1068471244 1593628509
REM
REM C.POTCAR (d86ddea03c3ceb6dc662c8ad6801f873)
REM 
CELL 1.54180   15.00000   15.00000   15.00000   90.00000   90.00000   90.00000
LATT -1
SFAC C  
C      1  0.6063005083704  0.5918188896693  0.4913166914750 1.0
C      1  0.6865390245187  0.4599706568208  0.5575732406869 1.0
C      1  0.3775137763534  0.6237200678795  0.6922267407072 1.0
C      1  0.6890248826352  0.3400880079879  0.6302831780955 1.0
C      1  0.5569592757698  0.3400060205063  0.3423921863517 1.0
C      1  0.6579606425562  0.4327919899514  0.6462894134189 1.0
C      1  0.4095813463255  0.5884567297091  0.5671278724240 1.0
C      1  0.3234433752923  0.6050944719972  0.6122591385350 1.0
C      1  0.3475383609436  0.4723589561559  0.3350085628834 1.0
C      1  0.2414146632451  0.6039305228716  0.5768601179537 1.0
C      1  0.5907296251097  0.4783472516024  0.6883246794508 1.0
C      1  0.7050826365257  0.3670064162941  0.5353578074473 1.0
C      1  0.4394306118982  0.6130260853057  0.4790669028891 1.0
C      1  0.3854381049278  0.6149002547950  0.3969254021128 1.0
C      1  0.3126440846760  0.5468421136771  0.3766117475660 1.0
C      1  0.4092459936220  0.4190248299652  0.3160341583640 1.0
C      1  0.2116382286897  0.5796438944500  0.4996421669204 1.0
C      1  0.5296441736864  0.6611234819055  0.3628138637712 1.0
C      1  0.5282157733828  0.5331466039165  0.6820246158455 1.0
C      1  0.6888491215454  0.2628620123899  0.6758210479746 1.0
C      1  0.6292207252634  0.3262303038159  0.3906593786781 1.0
C      1  0.4516432717389  0.5750782418095  0.6555151927395 1.0
C      1  0.6829804312331  0.3301807766729  0.4550180522472 1.0
C      1  0.6635729689216  0.5371640505667  0.5155303537337 1.0
C      1  0.5038820815392  0.6966965751807  0.2808489793707 1.0
C      1  0.5322333872168  0.6303194588157  0.4521304401929 1.0
C      1  0.2324457638786  0.5580084991270  0.4196881648372 1.0
C      1  0.4827084035312  0.3704345392218  0.3175220685958 1.0
C      1  0.6872850841138  0.1884387310039  0.7185917063853 1.0
C      1  0.4368340724897  0.6532896659356  0.3305360283464 1.0
END
