TITL C-153043-6840-3 -4.135 3375.00 -722.43403838 0 0 88 (C1) n - 1
REM
REM Run started: at 2020.12.26 12:10:15 in /rds/project/t2_vol4/rds-t2-cs072/BORA/CARBON/AIRSS/Generating-Clusters/Str-Search/Only-C1/C10-100
REM VASP from code version vasp.5.4.4.18Apr17-6-g9f103f2a35 (build Oct 11 2019 16:45:47) gamma-only
REM
REM
REM
REM
REM ./C.cell (67c5d0192afd7a3ce4a0888e5fe73b87)
REM AIRSS Version 0.9.1 bugfix July 2018 build 013d7b7c2542+ Fri, 06 Jul 2018 19:26:36 +0100
REM compiler GCC version 4.8.5 20150623 (Red Hat 4.8.5-39)
REM options -cpp -mtune=generic -march=x86-64 -g -O0
REM seed 956650206 -138796953 -1681434439 204741808 -887555869 -862027559 661603088 25993651 -753455571 -440743425 -245257716 1826462630
REM
REM C.POTCAR (d86ddea03c3ceb6dc662c8ad6801f873)
REM 
CELL 1.54180   15.00000   15.00000   15.00000   90.00000   90.00000   90.00000
LATT -1
SFAC C  
C      1  0.5469525321293  0.4396666706213  0.5509564655225 1.0
C      1  0.5639057672720  0.2539450009626  0.6137005465630 1.0
C      1  0.5468605832191  0.4664837016495  0.7261327843030 1.0
C      1  0.5111873322035  0.3646570667298  0.5039100960483 1.0
C      1  0.2685446682726  0.3339291838718  0.5224841197290 1.0
C      1  0.4085153389467  0.3457714519692  0.7235955454964 1.0
C      1  0.5575176284302  0.2909723332055  0.3344985210621 1.0
C      1  0.7157712162595  0.2915729693419  0.5527748801023 1.0
C      1  0.4027423091803  0.6876651262852  0.4540380501443 1.0
C      1  0.3592913971194  0.5088138530471  0.7020167399445 1.0
C      1  0.7252600656315  0.3620578484675  0.6146890174987 1.0
C      1  0.4145731696298  0.5983487703581  0.3005217000262 1.0
C      1  0.3419691649812  0.2790798180830  0.5552798430436 1.0
C      1  0.2599543097352  0.5721277701444  0.4370035260731 1.0
C      1  0.3890951194111  0.6568457768031  0.6798231290424 1.0
C      1  0.8034679285438  0.4490049742362  0.4625380024264 1.0
C      1  0.6378749956218  0.2313354168133  0.5602042111716 1.0
C      1  0.4161915826295  0.7015949109180  0.2935480106980 1.0
C      1  0.6138949662186  0.7089471861714  0.5643996662458 1.0
C      1  0.3415417771260  0.7404766744482  0.3256571215846 1.0
C      1  0.4913160168870  0.5734035707999  0.6086577250619 1.0
C      1  0.4817072980040  0.4732227251302  0.2176118885239 1.0
C      1  0.6525232598684  0.6461102267348  0.3101522604831 1.0
C      1  0.5714538644811  0.7453229299090  0.4003487263048 1.0
C      1  0.7126252256768  0.5839549938603  0.3497728101389 1.0
C      1  0.7128086273261  0.3376105594816  0.3808943760331 1.0
C      1  0.4782621704973  0.3834413719022  0.4170968054440 1.0
C      1  0.2773025719424  0.3605843850906  0.6761428522443 1.0
C      1  0.7365151360177  0.7282839340071  0.4212179214489 1.0
C      1  0.5171225009532  0.5647584404920  0.7155273782586 1.0
C      1  0.7521549757808  0.6343632535827  0.4259368851343 1.0
C      1  0.4508086534946  0.6237316259878  0.3978491391689 1.0
C      1  0.2797033896793  0.5491748337069  0.6553229693241 1.0
C      1  0.5023761707110  0.3713696617150  0.7142541574171 1.0
C      1  0.4541579878461  0.3136408233606  0.3464053987862 1.0
C      1  0.2453151114081  0.4879561427871  0.5876137893562 1.0
C      1  0.5652323624993  0.6366742142752  0.2789512973978 1.0
C      1  0.3168383774217  0.7771946684551  0.5643537814982 1.0
C      1  0.3188599064784  0.7203553857478  0.4099905115817 1.0
C      1  0.2967165658027  0.5182911633675  0.5091114155098 1.0
C      1  0.7533492857886  0.5992197905701  0.5168004511410 1.0
C      1  0.3938461177235  0.8115812311844  0.5589579434437 1.0
C      1  0.3012077437332  0.6390253191926  0.6378357397420 1.0
C      1  0.7024793289853  0.4901726512825  0.3416556946379 1.0
C      1  0.3875286451559  0.5090683105579  0.5177387997975 1.0
C      1  0.3476815026402  0.5247183020192  0.2934514488856 1.0
C      1  0.3879877286221  0.3576850844337  0.2846174994996 1.0
C      1  0.6588187761476  0.7272756082243  0.3696384628682 1.0
C      1  0.5359920468996  0.4784112594857  0.2990774958972 1.0
C      1  0.2542490667086  0.3647163921844  0.4366952938194 1.0
C      1  0.6424201366186  0.4482455167138  0.7177256937763 1.0
C      1  0.2396853107428  0.3942918632910  0.5966332258805 1.0
C      1  0.4551657255464  0.7329889271576  0.5274197818612 1.0
C      1  0.3439012803478  0.4126959277604  0.7287307700548 1.0
C      1  0.4228916526956  0.4973534708530  0.6131084842641 1.0
C      1  0.2748250264066  0.6938671511530  0.5610821995579 1.0
C      1  0.2611539448305  0.6633736565323  0.4658290839966 1.0
C      1  0.7814292017884  0.5074850627082  0.5321521719111 1.0
C      1  0.4177175498168  0.2424590266250  0.5044168520696 1.0
C      1  0.3946054782218  0.4465712360357  0.2559565252467 1.0
C      1  0.4663131788653  0.6765143207058  0.6152476201560 1.0
C      1  0.6282557793262  0.4436610515770  0.3057075514488 1.0
C      1  0.5525674052555  0.2261498574052  0.4047661201941 1.0
C      1  0.7505261949551  0.4587551423707  0.6083318279943 1.0
C      1  0.5929582864941  0.6309236881770  0.7004130556349 1.0
C      1  0.4935497284842  0.4678858175161  0.3876400745849 1.0
C      1  0.4955375769162  0.2809807739074  0.5483772519264 1.0
C      1  0.5013027102403  0.4348410623485  0.6363385049961 1.0
C      1  0.5785225306231  0.3127016623792  0.6856580471322 1.0
C      1  0.2798968428376  0.5138825672815  0.3581295127629 1.0
C      1  0.5390546935161  0.5312432822093  0.5292733639571 1.0
C      1  0.2548834134611  0.4239104327225  0.3774161130533 1.0
C      1  0.7006378744672  0.5085773669349  0.6722185259311 1.0
C      1  0.4183810292492  0.5865923109642  0.7357232929601 1.0
C      1  0.4734017597482  0.5397177569975  0.4528142086216 1.0
C      1  0.4524295185537  0.2321948277061  0.4151242019354 1.0
C      1  0.5015820415349  0.5658600693055  0.2555310036191 1.0
C      1  0.6328081176574  0.3499357665575  0.3258095837412 1.0
C      1  0.5543129732193  0.7399721376937  0.4944037317039 1.0
C      1  0.6289742098276  0.2210878643292  0.4634921332604 1.0
C      1  0.7060516914792  0.2788589361468  0.4525784258694 1.0
C      1  0.6604058097986  0.3600532558413  0.6891990132782 1.0
C      1  0.6750895481175  0.5989326580432  0.6608574155917 1.0
C      1  0.5608325521103  0.6986728765343  0.6440450170686 1.0
C      1  0.7564996993059  0.4245602898306  0.3898978310612 1.0
C      1  0.3457108334864  0.2986388407408  0.6521856326229 1.0
C      1  0.5101705749907  0.6968848476758  0.3366809702906 1.0
C      1  0.6934960507219  0.6440631336131  0.5776322844107 1.0
END
