TITL C-153043-6840-8 -0.791 3375.00 -120.34053909 0 0 16 (C1) n - 1
REM
REM Run started: at 2020.12.26 13:44:24 in /rds/project/t2_vol4/rds-t2-cs072/BORA/CARBON/AIRSS/Generating-Clusters/Str-Search/Only-C1/C10-100
REM VASP from code version vasp.5.4.4.18Apr17-6-g9f103f2a35 (build Oct 11 2019 16:45:47) gamma-only
REM
REM
REM
REM
REM ./C.cell (67c5d0192afd7a3ce4a0888e5fe73b87)
REM AIRSS Version 0.9.1 bugfix July 2018 build 013d7b7c2542+ Fri, 06 Jul 2018 19:26:36 +0100
REM compiler GCC version 4.8.5 20150623 (Red Hat 4.8.5-39)
REM options -cpp -mtune=generic -march=x86-64 -g -O0
REM seed 322212783 975051245 191695838 -1833338220 949880277 12649085 69330129 -1325769539 472150265 -175114579 2017617007 -1599522601
REM
REM C.POTCAR (d86ddea03c3ceb6dc662c8ad6801f873)
REM 
CELL 1.54180   15.00000   15.00000   15.00000   90.00000   90.00000   90.00000
LATT -1
SFAC C  
C      1  0.5937304648423  0.7107886803568  0.5423108196688 1.0
C      1  0.3595143865743  0.4193523025301  0.5817995814392 1.0
C      1  0.3576630295716  0.4963481711606  0.5371466239982 1.0
C      1  0.5281313396733  0.3599775857558  0.5675619724597 1.0
C      1  0.5112733848960  0.5160544464820  0.3058188345101 1.0
C      1  0.5362793822285  0.5375838171215  0.5628587031570 1.0
C      1  0.4791783545701  0.5763126970591  0.4829933008608 1.0
C      1  0.5606810065799  0.3251074467358  0.4834480714936 1.0
C      1  0.5305690638130  0.4516396380765  0.5897188761536 1.0
C      1  0.5385478816904  0.4498629388522  0.3707426295020 1.0
C      1  0.5017125874726  0.5312896398685  0.3974452099185 1.0
C      1  0.4436029746071  0.3900556114269  0.5883088120771 1.0
C      1  0.5648081296947  0.3773962628217  0.4172891424372 1.0
C      1  0.5315239822878  0.6638766623481  0.4912019959739 1.0
C      1  0.5791147186524  0.6216668839236  0.5722932642437 1.0
C      1  0.3836693128462  0.5726872154809  0.5090623621066 1.0
END
