TITL C-153043-6840-13 -1.469 3375.00 -223.32146568 0 0 29 (C1) n - 1
REM
REM Run started: at 2020.12.26 15:26:03 in /rds/project/t2_vol4/rds-t2-cs072/BORA/CARBON/AIRSS/Generating-Clusters/Str-Search/Only-C1/C10-100
REM VASP from code version vasp.5.4.4.18Apr17-6-g9f103f2a35 (build Oct 11 2019 16:45:47) gamma-only
REM
REM
REM
REM
REM ./C.cell (67c5d0192afd7a3ce4a0888e5fe73b87)
REM AIRSS Version 0.9.1 bugfix July 2018 build 013d7b7c2542+ Fri, 06 Jul 2018 19:26:36 +0100
REM compiler GCC version 4.8.5 20150623 (Red Hat 4.8.5-39)
REM options -cpp -mtune=generic -march=x86-64 -g -O0
REM seed -1186770634 -1552891149 1286872472 76464388 -1842884964 2130804415 1280333101 -41536122 -1234597185 -158448454 -1789466093 191553042
REM
REM C.POTCAR (d86ddea03c3ceb6dc662c8ad6801f873)
REM 
CELL 1.54180   15.00000   15.00000   15.00000   90.00000   90.00000   90.00000
LATT -1
SFAC C  
C      1  0.5424450286475  0.5903810809174  0.6717815911596 1.0
C      1  0.5242648134955  0.6306382297710  0.5408308083636 1.0
C      1  0.4520003352537  0.3876083052060  0.6583771549874 1.0
C      1  0.5779859924384  0.4430951472495  0.7288867085246 1.0
C      1  0.1848541467317  0.4383124734656  0.2500353934303 1.0
C      1  0.4949295812198  0.5708059561832  0.3269143893137 1.0
C      1  0.7695492276401  0.4903444039948  0.4592686487542 1.0
C      1  0.3433687714520  0.5137420315254  0.2853479091957 1.0
C      1  0.6950494468031  0.3922392877205  0.5725989696509 1.0
C      1  0.3914710310397  0.5369897494748  0.5975679149020 1.0
C      1  0.6038736817435  0.4008404393624  0.5815364945410 1.0
C      1  0.4117577546665  0.5033793001480  0.4394278390034 1.0
C      1  0.4659461561613  0.5963706562236  0.6144544457948 1.0
C      1  0.7225798799903  0.5458985016243  0.4150831806888 1.0
C      1  0.5610060851078  0.4653537443851  0.5176215857344 1.0
C      1  0.4869327074755  0.4592890793544  0.4706172845646 1.0
C      1  0.5935335787485  0.5639116822961  0.5079657163149 1.0
C      1  0.6017561104465  0.6214530585523  0.5924381780071 1.0
C      1  0.5721488756139  0.5886927211063  0.3511947234348 1.0
C      1  0.3864154242108  0.4524473839792  0.6423237297908 1.0
C      1  0.7491870077055  0.4275863331867  0.5174651999456 1.0
C      1  0.3591901404558  0.5292235195268  0.5109898192234 1.0
C      1  0.5645781568844  0.5268467924417  0.7346571298548 1.0
C      1  0.4108738864175  0.5303625740345  0.3415933022763 1.0
C      1  0.2133553333937  0.4710676375297  0.1710211873276 1.0
C      1  0.2732280880099  0.4868372994563  0.2434610173222 1.0
C      1  0.3618631520034  0.3693296990405  0.6790952081734 1.0
C      1  0.5479511226607  0.3864698108233  0.6604653510340 1.0
C      1  0.6379045835830  0.5804831014204  0.4169790186860 1.0
END
