TITL C-158880-5323-15 -10.523 3375.00 -1919.37787422 0 0 234 (C1) n - 1
REM
REM Run started: at 2020.07.13 19:01:46 in /home/heco/bkarasulu/work/CARBON/AIRSS/Str-Search
REM VASP from code version vasp.5.4.4.18Apr17-6-g9f103f2a35 (build Jul 02 2020 21:03:42) gamma-only
REM
REM
REM
REM
REM ./C.cell (90889e035cd0f9d0e5f9cb6dd9eb5d52)
REM AIRSS Version 0.9.1 bugfix July 2018 build 013d7b7c2542+ Fri, 06 Jul 2018 19:26:36 +0100
REM compiler GCC version 9.2.0
REM options -cpp -mtune=generic -march=x86-64 -g -O0
REM seed 869136928 1833197024 1724059924 134423838 1170612334 1968457120 674864018 -1694803164 317408083 2065857183 -494792724 826855613 -314929399 990302825 -1195241583 -1796934455 -499054602 71160105 374781003 -303393810 1029362104 -122299485 199071664 -771047694 1270193297 692792803 -1560995263 259798810 388689841 1192579425 -851094742 -965003792 1923562863
REM
REM C.POTCAR (d86ddea03c3ceb6dc662c8ad6801f873)
REM 
CELL 1.54180   15.00000   15.00000   15.00000   90.00000   90.00000   90.00000
LATT -1
SFAC C  
C      1  0.1360204942186  0.4863568538386  0.7210166032528 1.0
C      1  0.3328286507171  0.5612489424006  0.1073132404859 1.0
C      1  0.3368607045059  0.6008746385232  0.8386517962033 1.0
C      1  0.6448702301879  0.6024856906755  0.2174228810403 1.0
C      1  0.4061952062943  0.0971119905196  0.3456784816880 1.0
C      1  0.5988098819718  0.8598687219540  0.1862453985845 1.0
C      1  0.2562308706292  0.0991506810718  0.6357863742862 1.0
C      1  0.6179464113871  0.3910548904570  0.1127154758368 1.0
C      1  0.7994539495610  0.8234617970361  0.5595027776110 1.0
C      1  0.6429337959887  0.5621448669401  0.4656936224881 1.0
C      1  0.5768627051340  0.7826517014410  0.3454561340150 1.0
C      1  0.4717097328079  0.5490605553015  0.7593908123772 1.0
C      1  0.1965440884154  0.5866166376419  0.5182597672691 1.0
C      1  0.8597080861099  0.5344991708833  0.3296566734553 1.0
C      1  0.2407906517430  0.3650118401053  0.3422130414196 1.0
C      1  0.6404714591125  0.4457708040320  0.0326800468074 1.0
C      1  0.8821678822847  0.7748265553457  0.5320038750028 1.0
C      1  0.7830340247363  0.2814104742813  0.3917426390054 1.0
C      1  0.4670275352689  0.2184862919005  0.2213906017151 1.0
C      1  0.0470677244278  0.5878770158398  0.4844105321049 1.0
C      1  0.8092972853137  0.6704859820960  0.6297564703375 1.0
C      1  0.2853434566785  0.5764112280770  0.5113997225913 1.0
C      1  0.6476784903680  0.7140397752934  0.5765173832720 1.0
C      1  0.4590805862452  0.4453528100539  0.3593585043085 1.0
C      1  0.5943771513528  0.4078140559315  0.4742409984295 1.0
C      1  0.5534110175225  0.1123367313432  0.3869289915891 1.0
C      1  0.2479895364894  0.2311249268560  0.7597469850717 1.0
C      1  0.2995162837376  0.3572380291995  0.5378504706255 1.0
C      1  0.5018371096835  0.8576726558175  0.1876778368867 1.0
C      1  0.7844774168393  0.3797377957219  0.8159171027091 1.0
C      1  0.3274632896191  0.4955462335575  0.6370366781635 1.0
C      1  0.3120224790848  0.1619102699931  0.7860932066048 1.0
C      1  0.4827309806332  0.4981583362432  0.5414885543598 1.0
C      1  0.9563397356140  0.8087610230411  0.4869439879839 1.0
C      1  0.4811353911380  0.8036533542974  0.8089736698545 1.0
C      1  0.1051601886908  0.5128235367003  0.3027053309174 1.0
C      1  0.6098060807910  0.1877982099431  0.3701449910322 1.0
C      1  0.7903639833532  0.5470773910270  0.7906401811556 1.0
C      1  0.5868797205508  0.6575648184902  0.1556725952348 1.0
C      1  0.6544240186861  0.7941685826732  0.6393328315575 1.0
C      1  0.7823140738723  0.7357596800553  0.6990961943601 1.0
C      1  0.5723681917672  0.5879948663954  0.0872252785252 1.0
C      1  0.2268649746956  0.1620655225600  0.3298335600299 1.0
C      1  0.8439924935565  0.4327102779981  0.6804740277607 1.0
C      1  0.8567659671934  0.2430265284468  0.5222769290914 1.0
C      1  0.6913864507912  0.2677419941030  0.2384408728796 1.0
C      1  0.7668868960643  0.5542068242196  0.3662182392672 1.0
C      1  0.7348755721799  0.8374663528352  0.4884294729508 1.0
C      1  0.4335019931785  0.7172222146939  0.8082018594351 1.0
C      1  0.3074937201406  0.5968811965181  0.2662973818183 1.0
C      1  0.5149383256277  0.0869001310054  0.4694715296767 1.0
C      1  0.5495521490226  0.4462859479648  0.3936079439008 1.0
C      1  0.5810324192687  0.2134820057554  0.6266644476351 1.0
C      1  0.2228685973222  0.3274012439566  0.4944692635150 1.0
C      1  0.8645012307267  0.3011274505704  0.4390756747233 1.0
C      1  0.7054238313397  0.2697398797249  0.7432559983165 1.0
C      1  0.6550749056035  0.4160819119934  0.9436351209211 1.0
C      1  0.8788291405313  0.6855214395420  0.5583783279372 1.0
C      1  0.4837462347711  0.9196905192380  0.3373637378223 1.0
C      1  0.9721034985384  0.4278573754026  0.4735387219588 1.0
C      1  0.4122655080349  0.2957148699100  0.4213936754631 1.0
C      1  0.1330877065732  0.5596495768015  0.4523155743409 1.0
C      1  0.4800456096571  0.6480031012705  0.7441459474477 1.0
C      1  0.4898426479338  0.6211160886075  0.9092907851128 1.0
C      1  0.6418796814539  0.7361634703397  0.3924070826309 1.0
C      1  0.4007184078316  0.3226632653785  0.5242064456693 1.0
C      1  0.5903484119667  0.9067662261827  0.4490503125301 1.0
C      1  0.7314357682980  0.7716030039851  0.4191618037296 1.0
C      1  0.6529782843897  0.3499626628518  0.6065284910678 1.0
C      1  0.7117147654918  0.5722012270087  0.5463633782822 1.0
C      1  0.4824723803126  0.6735727665059  0.5563662751914 1.0
C      1  0.4839388705848  0.5547888493580  0.0774891701704 1.0
C      1  0.7513926908451  0.4081193308569  0.2094522063594 1.0
C      1  0.1022622003999  0.2607070959818  0.4224846808964 1.0
C      1  0.6302107137530  0.4723998654963  0.3364660057345 1.0
C      1  0.8093053048037  0.5339478621750  0.5570671631857 1.0
C      1  0.5918318268924  0.4392793187112  0.2001243639704 1.0
C      1  0.5681282276009  0.2767544277213  0.8898270951903 1.0
C      1  0.5220207447710  0.4894449698369  0.7103049904259 1.0
C      1  0.2663625249949  0.7997521812726  0.5383763564990 1.0
C      1  0.4061306219626  0.1434705370861  0.7932914766613 1.0
C      1  0.5984140782370  0.6485237477328  0.4304450245385 1.0
C      1  0.4434342959510  0.8893320875166  0.2561518310018 1.0
C      1  0.6668548398479  0.5109722332336  0.6139570279151 1.0
C      1  0.1211901999421  0.3297447552735  0.4850264219390 1.0
C      1  0.3626606986502  0.4361751334622  0.9779003678560 1.0
C      1  0.4946367417815  0.1009129223256  0.3102159789469 1.0
C      1  0.6881389158722  0.4883452336197  0.8895668879815 1.0
C      1  0.3816086115524  0.1944920886539  0.6498162316078 1.0
C      1  0.2478502414242  0.2863703287489  0.4082941667502 1.0
C      1  0.7998629227756  0.7174019842089  0.3698475575432 1.0
C      1  0.3835772890396  0.7593434346853  0.4377189230002 1.0
C      1  0.2986844095254  0.0590715985523  0.5737483975389 1.0
C      1  0.4309413678989  0.6964565853873  0.1400977336682 1.0
C      1  0.5031480152375  0.9209148414521  0.4882558830655 1.0
C      1  0.6532829732253  0.3273605818064  0.9000733986225 1.0
C      1  0.3903729000276  0.2334461358394  0.2750855779639 1.0
C      1  0.3176659434985  0.5042544685020  0.3101599156376 1.0
C      1  0.3444605981872  0.0812939955810  0.4973627816298 1.0
C      1  0.7850757316976  0.2779227043336  0.6930690846680 1.0
C      1  0.1886052191758  0.7645390995008  0.5706985131794 1.0
C      1  0.5309540564453  0.1513887525620  0.2361115588524 1.0
C      1  0.7640726122751  0.4688387622241  0.8392220200721 1.0
C      1  0.8141686107933  0.3763402736420  0.2759309115812 1.0
C      1  0.3687115385570  0.8342974673286  0.2938901495082 1.0
C      1  0.0387704137808  0.8027166971207  0.4855693780174 1.0
C      1  0.6374408506935  0.5343585793430  0.0536419750482 1.0
C      1  0.7240763896197  0.6219243241083  0.8101919847688 1.0
C      1  0.2024889542726  0.5331462464194  0.7791632884406 1.0
C      1  0.6552588099510  0.8880984238560  0.5117049931021 1.0
C      1  0.5626497844774  0.6898112191776  0.7119593577546 1.0
C      1  0.1788142382212  0.3909006922615  0.7470758602384 1.0
C      1  0.6568127528518  0.0854045788370  0.5477231666477 1.0
C      1  0.5646341215531  0.8763292252829  0.3620319834970 1.0
C      1  0.3443971069156  0.5878713270781  0.5962786265082 1.0
C      1  0.4213703746662  0.3422726459049  0.8224486163634 1.0
C      1  0.6594029055845  0.5804548000092  0.8734687811741 1.0
C      1  0.5148127921511  0.3164277712948  0.8183258681960 1.0
C      1  0.6045586270753  0.2466039455774  0.5353554704034 1.0
C      1  0.1915981139100  0.5157884534121  0.1759774662776 1.0
C      1  0.7009525167012  0.2820772744361  0.5513854048805 1.0
C      1  0.5039834168721  0.7213053518832  0.3098306334654 1.0
C      1  0.3582407388260  0.4605108466614  0.0790266960508 1.0
C      1  0.6915127941238  0.3334367185572  0.1704925165432 1.0
C      1  0.6727602701220  0.4400141717427  0.2552285252056 1.0
C      1  0.5453322839208  0.3319239396554  0.7326303342950 1.0
C      1  0.2215311742523  0.4260855194628  0.1743898714294 1.0
C      1  0.8409739440976  0.5234624160317  0.7163436232321 1.0
C      1  0.2489168241989  0.4526719616831  0.7726974142537 1.0
C      1  0.6033540026478  0.8745839336679  0.6030683692965 1.0
C      1  0.5125058208433  0.3796130701715  0.2175673005250 1.0
C      1  0.6220954887446  0.2899928547004  0.6873272729179 1.0
C      1  0.7696476792154  0.2915962491737  0.2990174936682 1.0
C      1  0.4962323436313  0.6851172156436  0.6535137848453 1.0
C      1  0.9068937370840  0.3850692846442  0.4143897116898 1.0
C      1  0.4203130617420  0.0541205000593  0.4386344390637 1.0
C      1  0.8061604213865  0.4412437649141  0.5917013419636 1.0
C      1  0.6925896048396  0.4122775159181  0.4678612845666 1.0
C      1  0.7144132242246  0.3161267188741  0.8303586467067 1.0
C      1  0.5992288346236  0.5174880672998  0.6671240783961 1.0
C      1  0.4622497017774  0.1530627974266  0.8675764191955 1.0
C      1  0.1098936746658  0.5301343451806  0.2216315947480 1.0
C      1  0.5108391597730  0.7005692639378  0.2030387778056 1.0
C      1  0.6147474521480  0.5226131657329  0.2499009433130 1.0
C      1  0.4632469485487  0.8807894692947  0.6521337136395 1.0
C      1  0.7996263206901  0.5983132627501  0.2833681979088 1.0
C      1  0.3999438905966  0.7979548789682  0.7629252123501 1.0
C      1  0.4471914070771  0.1514653416109  0.6985938711273 1.0
C      1  0.3083481183540  0.8249915818047  0.4487939874427 1.0
C      1  0.2497421385393  0.3285808582868  0.1621468943226 1.0
C      1  0.3391499209728  0.4582608658905  0.7351217987284 1.0
C      1  0.4476115061920  0.2850803409942  0.3348632452203 1.0
C      1  0.7554897811254  0.8088938977512  0.6412546861153 1.0
C      1  0.5607199788225  0.0872968440940  0.5537104851372 1.0
C      1  0.0731368440806  0.6611264764758  0.5481115997571 1.0
C      1  0.4690477659110  0.7756874466259  0.1482592890776 1.0
C      1  0.4799274861616  0.3898980830588  0.6829294320713 1.0
C      1  0.2279411296230  0.3569096680029  0.2526732991841 1.0
C      1  0.1943783854177  0.3024434312023  0.7549771163116 1.0
C      1  0.3340354991159  0.1711538766521  0.3300256682552 1.0
C      1  0.6731251804589  0.8227639027731  0.1997482691284 1.0
C      1  0.7106777904615  0.4244107073823  0.5785020241116 1.0
C      1  0.3413229314482  0.9179339213547  0.4243594122555 1.0
C      1  0.3102885827168  0.6766645837075  0.6393448999556 1.0
C      1  0.0524623699989  0.3984198740428  0.5153853189707 1.0
C      1  0.7377624413086  0.1049734971190  0.5367025717565 1.0
C      1  0.7291566127601  0.7464135224939  0.2135700447080 1.0
C      1  0.8987903673444  0.5824934181303  0.5525375835998 1.0
C      1  0.6306859314233  0.7581458813314  0.7360323483456 1.0
C      1  0.6294670526872  0.2423664643893  0.4392956376700 1.0
C      1  0.2456227203074  0.4638896169144  0.3766273713539 1.0
C      1  0.1004127139615  0.7491457497959  0.5310082153800 1.0
C      1  0.5674273398896  0.3489970810242  0.5467200835870 1.0
C      1  0.9773367539884  0.5245350550880  0.5181063279113 1.0
C      1  0.3659538532188  0.6514935137808  0.3135389851243 1.0
C      1  0.7211501417606  0.6610302979102  0.5779045631258 1.0
C      1  0.5743852649950  0.6881066315622  0.5198841456702 1.0
C      1  0.3875625437401  0.5208224857530  0.8073163528180 1.0
C      1  0.7861583911298  0.2520408297323  0.5964178524679 1.0
C      1  0.3176626513401  0.4094337914416  0.1569372470670 1.0
C      1  0.4049252548017  0.6548899141226  0.8780521273019 1.0
C      1  0.4608028458739  0.4618476389810  0.0822235008051 1.0
C      1  0.2533582009000  0.6808543800484  0.7207206653142 1.0
C      1  0.1542050161643  0.5072206097003  0.3810214118022 1.0
C      1  0.3339973615120  0.2322088632750  0.4135956673964 1.0
C      1  0.3096802658649  0.4468090985003  0.5624644734385 1.0
C      1  0.8695777568656  0.4299773733778  0.3352418376098 1.0
C      1  0.8267246911796  0.3573256731835  0.7321184928863 1.0
C      1  0.2919762961854  0.1723539457770  0.6895366521316 1.0
C      1  0.2662403235442  0.5802271755084  0.1729193092673 1.0
C      1  0.6950235475753  0.5007866665220  0.4049104851030 1.0
C      1  0.6056323454201  0.2211900754533  0.2737331099849 1.0
C      1  0.4408089273300  0.5777993591797  0.5619418652456 1.0
C      1  0.7074102584588  0.3065229355783  0.4517533457421 1.0
C      1  0.7884296341428  0.7035141773360  0.2797399784817 1.0
C      1  0.8325819827878  0.6178961754843  0.3908295112809 1.0
C      1  0.3879629727027  0.5098886053409  0.3872737873750 1.0
C      1  0.4749859706822  0.3867925189471  0.5759969362349 1.0
C      1  0.1451999598869  0.6143360352923  0.6008167109621 1.0
C      1  0.3810514767561  0.3805603720565  0.9023544913374 1.0
C      1  0.3468275083073  0.1782797771079  0.4941245166080 1.0
C      1  0.3932184466604  0.8208243561102  0.6711952178156 1.0
C      1  0.4348239765294  0.9524261520143  0.4223328278824 1.0
C      1  0.4292148577300  0.5995787380591  0.3707064542533 1.0
C      1  0.6804438486212  0.6742390534866  0.1790516171786 1.0
C      1  0.5124532921052  0.6400139100413  0.3716848908677 1.0
C      1  0.5307960562112  0.1392680715265  0.6412981371098 1.0
C      1  0.2045161018004  0.6871546283104  0.6379024018968 1.0
C      1  0.3111023208043  0.4965821347144  0.4589407412408 1.0
C      1  0.3040789011335  0.8687297470613  0.3557331507175 1.0
C      1  0.3990757300437  0.3811259559762  0.7396844487541 1.0
C      1  0.3462113033195  0.7642476920647  0.5952281617830 1.0
C      1  0.5297732572704  0.1921617176285  0.8999124332970 1.0
C      1  0.2550231615858  0.6149926359394  0.7861057163653 1.0
C      1  0.7185248030212  0.7071663073474  0.7640231765796 1.0
C      1  0.4095476478514  0.6125295644795  0.0966408092698 1.0
C      1  0.0533507385712  0.4792470781445  0.5730375108771 1.0
C      1  0.5092753606053  0.8844948060529  0.5695137231525 1.0
C      1  0.1756597125983  0.2163716567704  0.3791656153967 1.0
C      1  0.5626296397061  0.8299746027614  0.7686641718296 1.0
C      1  0.5145952804925  0.3888474218220  0.1163141893025 1.0
C      1  0.4107603998398  0.7343025600028  0.5206904806399 1.0
C      1  0.4028364746146  0.7456074732297  0.3321714670906 1.0
C      1  0.8064027877068  0.1684610809326  0.5439812487814 1.0
C      1  0.3855405221557  0.2274132248865  0.5602964361125 1.0
C      1  0.5627162957867  0.4998756962834  0.4834951856507 1.0
C      1  0.4443577185862  0.4272206413718  0.2675052396535 1.0
C      1  0.1086937620766  0.5232355002344  0.6402049938545 1.0
C      1  0.3599817774456  0.4433779914676  0.2408342259165 1.0
C      1  0.5228225634532  0.2905279049212  0.2643896168421 1.0
C      1  0.8459926571317  0.5804500027484  0.6407120505963 1.0
C      1  0.5724990108270  0.6096151300914  0.8971821361131 1.0
C      1  0.3819067707373  0.4732144930405  0.8943205279453 1.0
C      1  0.5462335994285  0.8926779303404  0.6998607972883 1.0
END
