TITL C-17611-3875-28 -11.872 3375.00 -2057.82801113 0 0 249 (C1) n - 1
REM
REM Run started: at 2020.07.14 15:45:45 in /home/heco/bkarasulu/work/CARBON/AIRSS/Str-Search
REM VASP from code version vasp.5.4.4.18Apr17-6-g9f103f2a35 (build Jul 02 2020 21:03:42) gamma-only
REM
REM
REM
REM
REM ./C.cell (90889e035cd0f9d0e5f9cb6dd9eb5d52)
REM AIRSS Version 0.9.1 bugfix July 2018 build 013d7b7c2542+ Fri, 06 Jul 2018 19:26:36 +0100
REM compiler GCC version 9.2.0
REM options -cpp -mtune=generic -march=x86-64 -g -O0
REM seed -465222742 -942549304 -377640347 454754498 1511931697 1886658745 31606887 -443829021 -1379133186 -215395079 -507259035 335784519 -2017512736 -593695794 -1522900512 1666807893 -354760849 -162076356 1051269398 -1422896514 -71501271 -1256450738 -653557262 2078174519 -1387317057 -2062233905 1185368444 593057230 -211866083 518792079 -555550070 865217396 62403075
REM
REM C.POTCAR (d86ddea03c3ceb6dc662c8ad6801f873)
REM 
CELL 1.54180   15.00000   15.00000   15.00000   90.00000   90.00000   90.00000
LATT -1
SFAC C  
C      1  0.8410735070593  0.6088365222173  0.4719988775932 1.0
C      1  0.8570315041064  0.5809157631739  0.7376262163844 1.0
C      1  0.8192761126656  0.2505362694557  0.6602982327007 1.0
C      1  0.3052581644149  0.3903149105743  0.2640927441460 1.0
C      1  0.1087493930774  0.5460185304273  0.4380725008097 1.0
C      1  0.1042191932130  0.4543085787527  0.3814744591320 1.0
C      1  0.5463378630657  0.4810110488517  0.0571976377949 1.0
C      1  0.4484232626514  0.6972976578021  0.5468296272996 1.0
C      1  0.4570850830268  0.6992971572194  0.8577184712590 1.0
C      1  0.3313953319358  0.2835620534625  0.4777281440431 1.0
C      1  0.4266649000648  0.2933980985491  0.4465133935001 1.0
C      1  0.5650228022537  0.9805921314971  0.4573805922999 1.0
C      1  0.4104368183904  0.5462084400556  0.7002069595356 1.0
C      1  0.6846938366446  0.7973514796712  0.7697290182310 1.0
C      1  0.5381065094984  0.3034533079372  0.1196887312344 1.0
C      1  0.4685719222539  0.7254223963193  0.2000320460159 1.0
C      1  0.3092157972570  0.7342084189692  0.6419042388935 1.0
C      1  0.6967967484266  0.6534454710452  0.8721021576829 1.0
C      1  0.1119151740841  0.3772488920492  0.4421563797756 1.0
C      1  0.6690483784984  0.2656550359863  0.6159689090875 1.0
C      1  0.7860318507284  0.6922671892795  0.6359421893211 1.0
C      1  0.0845042556889  0.3801537928962  0.5394697201510 1.0
C      1  0.7680947135130  0.2106139511589  0.2546217897497 1.0
C      1  0.0766324865945  0.5107830220274  0.6562855464281 1.0
C      1  0.7449338222534  0.8273660104107  0.6994189673174 1.0
C      1  0.4387747485824  0.6092598937234  0.8856845595637 1.0
C      1  0.4245608632707  0.0613904055058  0.4524479113271 1.0
C      1  0.2585198559700  0.7249994982016  0.7237148829340 1.0
C      1  0.3616777557556  0.1209988828879  0.6199337684520 1.0
C      1  0.7325902095155  0.4932832121817  0.2828293205787 1.0
C      1  0.8130632155288  0.3002246230177  0.7449915652215 1.0
C      1  0.8358624355794  0.6403446897706  0.8078661969113 1.0
C      1  0.1775503756956  0.6765896395411  0.7241358887803 1.0
C      1  0.4165272987095  0.5387580506578  0.5241118412983 1.0
C      1  0.6108014143516  0.1300650941592  0.4188648595630 1.0
C      1  0.6362029806545  0.4952228869967  0.5836648157843 1.0
C      1  0.8666867502657  0.6922216751197  0.3036526023177 1.0
C      1  0.3971538704619  0.6994658202648  0.6325510411118 1.0
C      1  0.2911470865386  0.5584588587465  0.3162014627545 1.0
C      1  0.4054805817303  0.0685208890363  0.5550992317128 1.0
C      1  0.2686098435779  0.2942741394545  0.7142380729944 1.0
C      1  0.8033315805028  0.8365070818554  0.2984032371707 1.0
C      1  0.7958627815494  0.5032555658536  0.8652505580539 1.0
C      1  0.2881123900524  0.2180188200022  0.2848672405945 1.0
C      1  0.2857415037027  0.6734181559610  0.1755078674808 1.0
C      1  0.3548202893732  0.5646927489016  0.8717749247759 1.0
C      1  0.6076998926703  0.6718764807608  0.4992939134263 1.0
C      1  0.9152558343434  0.5896280775516  0.4219439125473 1.0
C      1  0.2012739085721  0.8203005635934  0.3497588082212 1.0
C      1  0.8183709343808  0.7274898938065  0.7946118919556 1.0
C      1  0.7952835081039  0.2365042087869  0.4635924211709 1.0
C      1  0.1666407955617  0.4556672758788  0.2786336827884 1.0
C      1  0.2611564804383  0.4767975580755  0.4844610757468 1.0
C      1  0.8282965823947  0.7681309739660  0.2424756304899 1.0
C      1  0.1933951472025  0.5154694205601  0.1948534369941 1.0
C      1  0.8057545861281  0.6431366584362  0.1372256652996 1.0
C      1  0.2758371575155  0.1990223372169  0.4948703695794 1.0
C      1  0.6234435192205  0.9132930965045  0.4342051646743 1.0
C      1  0.3693285079174  0.3081335277238  0.1015828875473 1.0
C      1  0.3990645046914  0.3970891013325  0.1236406919989 1.0
C      1  0.3710441267094  0.2269094850151  0.1107316391979 1.0
C      1  0.2699359814501  0.3290659101109  0.4103093753119 1.0
C      1  0.6185509547233  0.6977030650098  0.0924298100022 1.0
C      1  0.7403190140327  0.7394937828338  0.5681060193956 1.0
C      1  0.1709708827552  0.7320279101506  0.5542695704783 1.0
C      1  0.1270623315553  0.3924465240973  0.7590011287533 1.0
C      1  0.4254763794404  0.5187659501407  0.2290489722480 1.0
C      1  0.4127679394990  0.7708113667616  0.2630376106773 1.0
C      1  0.5741312969831  0.4612581269893  0.1470691410379 1.0
C      1  0.6890803973841  0.7321600055435  0.1220183195116 1.0
C      1  0.3549890162998  0.5512951664319  0.1591491666619 1.0
C      1  0.4480007485767  0.6308666715471  0.6863978472852 1.0
C      1  0.8705190658665  0.3699523952132  0.3604051923266 1.0
C      1  0.3187458117624  0.1578752786581  0.2376298830427 1.0
C      1  0.3994492758798  0.4180767990618  0.2309813754102 1.0
C      1  0.1146038857273  0.6867836507693  0.6389241970329 1.0
C      1  0.2576313954048  0.4628144713398  0.3238533331895 1.0
C      1  0.9357240723852  0.3884584015949  0.6926978571139 1.0
C      1  0.5538611807069  0.4224793772495  0.4452249933920 1.0
C      1  0.5113123701919  0.3761791119070  0.6685783837790 1.0
C      1  0.0978471776649  0.4822778548039  0.7405652501952 1.0
C      1  0.7798245850872  0.6582666714746  0.3348300300977 1.0
C      1  0.2222596044069  0.3998294287055  0.2089320752576 1.0
C      1  0.5633700532211  0.1338402027150  0.8349588747221 1.0
C      1  0.3197893464412  0.3414806717882  0.6465995803157 1.0
C      1  0.4443916659011  0.2505893089008  0.8694104574143 1.0
C      1  0.5855519931849  0.7195318315800  0.6902544223907 1.0
C      1  0.6930623059702  0.7072535110058  0.3187664921963 1.0
C      1  0.8938433283736  0.3675909695646  0.4517971376660 1.0
C      1  0.7363420897051  0.1452320605520  0.2947031292682 1.0
C      1  0.5357328461628  0.5620388648472  0.0152263404729 1.0
C      1  0.4720769286230  0.9703335408905  0.4382757930673 1.0
C      1  0.7305751440990  0.7372113680102  0.8287371459866 1.0
C      1  0.2583487681030  0.5701565162239  0.6354361145432 1.0
C      1  0.5764855211022  0.2256000689725  0.4078296079999 1.0
C      1  0.5492319637294  0.0900760358251  0.5778939719546 1.0
C      1  0.7226480563646  0.2876361994438  0.4539490590322 1.0
C      1  0.8604200706197  0.4991000460900  0.7951144248619 1.0
C      1  0.4966638488437  0.5142809580429  0.5799749566372 1.0
C      1  0.7460621751046  0.5882314995134  0.2695735856159 1.0
C      1  0.6147501181477  0.2753627380618  0.1622758770724 1.0
C      1  0.5171995609120  0.8413421073260  0.7472839602318 1.0
C      1  0.9520136603902  0.5342065176296  0.5045570561895 1.0
C      1  0.6996714678390  0.7094701336038  0.4779158905704 1.0
C      1  0.4659828635446  0.7309004300063  0.3422820657851 1.0
C      1  0.2827062252671  0.4018662974722  0.8375198094489 1.0
C      1  0.4562718056690  0.6820194225309  0.1137681023935 1.0
C      1  0.7535019835590  0.8482708656036  0.3713212521326 1.0
C      1  0.4163552811791  0.6463524535995  0.3808947511441 1.0
C      1  0.6698302647112  0.4203029380650  0.1575885899080 1.0
C      1  0.3341312388592  0.2834659891124  0.5779679154551 1.0
C      1  0.4793287845269  0.1525540029757  0.2083461602963 1.0
C      1  0.6454557622290  0.3773804058727  0.7876833347743 1.0
C      1  0.5343277459826  0.8634019438241  0.6521432669829 1.0
C      1  0.7369830200753  0.4809271944034  0.1901462533469 1.0
C      1  0.0526813151352  0.5401389206596  0.5218698120695 1.0
C      1  0.2532263828836  0.7550721511691  0.2183928605419 1.0
C      1  0.5291608271146  0.5650869283936  0.9122917148088 1.0
C      1  0.5370910339087  0.2203105143026  0.1684506739971 1.0
C      1  0.5178674165878  0.6866726230898  0.2684800208672 1.0
C      1  0.0691429489561  0.4622948786859  0.5772460223505 1.0
C      1  0.7219333303939  0.9061175418256  0.4478833275335 1.0
C      1  0.4441072415479  0.1252344740721  0.3841987844456 1.0
C      1  0.3557753824168  0.4621032961262  0.8644743241611 1.0
C      1  0.1859597494548  0.2308306924498  0.4983857946736 1.0
C      1  0.4860166336024  0.2996599993646  0.7285397239979 1.0
C      1  0.5514851367593  0.7122834651585  0.8487758871380 1.0
C      1  0.4971232030215  0.1075953155243  0.2956212456129 1.0
C      1  0.5839259573451  0.7749965707118  0.7768044544678 1.0
C      1  0.5229267059675  0.3365932950240  0.5774456897925 1.0
C      1  0.8247802446237  0.7618943130171  0.7020402418363 1.0
C      1  0.6947035657039  0.1530267714838  0.7255660109067 1.0
C      1  0.0353882347439  0.6710774336740  0.3375098988538 1.0
C      1  0.3949103077504  0.1549792542389  0.8004688650811 1.0
C      1  0.3119603978172  0.7107233889222  0.8021349494438 1.0
C      1  0.5744042995328  0.3891854625072  0.8539747060034 1.0
C      1  0.6404651739793  0.2917980581924  0.4019372266954 1.0
C      1  0.1733889281125  0.7745636040893  0.2668659365559 1.0
C      1  0.1486899106732  0.2371870227020  0.5878517500035 1.0
C      1  0.4775525980913  0.0256122686445  0.6090201160181 1.0
C      1  0.5763673745932  0.5534114265887  0.6353856437861 1.0
C      1  0.1990917450443  0.5830155326136  0.5711203145449 1.0
C      1  0.1967667472956  0.4327037384216  0.8179661624989 1.0
C      1  0.5041829457653  0.3957871004903  0.0975572775538 1.0
C      1  0.3329990775227  0.6568859446863  0.4304228559747 1.0
C      1  0.3528538903902  0.2389273289241  0.8392277334111 1.0
C      1  0.5672372570515  0.4983988276592  0.5101340826883 1.0
C      1  0.2688910472169  0.5800225557416  0.2163598146714 1.0
C      1  0.0888459313434  0.7465355845639  0.3102626738621 1.0
C      1  0.5483589672622  0.6293315206426  0.6815206693093 1.0
C      1  0.5885800924539  0.0699929636110  0.4948982629568 1.0
C      1  0.9254898921684  0.7541798231325  0.6550739642617 1.0
C      1  0.5845618352258  0.2580651989360  0.5803929173534 1.0
C      1  0.1592827080715  0.5227450319510  0.8022967789109 1.0
C      1  0.4109864987212  0.6303096131058  0.4840058785198 1.0
C      1  0.2625449269074  0.4250802080525  0.4112852876044 1.0
C      1  0.4849559291104  0.3332433084559  0.8293298818645 1.0
C      1  0.1181488734094  0.3198649188100  0.7018164936486 1.0
C      1  0.7678725896559  0.3011125862800  0.2347598833409 1.0
C      1  0.3936847877274  0.5539481728766  0.3247907657119 1.0
C      1  0.1285020470705  0.7824479183275  0.3949307324600 1.0
C      1  0.3259437063695  0.7989918813110  0.2704969593025 1.0
C      1  0.6042334364835  0.3806576536038  0.7033603887531 1.0
C      1  0.2583447559961  0.7719209858204  0.5653761598396 1.0
C      1  0.3207836994170  0.8415910178862  0.5241620649914 1.0
C      1  0.9151131393174  0.4303004038836  0.7755546641747 1.0
C      1  0.4154346737459  0.1377887046111  0.7044799565083 1.0
C      1  0.5351698865682  0.5200924792650  0.2189241950819 1.0
C      1  0.9114627615075  0.3815891565497  0.6037427586790 1.0
C      1  0.8871538229160  0.6002676236970  0.5609818639767 1.0
C      1  0.1026217212803  0.5911112839032  0.6020011039465 1.0
C      1  0.3212409928760  0.5216270161511  0.6766775274402 1.0
C      1  0.7546632989907  0.6317166513526  0.4320313705712 1.0
C      1  0.4191515000868  0.4703541696655  0.3786853247941 1.0
C      1  0.6775963932962  0.7755261132930  0.3863225692535 1.0
C      1  0.8719518322978  0.2916642204815  0.5919829052891 1.0
C      1  0.3287847575586  0.4696975825533  0.1045914080821 1.0
C      1  0.7810253595569  0.7295425330999  0.1594077116191 1.0
C      1  0.4140595731335  0.4478888039629  0.4758417844871 1.0
C      1  0.3417764397798  0.4684251340475  0.5376414777731 1.0
C      1  0.4624491603863  0.9274327096512  0.6246298269821 1.0
C      1  0.4252615704827  0.8348058448884  0.7621076991030 1.0
C      1  0.8265744650879  0.3484307037953  0.2928830863489 1.0
C      1  0.6897266926909  0.3314127525640  0.1818722106948 1.0
C      1  0.5381328116244  0.7219735698846  0.5424211233324 1.0
C      1  0.4197167916862  0.3022410127508  0.3478493495156 1.0
C      1  0.4406463116857  0.4240255296465  0.8626163077232 1.0
C      1  0.5718317962948  0.5097867403082  0.3118134012209 1.0
C      1  0.3878199361092  0.8866908406856  0.6853016335815 1.0
C      1  0.3161277317677  0.3033242753723  0.3227123661066 1.0
C      1  0.6008097144366  0.6398808969721  0.8795919199673 1.0
C      1  0.7054210730751  0.3788291817319  0.4901368198641 1.0
C      1  0.4515665170306  0.4589544138937  0.6555763078819 1.0
C      1  0.0158040634502  0.7210314871360  0.6396404899553 1.0
C      1  0.5818130501360  0.0924542039898  0.3266378208378 1.0
C      1  0.7714679199879  0.5942088205789  0.8672059505764 1.0
C      1  0.3176925605074  0.1906180691906  0.5797543277614 1.0
C      1  0.4402425812346  0.8840918395200  0.4171848956285 1.0
C      1  0.2951015314768  0.3065529257558  0.8086042131352 1.0
C      1  0.7284084115616  0.3470433488530  0.7486880729054 1.0
C      1  0.5696941997438  0.6039501240165  0.2655066334779 1.0
C      1  0.5942012503673  0.8315964585661  0.3974759324974 1.0
C      1  0.4820489663325  0.2078421987976  0.6847408883331 1.0
C      1  0.5254323733275  0.4661381602065  0.8787258059045 1.0
C      1  0.6953224919526  0.4195034774077  0.5750001085097 1.0
C      1  0.1963050773562  0.6076409282941  0.7971402693338 1.0
C      1  0.3729785952351  0.8828846431301  0.5960889206232 1.0
C      1  0.7746819400144  0.5688103217844  0.1729544157030 1.0
C      1  0.0937933815887  0.3117623314069  0.6039393693489 1.0
C      1  0.2855971155240  0.6250377889299  0.8366569677517 1.0
C      1  0.6869493538519  0.3563405687136  0.6526958745072 1.0
C      1  0.7310823544524  0.8347240003363  0.6006134631383 1.0
C      1  0.3510430895120  0.4350064401199  0.6328730882811 1.0
C      1  0.3899921778363  0.1605645783302  0.1753214808658 1.0
C      1  0.4499731653757  0.3892991435074  0.3138328108776 1.0
C      1  0.1740963458223  0.3015554440111  0.4349294198967 1.0
C      1  0.5356815371621  0.6507752139574  0.0711977517482 1.0
C      1  0.7401147074572  0.8940054321595  0.5343057278872 1.0
C      1  0.6672105132132  0.4805423342405  0.3548472679735 1.0
C      1  0.1241846880447  0.7213700219841  0.4667071926092 1.0
C      1  0.1872516781101  0.2550376379195  0.6786103946321 1.0
C      1  0.2081689963245  0.5584554771560  0.4732108299595 1.0
C      1  0.9414787034267  0.6859868367635  0.5929464380367 1.0
C      1  0.4804164894680  0.3685485636198  0.4927186269167 1.0
C      1  0.9190200960252  0.4312709286203  0.5181776685378 1.0
C      1  0.6081468923867  0.5818263933447  0.4713022064526 1.0
C      1  0.5363469626948  0.1810109128198  0.6105687303335 1.0
C      1  0.6599650184667  0.6374429166356  0.2717386726948 1.0
C      1  0.8944993902982  0.3404289255020  0.7645521401063 1.0
C      1  0.4795485174481  0.1602848642317  0.8543641859917 1.0
C      1  0.7311722708164  0.2008027161122  0.6570074476869 1.0
C      1  0.6317461308429  0.1352179910744  0.7822756431504 1.0
C      1  0.6429258324549  0.3945062160654  0.4136681727847 1.0
C      1  0.8664615509665  0.2822510956396  0.4969792291571 1.0
C      1  0.5124055977874  0.4522454619008  0.3612324403051 1.0
C      1  0.2381356601734  0.4516202011002  0.1308150754752 1.0
C      1  0.2930469643921  0.8325803375797  0.3565838840045 1.0
C      1  0.0857908637109  0.6448380496948  0.4177312711704 1.0
C      1  0.5633652208944  0.7791499726083  0.6192580148229 1.0
C      1  0.6711126099522  0.1019365304864  0.3397827903156 1.0
C      1  0.9412862628394  0.6462337493316  0.3392610344898 1.0
C      1  0.6835864008926  0.5582084091359  0.4224767960357 1.0
C      1  0.3937284941255  0.7560146260386  0.8142784978917 1.0
C      1  0.3447041605101  0.8574551335374  0.4326938019561 1.0
C      1  0.8337656914071  0.6049539201441  0.6477629794112 1.0
C      1  0.2633052106670  0.6069042000035  0.4037811862807 1.0
C      1  0.3637986181957  0.6462369264666  0.1292361045255 1.0
C      1  0.5022908165542  0.8133380006760  0.3917566281841 1.0
C      1  0.4735364371684  0.2236924304019  0.3946322854651 1.0
END
