TITL C-17339-2271-8 -4.897 3375.00 -843.17557591 0 0 103 () n - 1
REM
REM Run started: at 2020.12.25 06:01:58 in /gpfs/home/chem/mssmkc/CARBON/AIRSS/Generating-Clusters/Str-Search/Only-C1/C100-200
REM VASP from code version vasp.5.4.4.18Apr17-6-g9f103f2a35 (build Oct 11 2019 16:45:47) gamma-only
REM
REM
REM
REM
REM ./C.cell (efaf0b2bf1589a83377268d7ebe2c73f)
REM AIRSS Version 0.9.1 bugfix July 2018 build 013d7b7c2542+ Fri, 06 Jul 2018 19:26:36 +0100
REM compiler GCC version 6.3.0
REM options -cpp -iprefix /gpfs/warwick/csc/orac/software/Core/GCCcore/6.3.0/bin/../lib/gcc/x86_64-pc-linux-gnu/6.3.0/ -mtune=generic -march=x86-64 -g -O0
REM seed -937426344 -138375007 -1402919724 -233826010 504890547 124928309 -1980059444 1079394208 -971750592 -1655718950 387803355 -1778123327
REM
REM C.POTCAR (d86ddea03c3ceb6dc662c8ad6801f873)
REM 
CELL 1.54180   15.00000   15.00000   15.00000   90.00000   90.00000   90.00000
LATT -1
SFAC C  
C      1  0.6076799060057  0.2911699947562  0.4855889378437 1.0
C      1  0.4582531498209  0.3400950152826  0.2127890046166 1.0
C      1  0.6227548215155  0.4716699928034  0.5656586978264 1.0
C      1  0.4924894903449  0.5834434570196  0.4704948340456 1.0
C      1  0.4045596383316  0.5178375241723  0.6126391547482 1.0
C      1  0.3639600015422  0.6817015152111  0.2913946588726 1.0
C      1  0.5264804140178  0.5537104421951  0.8179638346925 1.0
C      1  0.5208453369998  0.2706310924497  0.6175464606397 1.0
C      1  0.8042273902156  0.4165378873408  0.5079865773394 1.0
C      1  0.6704324782893  0.3023168140498  0.5666852052572 1.0
C      1  0.2223989733837  0.4740445122729  0.7381164883519 1.0
C      1  0.3840410261607  0.4668525142257  0.4210108840569 1.0
C      1  0.6514132153071  0.6501780498208  0.3286372025994 1.0
C      1  0.4943083927847  0.7330584918388  0.3783096206071 1.0
C      1  0.2343719905819  0.3725387171574  0.4536208518711 1.0
C      1  0.5060059627400  0.2827484006910  0.2715123554517 1.0
C      1  0.5123279957833  0.6367976794221  0.2315196314245 1.0
C      1  0.4319423809400  0.2571381688903  0.6382492323286 1.0
C      1  0.2579214195322  0.4694206613930  0.3308478351344 1.0
C      1  0.5127819954188  0.7777478564530  0.4583462315848 1.0
C      1  0.4589466944386  0.4581544996801  0.5949295301284 1.0
C      1  0.4527207100939  0.4301311992210  0.1859529776685 1.0
C      1  0.5577201814153  0.6800605398080  0.6048235253814 1.0
C      1  0.2959875506331  0.3076939717187  0.4113273345215 1.0
C      1  0.6092236286704  0.5291149425152  0.7845230460249 1.0
C      1  0.7783611923557  0.5022829862009  0.3589575230665 1.0
C      1  0.6940233124558  0.6176518426415  0.5013985443765 1.0
C      1  0.1670232001819  0.5522577319816  0.5017980175579 1.0
C      1  0.2463228786696  0.5618568222801  0.3424715478962 1.0
C      1  0.5359480096135  0.4195887283356  0.5463792402388 1.0
C      1  0.4514799279984  0.4004720246173  0.4206794111429 1.0
C      1  0.5834555267596  0.5790349690541  0.3481217251542 1.0
C      1  0.4968536811738  0.6414675994010  0.7740072150995 1.0
C      1  0.5300054005625  0.7640135128683  0.5530444421954 1.0
C      1  0.8203051736332  0.4975946457177  0.5538614215884 1.0
C      1  0.5516138440146  0.6737033507817  0.3187027287117 1.0
C      1  0.5978747311592  0.2827465763560  0.2969822323634 1.0
C      1  0.4547531476894  0.3481344400478  0.8042892731875 1.0
C      1  0.6653893650444  0.4855648220743  0.6478218208680 1.0
C      1  0.6925117932948  0.4222821224260  0.2362946662982 1.0
C      1  0.3363757889368  0.6081948038570  0.4771396717800 1.0
C      1  0.6594116544347  0.6593702512734  0.5886627259351 1.0
C      1  0.5420131132484  0.4353989136538  0.4390087340222 1.0
C      1  0.1403504500738  0.4726023878232  0.5116377936368 1.0
C      1  0.4214022819666  0.6366314161694  0.2246096480019 1.0
C      1  0.7282380506330  0.6745900133418  0.7328154688022 1.0
C      1  0.4869264729550  0.6248551314587  0.5514629269693 1.0
C      1  0.7854851183216  0.4247080105405  0.4121006779689 1.0
C      1  0.6119190506171  0.3009658326841  0.6482399335958 1.0
C      1  0.3861393466950  0.6089039176223  0.5760331017203 1.0
C      1  0.6207074559705  0.3741413986248  0.4286527641073 1.0
C      1  0.3437671628724  0.2771164337268  0.6679031549291 1.0
C      1  0.2838343011719  0.4573087141717  0.4255577924309 1.0
C      1  0.7173690386121  0.3517351439691  0.4222281106115 1.0
C      1  0.6138118259994  0.4151048510591  0.1861093050694 1.0
C      1  0.6082017620634  0.3571812405941  0.7288488843312 1.0
C      1  0.2983243174259  0.6100776832516  0.2809432773465 1.0
C      1  0.4472983567072  0.7967311209288  0.5271043370947 1.0
C      1  0.7190560177839  0.4985452780389  0.2831505510940 1.0
C      1  0.5563548368920  0.6643968427233  0.7082250008819 1.0
C      1  0.3560264563488  0.2608314010928  0.5767037499387 1.0
C      1  0.3068367935875  0.6784564089681  0.6923751738411 1.0
C      1  0.3964392401125  0.7221483830615  0.3672732521856 1.0
C      1  0.6502842140416  0.5689419724372  0.2678437056591 1.0
C      1  0.1593651870732  0.3849235452789  0.5024851808636 1.0
C      1  0.6384722749252  0.4490608193557  0.7305865355975 1.0
C      1  0.3549813289438  0.5632053238513  0.2174862657417 1.0
C      1  0.7298010019542  0.7104322291996  0.6447892647764 1.0
C      1  0.2502542901284  0.5583016609957  0.4474888737863 1.0
C      1  0.3327390474882  0.3300559659716  0.3213826996086 1.0
C      1  0.6392462192666  0.5346878629067  0.4990440876388 1.0
C      1  0.7153086436649  0.6492627371047  0.4041501594515 1.0
C      1  0.7801091227740  0.6216198032302  0.6627961443332 1.0
C      1  0.7447013767477  0.3406814298284  0.5212878058282 1.0
C      1  0.3081602102563  0.4142154519401  0.2728904584089 1.0
C      1  0.3682810159696  0.4679291239888  0.2142233544101 1.0
C      1  0.5682128393069  0.5325236910368  0.4316868238631 1.0
C      1  0.6413463998725  0.6159012993427  0.7367092814747 1.0
C      1  0.5412612431865  0.4749895458955  0.1762473438219 1.0
C      1  0.3498563132782  0.7066981485380  0.4545819585336 1.0
C      1  0.7953444581356  0.5828584900760  0.5050287733555 1.0
C      1  0.4107623211115  0.2942628712486  0.2792987688302 1.0
C      1  0.4425384712136  0.3193228929746  0.4682296226501 1.0
C      1  0.4079526413130  0.5540220667871  0.4363242266117 1.0
C      1  0.7885768201016  0.5888155828668  0.4066537711831 1.0
C      1  0.3062986098028  0.3391540041360  0.7304018669219 1.0
C      1  0.5211404464091  0.3119529548496  0.5279374913237 1.0
C      1  0.6877962410557  0.5800206583812  0.6549087180226 1.0
C      1  0.6419981724642  0.3411818249153  0.2360956752810 1.0
C      1  0.4311274781727  0.5358783230734  0.8329691503935 1.0
C      1  0.3179642398116  0.6216384753490  0.7620695034970 1.0
C      1  0.5343397340288  0.3425779351345  0.7850689645371 1.0
C      1  0.3615655449203  0.7536230986998  0.5343590387455 1.0
C      1  0.3579249341314  0.2799357971071  0.4815911723698 1.0
C      1  0.3682217580824  0.3827394706241  0.7932090800638 1.0
C      1  0.6391695195677  0.2854161464560  0.3884755267648 1.0
C      1  0.8366670445727  0.5771640163474  0.5958940346930 1.0
C      1  0.3579483323975  0.4752151288191  0.8146313745971 1.0
C      1  0.3434640873591  0.6922401821335  0.6137001076519 1.0
C      1  0.5689945780288  0.5610928833912  0.2071607636418 1.0
C      1  0.2307086056295  0.3926426633761  0.7193155714889 1.0
C      1  0.2848291845432  0.5296282075334  0.7778752167499 1.0
C      1  0.4062813252663  0.6217443210106  0.8010522777726 1.0
END
