TITL C-17339-2271-16 -7.028 3375.00 -1212.97435394 0 0 149 () n - 1
REM
REM Run started: at 2020.12.25 13:50:12 in /gpfs/home/chem/mssmkc/CARBON/AIRSS/Generating-Clusters/Str-Search/Only-C1/C100-200
REM VASP from code version vasp.5.4.4.18Apr17-6-g9f103f2a35 (build Oct 11 2019 16:45:47) gamma-only
REM
REM
REM
REM
REM ./C.cell (efaf0b2bf1589a83377268d7ebe2c73f)
REM AIRSS Version 0.9.1 bugfix July 2018 build 013d7b7c2542+ Fri, 06 Jul 2018 19:26:36 +0100
REM compiler GCC version 6.3.0
REM options -cpp -iprefix /gpfs/warwick/csc/orac/software/Core/GCCcore/6.3.0/bin/../lib/gcc/x86_64-pc-linux-gnu/6.3.0/ -mtune=generic -march=x86-64 -g -O0
REM seed 628337117 -962571809 1762310623 -123031539 -65112667 -232208293 -338227310 -1723176339 -1306516880 -1588879910 -1882379616 1516036432
REM
REM C.POTCAR (d86ddea03c3ceb6dc662c8ad6801f873)
REM 
CELL 1.54180   15.00000   15.00000   15.00000   90.00000   90.00000   90.00000
LATT -1
SFAC C  
C      1  0.5104069183994  0.3396631576159  0.1543442500958 1.0
C      1  0.2191688948824  0.2433173187580  0.5875535909948 1.0
C      1  0.3146154438370  0.7332221977791  0.6740767301062 1.0
C      1  0.6767458784021  0.4465482700177  0.6188432535032 1.0
C      1  0.7308103468417  0.3441404694720  0.2790099616675 1.0
C      1  0.2411302007475  0.6237292044839  0.4693748166526 1.0
C      1  0.4930296055358  0.6255003470980  0.6218870198682 1.0
C      1  0.5786363533266  0.6075213363371  0.2657414350375 1.0
C      1  0.7018135953913  0.5138747784145  0.2985873455316 1.0
C      1  0.4564004426107  0.2304223386534  0.2747646778898 1.0
C      1  0.3838738574305  0.2596544851272  0.7241536694528 1.0
C      1  0.4556560520690  0.8144719032347  0.3219617391542 1.0
C      1  0.5626379397911  0.4134321590433  0.3905170754152 1.0
C      1  0.4192422866794  0.4999061821419  0.4668041852467 1.0
C      1  0.7429028997091  0.6504556540230  0.5624403321964 1.0
C      1  0.3930910843558  0.8556237195792  0.3853276301598 1.0
C      1  0.6761827201199  0.7851544408307  0.6453987133401 1.0
C      1  0.5304644007354  0.7507981086845  0.2018639265283 1.0
C      1  0.4735839477863  0.3640618823041  0.3926539217983 1.0
C      1  0.1557777195921  0.5516285257325  0.5972151630273 1.0
C      1  0.4823726133304  0.7490695643458  0.3939653415199 1.0
C      1  0.5341648634416  0.5113637580223  0.8504711854463 1.0
C      1  0.6402989705372  0.4901092986062  0.5384398414237 1.0
C      1  0.6538884354225  0.6029073552773  0.5609116174720 1.0
C      1  0.6727701701607  0.7232124013090  0.2409989455309 1.0
C      1  0.5009403682461  0.7914627421639  0.6088093126260 1.0
C      1  0.4392817114917  0.8548056766666  0.4720506650634 1.0
C      1  0.3334527189341  0.3909023921907  0.5058944700560 1.0
C      1  0.1579640680660  0.5752761387158  0.5050813329048 1.0
C      1  0.4786334740785  0.8164123709329  0.2368507463596 1.0
C      1  0.4189292853244  0.8226932771473  0.5567400336107 1.0
C      1  0.3151305373581  0.5348767344570  0.3481814557817 1.0
C      1  0.6137773261459  0.2469677831403  0.5590479306238 1.0
C      1  0.5137883524150  0.5931796272622  0.8859956034416 1.0
C      1  0.5562491465102  0.4348737307197  0.2900772429964 1.0
C      1  0.7921822221032  0.8092088337916  0.5571005071135 1.0
C      1  0.5898553501037  0.3610188536924  0.2189728936801 1.0
C      1  0.2821685074456  0.3152699051439  0.2404183481013 1.0
C      1  0.5026205934255  0.1762141434352  0.6475930669912 1.0
C      1  0.4237374639028  0.7601852807946  0.8122060960616 1.0
C      1  0.9282906239891  0.4848848670899  0.4254476815233 1.0
C      1  0.7875679021657  0.7637166173202  0.4743730018058 1.0
C      1  0.3812878627986  0.4846224275014  0.2922416131255 1.0
C      1  0.1611007982752  0.4670222932186  0.6442023914156 1.0
C      1  0.5464692419701  0.6791313718015  0.8826436949704 1.0
C      1  0.6250982155146  0.7651858992812  0.1877070632230 1.0
C      1  0.7887304918914  0.6635625008828  0.4824353247575 1.0
C      1  0.4356363402799  0.4786176827940  0.7022905295765 1.0
C      1  0.2375741102828  0.6719853762536  0.3825098110685 1.0
C      1  0.6571671551428  0.6610879856413  0.3146919533636 1.0
C      1  0.7959275301603  0.3641301196000  0.3425381961165 1.0
C      1  0.7950817934744  0.3456026128372  0.5733939949662 1.0
C      1  0.5112776518149  0.6326356484469  0.5121406308412 1.0
C      1  0.4513692774760  0.4022703024709  0.2950385417101 1.0
C      1  0.5350784837002  0.8146927519144  0.4526789921174 1.0
C      1  0.7717639033635  0.2989867749612  0.4940498204588 1.0
C      1  0.5034605671974  0.4333803630143  0.6444176701933 1.0
C      1  0.2127064288214  0.5132750755187  0.7179854552730 1.0
C      1  0.5395566154415  0.1962786780873  0.3096035910348 1.0
C      1  0.2827733026960  0.6212491297508  0.3140736768534 1.0
C      1  0.2800261583154  0.3510194471015  0.1635251530802 1.0
C      1  0.4116099460192  0.6326383655227  0.2211819831328 1.0
C      1  0.6409589025843  0.7095324571413  0.4047479352818 1.0
C      1  0.8301807175360  0.3424728819226  0.4263263435919 1.0
C      1  0.8755899418465  0.5171884249661  0.6865311277785 1.0
C      1  0.8718754073755  0.4015668507660  0.5608470709179 1.0
C      1  0.5010944303259  0.2812043342690  0.4490624668115 1.0
C      1  0.2846499850917  0.5377292568032  0.4395225834290 1.0
C      1  0.5976209989067  0.4204137543787  0.4758449808316 1.0
C      1  0.7293441214947  0.5939535594959  0.3341318874988 1.0
C      1  0.1711724272562  0.3795904964518  0.6220934299999 1.0
C      1  0.4917583740715  0.7516939272547  0.8599957103314 1.0
C      1  0.3793521209304  0.1756594059569  0.4182705834934 1.0
C      1  0.3798464645349  0.3330798155606  0.5850444371843 1.0
C      1  0.3923429574668  0.7372082011653  0.7299195325959 1.0
C      1  0.2495927142010  0.6733375228079  0.6439151952884 1.0
C      1  0.1898674631604  0.3251165773730  0.5430563022096 1.0
C      1  0.4399671738291  0.2907327607235  0.7943854997206 1.0
C      1  0.4797132443152  0.3636218382607  0.5912618660918 1.0
C      1  0.3786013535046  0.2272732106402  0.5710082004223 1.0
C      1  0.7481780209583  0.7422324995594  0.6099472432383 1.0
C      1  0.6058893996840  0.2951548560334  0.8335554308495 1.0
C      1  0.4192821126374  0.3841229182770  0.8051469474893 1.0
C      1  0.4609095685396  0.3178669913281  0.2293297562959 1.0
C      1  0.5962988614753  0.8108982368176  0.6173866876768 1.0
C      1  0.4680721665713  0.5775532686558  0.4463942228482 1.0
C      1  0.4128101577238  0.2000482194801  0.6592873018398 1.0
C      1  0.0202788041622  0.5055928228997  0.4273821191605 1.0
C      1  0.3460494844835  0.5662741367376  0.5858936803442 1.0
C      1  0.3246598495841  0.4196600199337  0.1288801042520 1.0
C      1  0.4525635612500  0.7159814445606  0.6484864167162 1.0
C      1  0.2341215410801  0.3133498274185  0.6541426446241 1.0
C      1  0.6930983275597  0.3112116792364  0.7029238284418 1.0
C      1  0.5038378861117  0.6577551955726  0.2234085129149 1.0
C      1  0.2461424512946  0.3477767181318  0.4668186834115 1.0
C      1  0.7511278005048  0.4326394312173  0.2966031192741 1.0
C      1  0.6398463375556  0.6027154419417  0.7425861519691 1.0
C      1  0.5881948750755  0.4845021698043  0.6336163679622 1.0
C      1  0.8681444383713  0.5473392852533  0.4063944581895 1.0
C      1  0.7277832294165  0.3748406279161  0.6383763934216 1.0
C      1  0.2869815202704  0.1960201976293  0.5470977194878 1.0
C      1  0.5315869421222  0.2557850194067  0.7939627180137 1.0
C      1  0.4134044768041  0.4132159619689  0.4496482696844 1.0
C      1  0.5917630743500  0.5879985687187  0.6490785633349 1.0
C      1  0.3929156470155  0.5351221425930  0.2112071121324 1.0
C      1  0.6520306306126  0.2138587812932  0.4053450339846 1.0
C      1  0.3528825803911  0.4165587997041  0.7339991798654 1.0
C      1  0.3025770939142  0.2720426139040  0.3185917988706 1.0
C      1  0.4173131566508  0.5605066510942  0.6459688276902 1.0
C      1  0.6166354035594  0.5488474403175  0.8232592824521 1.0
C      1  0.6325618581859  0.2225750529269  0.3035445502304 1.0
C      1  0.3006539534404  0.6562220058001  0.5544239594267 1.0
C      1  0.2441935777025  0.7607965216674  0.3560324021991 1.0
C      1  0.3649525551845  0.7392547575664  0.5869213208317 1.0
C      1  0.3308802664623  0.6784268225321  0.2515243757727 1.0
C      1  0.1955930224649  0.6003804332161  0.6697496746753 1.0
C      1  0.7092241413028  0.7818467546808  0.4224586246846 1.0
C      1  0.2604243003346  0.2744482888703  0.4055565422412 1.0
C      1  0.7984841033870  0.6024756118929  0.4035214303118 1.0
C      1  0.5630763820887  0.2138479734611  0.7109313591705 1.0
C      1  0.6570151309206  0.2967249709433  0.2526113652488 1.0
C      1  0.8940799305659  0.4647241543973  0.6256839411558 1.0
C      1  0.6244564913897  0.6459310965919  0.8393015080790 1.0
C      1  0.5307154450803  0.1796908346131  0.5573957938501 1.0
C      1  0.2924695480300  0.1949543186992  0.4529873429831 1.0
C      1  0.5761754607931  0.3891851557751  0.1226093106784 1.0
C      1  0.6018955972474  0.6719809083249  0.5001427019002 1.0
C      1  0.3306346056776  0.3343111473101  0.6775598980428 1.0
C      1  0.6360285236869  0.2486628461410  0.6608479167666 1.0
C      1  0.6249570747159  0.8105226588437  0.4066962166578 1.0
C      1  0.5705732603736  0.7670645517403  0.5339404243672 1.0
C      1  0.3689165244521  0.4919748940814  0.1313194177475 1.0
C      1  0.0912531996990  0.5391821545308  0.4512567415296 1.0
C      1  0.3291798209808  0.4964267762508  0.5167693507754 1.0
C      1  0.6756432023997  0.3181485603865  0.7934852943152 1.0
C      1  0.2852990133698  0.4834768420221  0.7586695240348 1.0
C      1  0.2997235048328  0.7664847609148  0.2761734761324 1.0
C      1  0.4459744331389  0.2051520379444  0.4966456759338 1.0
C      1  0.5578561655044  0.2164353300239  0.3997663768384 1.0
C      1  0.3107307587060  0.8266679077818  0.3493218553091 1.0
C      1  0.4563336603568  0.6681011832797  0.4297208679108 1.0
C      1  0.3818582425178  0.2151981027844  0.3289025086646 1.0
C      1  0.6894306011497  0.2482408703743  0.4832793612257 1.0
C      1  0.5504325728882  0.3329546454065  0.5251685737488 1.0
C      1  0.8125172877145  0.5695524070721  0.7236369250725 1.0
C      1  0.8893557219053  0.4036293539908  0.4682180282845 1.0
C      1  0.4686347724875  0.4621743602911  0.8007517680524 1.0
C      1  0.6054391335254  0.5198419786002  0.2726761125681 1.0
C      1  0.7355369896992  0.5943708867725  0.7376163075901 1.0
END
