TITL C-17339-2271-28 -5.561 3375.00 -943.48230943 0 0 117 () n - 1
REM
REM Run started: at 2020.12.26 01:48:00 in /gpfs/home/chem/mssmkc/CARBON/AIRSS/Generating-Clusters/Str-Search/Only-C1/C100-200
REM VASP from code version vasp.5.4.4.18Apr17-6-g9f103f2a35 (build Oct 11 2019 16:45:47) gamma-only
REM
REM
REM
REM
REM ./C.cell (efaf0b2bf1589a83377268d7ebe2c73f)
REM AIRSS Version 0.9.1 bugfix July 2018 build 013d7b7c2542+ Fri, 06 Jul 2018 19:26:36 +0100
REM compiler GCC version 6.3.0
REM options -cpp -iprefix /gpfs/warwick/csc/orac/software/Core/GCCcore/6.3.0/bin/../lib/gcc/x86_64-pc-linux-gnu/6.3.0/ -mtune=generic -march=x86-64 -g -O0
REM seed 376407832 -1087061831 1360449116 886381789 -1624729209 -2032076309 1515924418 298950634 1106729705 1038150200 -566950615 -1373465242
REM
REM C.POTCAR (d86ddea03c3ceb6dc662c8ad6801f873)
REM 
CELL 1.54180   15.00000   15.00000   15.00000   90.00000   90.00000   90.00000
LATT -1
SFAC C  
C      1  0.2463719928790  0.4298534848723  0.5925969353442 1.0
C      1  0.8145987635829  0.5980809860423  0.5416101213895 1.0
C      1  0.6552743567925  0.4017447514551  0.2904782073750 1.0
C      1  0.3434978741119  0.7311575899102  0.4838683999303 1.0
C      1  0.7433658649534  0.6555437649755  0.4092500571413 1.0
C      1  0.2151548004381  0.6416489460693  0.6844227326235 1.0
C      1  0.5817205452498  0.1983297395753  0.2196726724159 1.0
C      1  0.6140396332182  0.6317379261578  0.2912931447241 1.0
C      1  0.5393826594675  0.6299393670186  0.3530614266263 1.0
C      1  0.4469155362568  0.3353964699128  0.5161165999340 1.0
C      1  0.2654692725607  0.2705249702705  0.5648930811884 1.0
C      1  0.6039353061317  0.3407643954144  0.7208363062481 1.0
C      1  0.4906501096468  0.4847589990636  0.4525726185380 1.0
C      1  0.6096835920294  0.3442738472246  0.4435390563620 1.0
C      1  0.3559207510699  0.7182640667556  0.3240927299145 1.0
C      1  0.7017535871695  0.3277538708430  0.7005915227278 1.0
C      1  0.5010124734607  0.7055330034209  0.4021996112650 1.0
C      1  0.3823009717081  0.5347861606124  0.2023160663548 1.0
C      1  0.2972587181106  0.2657078386898  0.6543892836888 1.0
C      1  0.4473889338510  0.2346761238768  0.5481268669627 1.0
C      1  0.5826510989435  0.6893217526041  0.6166474017624 1.0
C      1  0.3858896549026  0.6849154634431  0.7369187873114 1.0
C      1  0.5482204111242  0.3514463255105  0.8089157216779 1.0
C      1  0.4394607562840  0.1748732629193  0.4686385481504 1.0
C      1  0.5294980345161  0.8457479121401  0.5834200641373 1.0
C      1  0.4532485111020  0.6193564734455  0.7788869711276 1.0
C      1  0.4013328676170  0.4642292770939  0.4185911616584 1.0
C      1  0.6306726199235  0.5268923064207  0.4304003074301 1.0
C      1  0.5329075929191  0.2789984589046  0.6900466440187 1.0
C      1  0.4302878436089  0.5483206447293  0.7043197119935 1.0
C      1  0.7701037360841  0.3702599637112  0.4083524242090 1.0
C      1  0.3756924646010  0.3933895128339  0.4811882923851 1.0
C      1  0.5016252975144  0.5212577375661  0.5491744084281 1.0
C      1  0.7317214217582  0.5649800486244  0.2716396268521 1.0
C      1  0.6622919898139  0.5460626704573  0.5851720383429 1.0
C      1  0.5221544839408  0.4291425089363  0.5899694632355 1.0
C      1  0.3624528634065  0.4713987504955  0.7373063073581 1.0
C      1  0.2743812462494  0.4207564696655  0.6905692740478 1.0
C      1  0.6023840493548  0.4633931234847  0.2369765496803 1.0
C      1  0.7347810500845  0.3197136623478  0.5364595185047 1.0
C      1  0.8575628471984  0.5212846987390  0.5696026633157 1.0
C      1  0.3690930456727  0.3792009618207  0.2452501708823 1.0
C      1  0.5300408777179  0.3868059751076  0.4909222971710 1.0
C      1  0.4098504492120  0.5657484467824  0.8522387779593 1.0
C      1  0.5500079505814  0.5441628086748  0.3993989749656 1.0
C      1  0.4513870293684  0.8152881691953  0.5720995658170 1.0
C      1  0.3464251546401  0.4232187133114  0.5648612396248 1.0
C      1  0.2542125874925  0.6975558132577  0.4534310310138 1.0
C      1  0.7591765856089  0.2737525470975  0.4536638708866 1.0
C      1  0.5909839196267  0.4225659956073  0.6594181195074 1.0
C      1  0.4755245895793  0.5620972732145  0.6291748485088 1.0
C      1  0.3924752307376  0.2024173370417  0.4054640388597 1.0
C      1  0.4241534022220  0.3910237529682  0.6139508078305 1.0
C      1  0.2257533579712  0.3680627806676  0.4324725811574 1.0
C      1  0.1904421738994  0.6022323428468  0.5927999468589 1.0
C      1  0.2027178419341  0.5111020791064  0.5612563462448 1.0
C      1  0.4771300253416  0.3250921271500  0.7531011687428 1.0
C      1  0.2054807196127  0.6282927814584  0.4951020948283 1.0
C      1  0.7819037245209  0.4990131513804  0.3134300760963 1.0
C      1  0.2109757339095  0.4633885936365  0.4048539760080 1.0
C      1  0.6786610500895  0.6841778034797  0.6536812714343 1.0
C      1  0.5125239432501  0.3348567865779  0.2781465806469 1.0
C      1  0.2614253942039  0.6999054805637  0.3568392727496 1.0
C      1  0.5824904211630  0.7697353364058  0.5632816516690 1.0
C      1  0.4069231145729  0.6158974453914  0.1679121315954 1.0
C      1  0.7248351256942  0.6384554542243  0.5740960465926 1.0
C      1  0.3075283675210  0.3376036529714  0.7151566095907 1.0
C      1  0.3152716469500  0.5498369550289  0.2805389603399 1.0
C      1  0.7082892642616  0.6447406905135  0.3225436127453 1.0
C      1  0.7241506120884  0.4729018170959  0.7907064151619 1.0
C      1  0.3477166501204  0.5068617212770  0.3624988623272 1.0
C      1  0.4250413248853  0.4491226201853  0.2091599117340 1.0
C      1  0.3590239576714  0.7282304650654  0.6576925874452 1.0
C      1  0.2965346640688  0.6802479594113  0.7072417050584 1.0
C      1  0.3513880265873  0.2313224615884  0.5888325820757 1.0
C      1  0.2839213036969  0.3858176161948  0.2870045253095 1.0
C      1  0.6259008940001  0.2382376790399  0.5735621087465 1.0
C      1  0.5348919247938  0.2338592830115  0.6076719171701 1.0
C      1  0.3576180186852  0.5040952129205  0.8317978956664 1.0
C      1  0.6656230073817  0.4742731812963  0.6558537949238 1.0
C      1  0.2590227608374  0.4737723964510  0.3192560346837 1.0
C      1  0.8138486346229  0.5969155814562  0.4435803945781 1.0
C      1  0.3781210346661  0.7608644237331  0.5709008687558 1.0
C      1  0.8728284399460  0.4494268899643  0.5280679705612 1.0
C      1  0.5652450473166  0.5902210421295  0.5875538981168 1.0
C      1  0.4100820225859  0.7599605719624  0.2466157822765 1.0
C      1  0.5157630814611  0.4229510705468  0.2258010497467 1.0
C      1  0.6577769483261  0.2627758328403  0.4823476442921 1.0
C      1  0.1938566158520  0.5313998732182  0.4693640905451 1.0
C      1  0.6848046039224  0.5366148783447  0.8349004986710 1.0
C      1  0.6128737016545  0.5833995149061  0.8302064513893 1.0
C      1  0.8325143968861  0.5165927642102  0.3942511465760 1.0
C      1  0.3583821573614  0.2660776546885  0.3495702437936 1.0
C      1  0.6307122929206  0.7557134651624  0.4808015986259 1.0
C      1  0.2207377633865  0.3441024524177  0.5265867372696 1.0
C      1  0.2744926751783  0.3230913805391  0.3576246284109 1.0
C      1  0.5379668298799  0.8220319003918  0.3326688295956 1.0
C      1  0.5895053298054  0.2573148058249  0.2821262309977 1.0
C      1  0.6065274881649  0.6815252875543  0.7109548634545 1.0
C      1  0.3999627982592  0.3735494596128  0.7186241975599 1.0
C      1  0.5968397412222  0.3363644614861  0.3383965101485 1.0
C      1  0.7412614143482  0.4119950670797  0.3220198183339 1.0
C      1  0.6963445833884  0.3979692340010  0.4801249298004 1.0
C      1  0.8437547865101  0.4332315857945  0.4415552341209 1.0
C      1  0.4174936116017  0.3120153190317  0.2895537775450 1.0
C      1  0.2949243932930  0.6420650113571  0.2988460071713 1.0
C      1  0.7015735498709  0.2821989116217  0.6201478906235 1.0
C      1  0.1281629766058  0.6404495888997  0.6663887120569 1.0
C      1  0.4799454991369  0.8159646757512  0.2700249239370 1.0
C      1  0.4070763757111  0.6997252334427  0.1752586050139 1.0
C      1  0.7312838828039  0.4238170365618  0.7163344337792 1.0
C      1  0.5575160604604  0.6387354057023  0.7833111377282 1.0
C      1  0.5699832516663  0.7761334340934  0.4051433544444 1.0
C      1  0.4050802788449  0.7179494019739  0.4119935551759 1.0
C      1  0.6968392930328  0.6909851789945  0.4854340323185 1.0
C      1  0.6737264141319  0.4926296907414  0.4984759652767 1.0
C      1  0.6406595693681  0.5520510187109  0.2389565502994 1.0
END
