TITL C-17611-3875-25 -14.316 3375.00 -3054.98033552 0 0 367 (C1) n - 1
REM
REM Run started: at 2020.07.14 13:14:19 in /home/heco/bkarasulu/work/CARBON/AIRSS/Str-Search
REM VASP from code version vasp.5.4.4.18Apr17-6-g9f103f2a35 (build Jul 02 2020 21:03:42) gamma-only
REM
REM
REM
REM
REM ./C.cell (90889e035cd0f9d0e5f9cb6dd9eb5d52)
REM AIRSS Version 0.9.1 bugfix July 2018 build 013d7b7c2542+ Fri, 06 Jul 2018 19:26:36 +0100
REM compiler GCC version 9.2.0
REM options -cpp -mtune=generic -march=x86-64 -g -O0
REM seed -1771541748 557082279 -2107776897 327542637 -1896544658 2035061481 1711968541 973608699 626566966 -236247152 -217270242 -247818076 -1583656931 53654633 -1601442794 617316237 -1061681810 -950129323 184143956 231000142 1708377542 -1451125116 -137835993 1660007162 -2099181495 1281485248 -1907747674 -291964448 -2023193116 526072548 902806372 425379439 -1777559890
REM
REM C.POTCAR (d86ddea03c3ceb6dc662c8ad6801f873)
REM 
CELL 1.54180   15.00000   15.00000   15.00000   90.00000   90.00000   90.00000
LATT -1
SFAC C  
C      1  0.0194958757183  0.3093473531662  0.3176915812807 1.0
C      1  0.2804486963619  0.6615072787512  0.0702787214932 1.0
C      1  0.6023693081469  0.4560630601797  0.8686164567284 1.0
C      1  0.6684782217847  0.8553450870335  0.8226729198650 1.0
C      1  0.8143478136089  0.4382123752036  0.6420338202947 1.0
C      1  0.7674898066340  0.4440153668869  0.5500572669697 1.0
C      1  0.5996046708610  0.8186851580197  0.5606288139918 1.0
C      1  0.9489482100363  0.2108583192717  0.6276062900043 1.0
C      1  0.2194051534959  0.5584062554295  0.5085321922733 1.0
C      1  0.7736050560647  0.3989005461835  0.4013763600236 1.0
C      1  0.4776080107066  0.2514230603303  0.2952275954512 1.0
C      1  0.0921009509455  0.8069885201031  0.6008711172531 1.0
C      1  0.6906327514028  0.6223162708628  0.3781174661074 1.0
C      1  0.5540852093907  0.4656475028983  0.2221484551181 1.0
C      1  0.1230156217652  0.3474564240647  0.1911584341542 1.0
C      1  0.7248801571444  0.4502721350204  0.2692099585458 1.0
C      1  0.1700759197283  0.6180574936355  0.3649039335331 1.0
C      1  0.1312596395539  0.7981456175787  0.5077242161373 1.0
C      1  0.9781888072524  0.2440879117641  0.5491039422448 1.0
C      1  0.2390333014974  0.2616621670639  0.7481956012323 1.0
C      1  0.5706708877257  0.2275095562729  0.6956144976777 1.0
C      1  0.2735015279955  0.5583568104223  0.5962616608024 1.0
C      1  0.7535750566984  0.3571306938280  0.4869502768774 1.0
C      1  0.2284367296448  0.0926310998319  0.6988740679919 1.0
C      1  0.1915309042193  0.7251589404194  0.1769760258784 1.0
C      1  0.6293429984137  0.4660242857060  0.0387748007747 1.0
C      1  0.3172384182198  0.1541165800774  0.3066064639596 1.0
C      1  0.4588162711924  0.5637486390265  0.0342025760131 1.0
C      1  0.5547786720376  0.4228276339397  0.0679043033768 1.0
C      1  0.4252342667614  0.6581485074060  0.8310304136234 1.0
C      1  0.5580431256282  0.7399339527385  0.9075766472708 1.0
C      1  0.2757493624760  0.3062399113971  0.1259950495429 1.0
C      1  0.5751187052218  0.1846747741083  0.8644936150608 1.0
C      1  0.4878451038016  0.0593468283186  0.6847214121054 1.0
C      1  0.3000656809777  0.1740052295755  0.4757700454422 1.0
C      1  0.1613553378203  0.5197808128116  0.2293821652628 1.0
C      1  0.3107123563999  0.5106690321274  0.1570683227026 1.0
C      1  0.3085091595068  0.9492462865116  0.3699840137107 1.0
C      1  0.8289204316119  0.5592596297683  0.8320917945613 1.0
C      1  0.3584256331728  0.8277082626453  0.8009653195680 1.0
C      1  0.5676847280160  0.4321178780463  0.6890028228005 1.0
C      1  0.7021867819364  0.4320880852847  0.0991263032468 1.0
C      1  0.6149690463850  0.1734063397849  0.2338270560575 1.0
C      1  0.5758503727267  0.5989591746916  0.5332794183084 1.0
C      1  0.5292273815542  0.3502160740883  0.6333908472427 1.0
C      1  0.5600880256964  0.3062503843503  0.3235550819837 1.0
C      1  0.6613000831829  0.9675453068406  0.4180903280975 1.0
C      1  0.4111572808157  0.3152636818478  0.2580612229701 1.0
C      1  0.8736341438246  0.2384036459673  0.7780126765222 1.0
C      1  0.5743701650790  0.3987632234091  0.4547475919377 1.0
C      1  0.9255897874534  0.3092571892254  0.4911544441170 1.0
C      1  0.5286059804333  0.5934627422496  0.6171012009965 1.0
C      1  0.9129063163936  0.5744485803690  0.6703166499771 1.0
C      1  0.4408554867844  0.3513347456551  0.1656996506595 1.0
C      1  0.2145751245469  0.7561622680243  0.7208577736121 1.0
C      1  0.0149574137624  0.4015128985239  0.3125164948994 1.0
C      1  0.5501636356239  0.1278057160813  0.7292300983440 1.0
C      1  0.5780650675126  0.2913714121240  0.0358954112479 1.0
C      1  0.2463535561195  0.1916846661388  0.2503489038856 1.0
C      1  0.2545443662554  0.5842429457506  0.1201382981872 1.0
C      1  0.2371714404654  0.8333412166686  0.3161292842023 1.0
C      1  0.3415465364651  0.1741026106675  0.1018118387767 1.0
C      1  0.6899363677489  0.7256360757252  0.2856926504141 1.0
C      1  0.6511448075557  0.1101039380146  0.7534270104900 1.0
C      1  0.3712381966398  0.5702824095457  0.9745541950989 1.0
C      1  0.4066827977199  0.9084583311844  0.3671192713169 1.0
C      1  0.4676999359602  0.4633541096721  0.0615857436928 1.0
C      1  0.4517169950574  0.1967913449625  0.3789108147644 1.0
C      1  0.3177532316249  0.0267240112275  0.4299448257964 1.0
C      1  0.2246199922248  0.6616534782363  0.2879015284938 1.0
C      1  0.2923468623513  0.4561641377172  0.8947561179298 1.0
C      1  0.3972606669729  0.4060603503273  0.0165123966711 1.0
C      1  0.8578151960783  0.6843368299237  0.1522018765857 1.0
C      1  0.6034323039867  0.9129550956911  0.7903114940852 1.0
C      1  0.3635849767227  0.7855480891125  0.5794879847822 1.0
C      1  0.7034813545632  0.9482122861080  0.6667175330969 1.0
C      1  0.4289967194822  0.5637842073950  0.8912607918471 1.0
C      1  0.2638588469547  0.7427810827550  0.1218500338560 1.0
C      1  0.9543660830823  0.4067482319421  0.7872299395630 1.0
C      1  0.4575912775056  0.9197012482645  0.6200361082664 1.0
C      1  0.7134548981133  0.7186355379447  0.8713601414734 1.0
C      1  0.7032373408525  0.8712151769629  0.2499958962793 1.0
C      1  0.7541422936695  0.8446479469017  0.4626227997919 1.0
C      1  0.0675798086022  0.7206259437782  0.6324990393646 1.0
C      1  0.4288913392538  0.2273896781539  0.6304982805427 1.0
C      1  0.5196562023619  0.5643689768637  0.9485895091969 1.0
C      1  0.9334512586859  0.6246160336721  0.2717885130558 1.0
C      1  0.2957864129470  0.3156884347064  0.6083903852124 1.0
C      1  0.1414029354669  0.4745385495795  0.6085732923499 1.0
C      1  0.1800214061957  0.8447991104011  0.7314138226129 1.0
C      1  0.6099821293842  0.9292852037172  0.6918996944214 1.0
C      1  0.7138140587501  0.5500347098331  0.4395111656497 1.0
C      1  0.1031951257790  0.5490225863689  0.7622232219862 1.0
C      1  0.2151144397045  0.1619019853850  0.6224958912499 1.0
C      1  0.6521391550647  0.0320859877584  0.2744783857873 1.0
C      1  0.1491142898842  0.2833567665625  0.7041334603628 1.0
C      1  0.5609366710028  0.0133937645884  0.5460787012274 1.0
C      1  0.3813386727491  0.2974110813676  0.5765031401271 1.0
C      1  0.1054004792436  0.1935726358879  0.4591425393516 1.0
C      1  0.3224277154342  0.4773861743961  0.9901828455657 1.0
C      1  0.3748764218796  0.2438910768792  0.0389891829691 1.0
C      1  0.7292737485470  0.2727587368082  0.3022849246466 1.0
C      1  0.7678404561921  0.6122791958619  0.0558635373083 1.0
C      1  0.8753691760094  0.1998740904477  0.3744364722149 1.0
C      1  0.4638270256295  0.4516488522217  0.1642624306419 1.0
C      1  0.8034759279992  0.0404328980779  0.5575645962371 1.0
C      1  0.8059787059936  0.3160702695199  0.1603528797436 1.0
C      1  0.7877199710285  0.7538240446003  0.4448694143819 1.0
C      1  0.0732434614159  0.7243289532662  0.2945432935106 1.0
C      1  0.6504112000162  0.4297002500769  0.1981403819244 1.0
C      1  0.2854064292066  0.6032196367760  0.8124841646237 1.0
C      1  0.7798246280370  0.7387814739231  0.8082640944036 1.0
C      1  0.2204640843030  0.8990770871510  0.5793863685253 1.0
C      1  0.7980655571415  0.2382976251412  0.2301698269452 1.0
C      1  0.4969645279341  0.7175402524195  0.2837710119176 1.0
C      1  0.8446290454221  0.8878726526596  0.6287492132209 1.0
C      1  0.0861499280620  0.7258458004994  0.4591253624593 1.0
C      1  0.0569375859313  0.4804860137169  0.3363439296966 1.0
C      1  0.1417519441718  0.6614202813408  0.5980391006817 1.0
C      1  0.5672276016501  0.6373680658989  0.2889863281200 1.0
C      1  0.3922116729885  0.8644427081910  0.1507364683891 1.0
C      1  0.0641724039752  0.4957103296876  0.6839461998604 1.0
C      1  0.9197370685835  0.5917137581101  0.3626005394519 1.0
C      1  0.4983947505829  0.1996172805240  0.5557468719477 1.0
C      1  0.0712636959257  0.3600231333238  0.5092917611537 1.0
C      1  0.3009270170530  0.9505513335802  0.6069095414412 1.0
C      1  0.9736032970265  0.5108703211531  0.3730624981041 1.0
C      1  0.4227516655992  0.4016834676687  0.5014200222025 1.0
C      1  0.1794869682282  0.4350701642620  0.0912807429540 1.0
C      1  0.0318373516343  0.5707397178590  0.5250643756751 1.0
C      1  0.3753738218972  0.1718882680973  0.7037318145191 1.0
C      1  0.4913088599823  0.8715244657901  0.1429300041464 1.0
C      1  0.6501088604801  0.7914972571532  0.2193933540481 1.0
C      1  0.3408342308360  0.3411777149920  0.3142390506546 1.0
C      1  0.7773295448180  0.6762197971537  0.6031861527817 1.0
C      1  0.6905667147183  0.8055778415476  0.5294196465494 1.0
C      1  0.8760681648289  0.8047851819280  0.6224456779310 1.0
C      1  0.6572118148182  0.1392471215629  0.4065143911018 1.0
C      1  0.2866871263294  0.9185778457208  0.2712896628320 1.0
C      1  0.6293928245577  0.0538086789880  0.3656491105046 1.0
C      1  0.4210132030297  0.3109931296690  0.7648650102320 1.0
C      1  0.4868422471083  0.5340720293912  0.4383853538691 1.0
C      1  0.8812548087160  0.4677664103502  0.8248577724718 1.0
C      1  0.7338483695978  0.3922911479304  0.8055063250257 1.0
C      1  0.2147142202591  0.6848435255509  0.6658380628569 1.0
C      1  0.5872101962024  0.6296943932647  0.9004283671389 1.0
C      1  0.7220517659102  0.7173884459221  0.3813193180475 1.0
C      1  0.2349936603943  0.4626583058704  0.4691505893124 1.0
C      1  0.3135380815084  0.7749874094768  0.3559844594013 1.0
C      1  0.9238304700268  0.4389756587234  0.3158190486778 1.0
C      1  0.5517679259770  0.4085072506689  0.3093620014819 1.0
C      1  0.5915412827365  0.9096725386216  0.3654979154524 1.0
C      1  0.1930639227734  0.6172827332095  0.1944239473512 1.0
C      1  0.2817144507526  0.8310386191565  0.7298163012026 1.0
C      1  0.2322562612299  0.8868446367053  0.4045607812374 1.0
C      1  0.3871617338977  0.2590086075745  0.9503936844243 1.0
C      1  0.1952074300170  0.8706906104733  0.4860617531586 1.0
C      1  0.5752271893058  0.2515692323323  0.5978451046081 1.0
C      1  0.7386771137203  0.1787508059204  0.6030685774569 1.0
C      1  0.3713235208525  0.3322659269978  0.0879459074047 1.0
C      1  0.6940627472011  0.5075774659513  0.5905091457882 1.0
C      1  0.4795922255023  0.8394723897699  0.6819865577984 1.0
C      1  0.3507243525748  0.4795949846588  0.7387998874121 1.0
C      1  0.5709921574961  0.8141267874566  0.3616999755947 1.0
C      1  0.1736957456963  0.2182778786186  0.3945752762948 1.0
C      1  0.6305885707267  0.7421103278653  0.3797794435426 1.0
C      1  0.1677294719994  0.7022211973452  0.5103925169353 1.0
C      1  0.9265901524391  0.2074058229118  0.7075277971340 1.0
C      1  0.5485504269768  0.6796543501760  0.6646815792380 1.0
C      1  0.6277222121673  0.7780683148028  0.1180492946490 1.0
C      1  0.6900245932501  0.6316162321368  0.9164709745387 1.0
C      1  0.6554566494417  0.1370444657033  0.8433403635231 1.0
C      1  0.8514541970694  0.3995468410504  0.1599213221398 1.0
C      1  0.6715249751747  0.6316763703343  0.2750848723676 1.0
C      1  0.5018166132208  0.1651266330635  0.8124466139830 1.0
C      1  0.6184415447026  0.1482682840735  0.4866582192416 1.0
C      1  0.2764553154500  0.1145774774983  0.5613470629031 1.0
C      1  0.3763257765969  0.7123325779179  0.5007307556094 1.0
C      1  0.3284774029696  0.6743578472870  0.8435620506891 1.0
C      1  0.5346982365207  0.5004394816749  0.3581453229815 1.0
C      1  0.4706564653093  0.0887926628639  0.1727292219882 1.0
C      1  0.7348402669352  0.1848561209588  0.8701668308278 1.0
C      1  0.5165491062014  0.1539438955572  0.2425988123386 1.0
C      1  0.4300674620459  0.6117661612736  0.7433735231200 1.0
C      1  0.6363872103191  0.2696066482019  0.2608625104480 1.0
C      1  0.7935716165134  0.4709818211008  0.1183209940264 1.0
C      1  0.3925238550003  0.0993325458242  0.1294472325687 1.0
C      1  0.8340949384738  0.5470364877532  0.0661923783901 1.0
C      1  0.8356957332818  0.6551826988362  0.7827241548307 1.0
C      1  0.4475744225579  0.3456496655389  0.9349378031551 1.0
C      1  0.1476251166662  0.8704494951487  0.6457763979197 1.0
C      1  0.2996771835037  0.3324581356442  0.7044309299597 1.0
C      1  0.2577521370910  0.4822897284773  0.2332298692670 1.0
C      1  0.6750484072154  0.2818429171211  0.4670485781345 1.0
C      1  0.7391162943432  0.4039786656250  0.6995331253765 1.0
C      1  0.1253265366603  0.6859539454483  0.8472603763369 1.0
C      1  0.4460801139167  0.3876052767254  0.8352789209038 1.0
C      1  0.3999847268895  0.0110933321620  0.4883361289192 1.0
C      1  0.6622905018625  0.4725794514831  0.6810255622141 1.0
C      1  0.7744624179191  0.5785093613332  0.5914045453894 1.0
C      1  0.5746321568384  0.3029060143155  0.4306028705440 1.0
C      1  0.7459083342016  0.7336319501330  0.5345912380570 1.0
C      1  0.3386150359428  0.4916320997650  0.5851134838722 1.0
C      1  0.8445578208591  0.9529147824522  0.5489142332807 1.0
C      1  0.3570796637011  0.7784475701019  0.1363051560857 1.0
C      1  0.6288185001339  0.9366969255296  0.2654225657703 1.0
C      1  0.7561488406603  0.9201493652241  0.3948430944259 1.0
C      1  0.2802807961528  0.2143455142323  0.1597866476228 1.0
C      1  0.8721795781337  0.7415370122589  0.3982019518551 1.0
C      1  0.0290434200246  0.4123134713659  0.7322753163991 1.0
C      1  0.7053746297307  0.6550788219000  0.0104121934897 1.0
C      1  0.0883246868357  0.6734224201442  0.3772674301403 1.0
C      1  0.1290676095392  0.5620847246470  0.5559467145604 1.0
C      1  0.0030263422027  0.5696442566196  0.6404795490756 1.0
C      1  0.6533023460781  0.2767151129367  0.7284163858619 1.0
C      1  0.6164181761937  0.7447309823848  0.6890287475230 1.0
C      1  0.2157243964449  0.3120004164757  0.5515829491598 1.0
C      1  0.0169089190122  0.6645338472063  0.6979399421906 1.0
C      1  0.8815499566350  0.5637953957608  0.4594670498364 1.0
C      1  0.7098351915887  0.4713337999362  0.3738672012984 1.0
C      1  0.2888553706324  0.7227123809605  0.9176300679040 1.0
C      1  0.7596741019312  0.6683751026942  0.1368261445583 1.0
C      1  0.7165988846707  0.9976449636171  0.5859755572588 1.0
C      1  0.3778201572321  0.0872624212925  0.2900988169586 1.0
C      1  0.2342320742214  0.5335170216965  0.8584204325236 1.0
C      1  0.3011239186210  0.8507290515746  0.6309372256580 1.0
C      1  0.2694882899964  0.4062250515221  0.2989921417630 1.0
C      1  0.1875935443829  0.7158387209466  0.8942373739435 1.0
C      1  0.0746274328490  0.2558660175394  0.5343277155616 1.0
C      1  0.5551610187379  0.8049276174902  0.2617263411355 1.0
C      1  0.5039150227586  0.7887213870226  0.9879734762100 1.0
C      1  0.9288610201281  0.5543015148042  0.1990967681553 1.0
C      1  0.4260099557766  0.5702352584858  0.2681205021741 1.0
C      1  0.5328914964479  0.9008111445650  0.2340900659892 1.0
C      1  0.5076992027893  0.5442550064068  0.7594970236991 1.0
C      1  0.7465290970880  0.5483547717375  0.8914037295650 1.0
C      1  0.5282767883071  0.6303371348637  0.4564018716227 1.0
C      1  0.8561668803161  0.7193436548610  0.6415264975700 1.0
C      1  0.4075266036691  0.6887833712318  0.1555238774997 1.0
C      1  0.5909284713534  0.6016640838594  0.7931224124417 1.0
C      1  0.1615184822800  0.1258902133705  0.4379843138866 1.0
C      1  0.8132544563267  0.1976547494673  0.4568863876276 1.0
C      1  0.5332568285900  0.9820393742901  0.6377548928807 1.0
C      1  0.4004348202081  0.8199435461173  0.3675375077891 1.0
C      1  0.4076279272331  0.6709576944053  0.2562409933746 1.0
C      1  0.5310767309037  0.4452007347236  0.7971438767500 1.0
C      1  0.8495140679620  0.1721343360997  0.2878241551928 1.0
C      1  0.7144153243413  0.3241499221475  0.1106827805938 1.0
C      1  0.4051774287638  0.3084875602880  0.4769470988451 1.0
C      1  0.8963548484260  0.5983466279420  0.1221672864891 1.0
C      1  0.9240003644367  0.6587422084922  0.4329754340517 1.0
C      1  0.0770828729316  0.6364343401226  0.7784637776681 1.0
C      1  0.2908559821294  0.5041653350878  0.3191238914390 1.0
C      1  0.3731607393940  0.6871814142316  0.6020878382634 1.0
C      1  0.6593815578456  0.3173745429678  0.8103378487983 1.0
C      1  0.4229931536546  0.8112504265488  0.9540846792128 1.0
C      1  0.4868926401579  0.2846342933951  0.6944305824190 1.0
C      1  0.4809743971161  0.7658796224277  0.3758267559568 1.0
C      1  0.7777889469398  0.5740514235615  0.7457946949436 1.0
C      1  0.7732469278050  0.8927198234959  0.6994262174161 1.0
C      1  0.3326319776547  0.2935584277548  0.4056466222787 1.0
C      1  0.3876750655714  0.0330854788821  0.2066714902016 1.0
C      1  0.4546907569369  0.6559612639439  0.6510421237795 1.0
C      1  0.6927701033350  0.4785714349549  0.8398622028934 1.0
C      1  0.2979303426935  0.6350180210091  0.6483678003757 1.0
C      1  0.3055155504326  0.0446818035204  0.6471168120259 1.0
C      1  0.7308451569907  0.6001305817582  0.2059055489091 1.0
C      1  0.4065507736347  0.5315674656358  0.1791111371693 1.0
C      1  0.6144538748063  0.4465716577131  0.3787280608328 1.0
C      1  0.3867341825751  0.9606355070152  0.5625678324965 1.0
C      1  0.5380003039600  0.1108383731221  0.5232409955026 1.0
C      1  0.3971524868541  0.0770084622031  0.6841738010734 1.0
C      1  0.3812164582279  0.4674952795109  0.8376475605339 1.0
C      1  0.2344991086641  0.4790360272065  0.6424217645925 1.0
C      1  0.2258127859671  0.6422941083661  0.4505306119856 1.0
C      1  0.4989170768487  0.9466332401431  0.3344729068201 1.0
C      1  0.6507207468147  0.9856656430656  0.5175727356847 1.0
C      1  0.1518993263335  0.2458662920617  0.6078433405860 1.0
C      1  0.1613143630216  0.4004733733047  0.5313170183816 1.0
C      1  0.5490235251479  0.3350630539384  0.1209722283419 1.0
C      1  0.7240977681824  0.3142912567575  0.6678541584998 1.0
C      1  0.6348076893125  0.3304430731769  0.1797655467699 1.0
C      1  0.2470111541857  0.2625948651178  0.4581339778390 1.0
C      1  0.8597482346117  0.3735427446026  0.3506875810041 1.0
C      1  0.7965635635222  0.5375667764321  0.4994511399804 1.0
C      1  0.5932933408584  0.6515003280823  0.3852911898280 1.0
C      1  0.8989783204709  0.7231261199143  0.2341467170154 1.0
C      1  0.8247378355764  0.2896034774304  0.5159301052699 1.0
C      1  0.3431795003171  0.4643252341845  0.4914181845082 1.0
C      1  0.0996072353557  0.2866933780096  0.2637591712820 1.0
C      1  0.7773858372977  0.8656700654445  0.3068463903884 1.0
C      1  0.7878474249165  0.1877946620632  0.7902033446745 1.0
C      1  0.9236662264310  0.2891864546346  0.3803179976360 1.0
C      1  0.6765020637778  0.2751908867354  0.0305973730243 1.0
C      1  0.4101506444426  0.4649010592672  0.6505651881623 1.0
C      1  0.7298909717533  0.1490187705563  0.7114056725352 1.0
C      1  0.1820537831189  0.4068836504358  0.7956499488449 1.0
C      1  0.3478340343477  0.9371498036354  0.2026539063276 1.0
C      1  0.9857101675913  0.3961522821324  0.5023891904204 1.0
C      1  0.8275445262260  0.3892227975954  0.8335515947950 1.0
C      1  0.1102530125128  0.3551848368364  0.7442549602105 1.0
C      1  0.3440134460413  0.2290368576377  0.8703669928567 1.0
C      1  0.4404149850242  0.6097821523697  0.1196458981554 1.0
C      1  0.3526037011719  0.1970418230000  0.3901481498138 1.0
C      1  0.4467795502416  0.8112113300752  0.7720470319348 1.0
C      1  0.3103218617404  0.6937252146468  0.4227498089059 1.0
C      1  0.1612318449299  0.4999286687848  0.8173424186246 1.0
C      1  0.3166334319158  0.6548996737253  0.9887039664850 1.0
C      1  0.6470368387806  0.7832688692710  0.8824983389461 1.0
C      1  0.4749135838229  0.7187838496105  0.4667898674826 1.0
C      1  0.5713829668500  0.6934973550122  0.7594624731232 1.0
C      1  0.2743616007091  0.1784313456655  0.7073124666156 1.0
C      1  0.6475769509205  0.5488111537596  0.5175804538345 1.0
C      1  0.4722810505429  0.1115032977642  0.3284095217567 1.0
C      1  0.1444598922206  0.5191551678938  0.3320181173714 1.0
C      1  0.3364910429952  0.5791459316766  0.7319155298784 1.0
C      1  0.6775681516993  0.5434989585590  0.7588596368140 1.0
C      1  0.4533191505348  0.8216844352771  0.5885824463058 1.0
C      1  0.7947149793215  0.1282103178350  0.5339480318389 1.0
C      1  0.7769462572442  0.1418883368391  0.2329142730207 1.0
C      1  0.7675268164304  0.3629009134300  0.3108405399205 1.0
C      1  0.9939424575568  0.7034399484318  0.2546744995271 1.0
C      1  0.2571006488369  0.4917345925497  0.0706608166631 1.0
C      1  0.6859762163415  0.7174076207018  0.0830319794771 1.0
C      1  0.1253196055052  0.4458487772490  0.1696978777251 1.0
C      1  0.2204686506999  0.4620997337221  0.3705168128520 1.0
C      1  0.1942788714371  0.3447069684711  0.1212605248212 1.0
C      1  0.4987526681475  0.7344169393297  0.8215156036651 1.0
C      1  0.5078861714353  0.5098672172026  0.6662041236407 1.0
C      1  0.6095435222005  0.2743958999395  0.8918099176950 1.0
C      1  0.9069646964734  0.4644625837752  0.2210391905568 1.0
C      1  0.8282163474110  0.5331301400252  0.6658350651664 1.0
C      1  0.5869279611113  0.4906659669878  0.9513202805331 1.0
C      1  0.8563209161110  0.7794102025386  0.3121245293120 1.0
C      1  0.9691970441245  0.4997994318004  0.4761121089091 1.0
C      1  0.7794591304913  0.2689071705610  0.6092139904229 1.0
C      1  0.8940860667829  0.3246457816034  0.8109040451245 1.0
C      1  0.7669193205192  0.5167840619958  0.2085499575999 1.0
C      1  0.3908508476012  0.5284906569985  0.4284953063014 1.0
C      1  0.0184195607214  0.6566392600224  0.4650803774335 1.0
C      1  0.2472833110638  0.0855091467206  0.4696712281772 1.0
C      1  0.5255160065765  0.5504580528654  0.2759928211476 1.0
C      1  0.5829114268454  0.8349491677931  0.6610374025279 1.0
C      1  0.2417082550284  0.3692367629631  0.8659562305450 1.0
C      1  0.4105571519808  0.2090234336402  0.7960496790262 1.0
C      1  0.9084715903487  0.6637588873769  0.7083242621573 1.0
C      1  0.6954982636485  0.2487362560408  0.9427234202298 1.0
C      1  0.4874977306580  0.2480950217071  0.4617275837415 1.0
C      1  0.5202632026959  0.7847697723452  0.5301203602798 1.0
C      1  0.6860950584272  0.1094215573028  0.2279793623493 1.0
C      1  0.2656066974078  0.2801899729791  0.8447875117603 1.0
C      1  0.7212922984852  0.2189112581304  0.3987126501271 1.0
C      1  0.3499346714568  0.8066635267076  0.9005026577168 1.0
C      1  0.5216724725971  0.0391101590809  0.3716847189897 1.0
C      1  0.3719964833486  0.5362181973509  0.3425675390654 1.0
C      1  0.5037432763423  0.4460689628040  0.4808612579784 1.0
C      1  0.2659796718507  0.4263498925903  0.7208630144057 1.0
C      1  0.7525786463593  0.8287937693374  0.7717674120771 1.0
C      1  0.4392049422337  0.3819887235563  0.5990187958755 1.0
C      1  0.1716307575419  0.2277546159702  0.2946022519188 1.0
C      1  0.5406284395574  0.3109731264698  0.9541042795333 1.0
C      1  0.4943182132791  0.0367978998135  0.4706786203833 1.0
C      1  0.3229748065251  0.6875856161209  0.3148290119884 1.0
C      1  0.8206554764128  0.9130308495721  0.4705494104728 1.0
C      1  0.1720348910222  0.7567295494974  0.2692169521586 1.0
C      1  0.6540863113095  0.2188086864217  0.5450152647119 1.0
C      1  0.5420980154430  0.8164751516414  0.0816996541783 1.0
END
