TITL C-17611-3875-15 -12.168 3375.00 -2303.40829029 0 0 278 (C1) n - 1
REM
REM Run started: at 2020.07.13 23:23:51 in /home/heco/bkarasulu/work/CARBON/AIRSS/Str-Search
REM VASP from code version vasp.5.4.4.18Apr17-6-g9f103f2a35 (build Jul 02 2020 21:03:42) gamma-only
REM
REM
REM
REM
REM ./C.cell (90889e035cd0f9d0e5f9cb6dd9eb5d52)
REM AIRSS Version 0.9.1 bugfix July 2018 build 013d7b7c2542+ Fri, 06 Jul 2018 19:26:36 +0100
REM compiler GCC version 9.2.0
REM options -cpp -mtune=generic -march=x86-64 -g -O0
REM seed -17145452 1382749246 -1834638185 -778719890 -185045111 1119442951 -720489224 -147487659 1474088980 -11182171 -1319038388 -1726483617 945253014 87238860 1183587306 -1567475329 -1533391421 -941688429 620699585 -1753183415 -2340501 188430566 96689045 94439768 -1706760046 854778499 1467898203 1671705948 -1688785164 -242062646 2024417527 1113241512 842020157
REM
REM C.POTCAR (d86ddea03c3ceb6dc662c8ad6801f873)
REM 
CELL 1.54180   15.00000   15.00000   15.00000   90.00000   90.00000   90.00000
LATT -1
SFAC C  
C      1  0.8111544668004  0.1877878100051  0.4375216296108 1.0
C      1  0.6407623127909  0.5644346302099  0.0430703470228 1.0
C      1  0.3251917016585  0.0403270722123  0.7240784803618 1.0
C      1  0.2901802047933  0.5988359846237  0.4472372643463 1.0
C      1  0.2180694576560  0.6149451595705  0.1973396398288 1.0
C      1  0.7328554123064  0.4268514210361  0.3773390115445 1.0
C      1  0.3305428411555  0.7977919481045  0.2302040399605 1.0
C      1  0.5241055447400  0.7822366866143  0.1142851971258 1.0
C      1  0.3609508831121  0.6019478817666  0.2703529729837 1.0
C      1  0.8443290058400  0.2895784854232  0.6716498903818 1.0
C      1  0.6174442713542  0.5571111954877  0.6200721270476 1.0
C      1  0.6436238547498  0.5211285385833  0.2408948854799 1.0
C      1  0.6583796449642  0.6165071530244  0.8718462600116 1.0
C      1  0.4694409632516  0.7850861879876  0.5282248544446 1.0
C      1  0.2022122586132  0.2802439706897  0.5945643526109 1.0
C      1  0.9443313051319  0.2916980760881  0.5095056234975 1.0
C      1  0.4839365785305  0.8273891251795  0.4378945118783 1.0
C      1  0.3093471186145  0.9426167480457  0.7409119717925 1.0
C      1  0.6676832052715  0.8094293960298  0.6597469921708 1.0
C      1  0.7512967506527  0.5881954548834  0.8636891614351 1.0
C      1  0.5615211426103  0.4468205729257  0.5187285310103 1.0
C      1  0.6860156742204  0.4042606755239  0.6787033634681 1.0
C      1  0.1963726981062  0.3389445852729  0.3975810853331 1.0
C      1  0.5749806887076  0.5489878068445  0.5224750767698 1.0
C      1  0.9019713121458  0.4375655377419  0.2305145600126 1.0
C      1  0.0332806092430  0.4310065329634  0.6454907924184 1.0
C      1  0.6097738188502  0.6488273031075  0.6643785963760 1.0
C      1  0.0813839291533  0.4997361513328  0.7925365762822 1.0
C      1  0.4854318163930  0.4307810488981  0.4574469959537 1.0
C      1  0.3430728688132  0.1611542710929  0.8205887327608 1.0
C      1  0.0368203629658  0.2497313557075  0.5346253074090 1.0
C      1  0.8311566048329  0.3080627851373  0.7743003943464 1.0
C      1  0.1596792580826  0.4639951665590  0.1714627075861 1.0
C      1  0.3547359733326  0.6640149838892  0.1177991485497 1.0
C      1  0.5889019214341  0.3656011012592  0.6553119039515 1.0
C      1  0.8096123873846  0.6308598735144  0.5667561625178 1.0
C      1  0.2874029161536  0.5547586946026  0.5366772013992 1.0
C      1  0.4043734483114  0.8364114308511  0.2871113813348 1.0
C      1  0.2761235729169  0.1438100220523  0.6130671874950 1.0
C      1  0.3214028181882  0.1436920608226  0.4162651985461 1.0
C      1  0.3253688792382  0.0538477638699  0.6155073042838 1.0
C      1  0.2007595036295  0.7910021932121  0.3548664930806 1.0
C      1  0.7823573986745  0.6803503969628  0.6457789593593 1.0
C      1  0.4430391231482  0.1321195662827  0.2885856351319 1.0
C      1  0.3100436337739  0.4070375761959  0.7933364102164 1.0
C      1  0.3929828388852  0.8266999757469  0.3876126427970 1.0
C      1  0.4260305409110  0.5699064437222  0.9135288940453 1.0
C      1  0.5415510814196  0.2758208969320  0.4135924948664 1.0
C      1  0.2907649129480  0.9875109342049  0.5459585586667 1.0
C      1  0.7667182355866  0.7972552535875  0.4727658903996 1.0
C      1  0.0887991814203  0.5830715452038  0.2794462300929 1.0
C      1  0.7942304960643  0.1395738411754  0.6111280182077 1.0
C      1  0.7346148668108  0.8184049113058  0.7351263319593 1.0
C      1  0.5561011179010  0.1830591062669  0.3885800210032 1.0
C      1  0.2355083726487  0.3498530532058  0.1353728403693 1.0
C      1  0.5728149215144  0.7570190450301  0.8424319102143 1.0
C      1  0.2769571332201  0.8886635871699  0.6676529469527 1.0
C      1  0.4477302189982  0.3084587541590  0.5199009407831 1.0
C      1  0.5817132251703  0.9465599969448  0.3334758434820 1.0
C      1  0.2454104388086  0.7718242995195  0.2666309624539 1.0
C      1  0.6381222244425  0.3258657884245  0.9541803418300 1.0
C      1  0.6725078263949  0.3652791083589  0.4175562415840 1.0
C      1  0.1433540250991  0.2808445589756  0.3330747868636 1.0
C      1  0.5509395405383  0.8366284504168  0.8045913384030 1.0
C      1  0.3197833873829  0.8819245437687  0.4298322171566 1.0
C      1  0.0977795463523  0.2158714169452  0.3839731125705 1.0
C      1  0.5752588316010  0.4897386614767  0.3009078927068 1.0
C      1  0.4090118822299  0.6300374277716  0.0508247850313 1.0
C      1  0.7920236914776  0.6196910207353  0.2078860964568 1.0
C      1  0.2848255105244  0.7326817957118  0.5224463356907 1.0
C      1  0.6434600773638  0.2946172801595  0.8669958940644 1.0
C      1  0.3148905170402  0.5956510282179  0.1767002459826 1.0
C      1  0.3935375408178  0.3017927722444  0.1133369395492 1.0
C      1  0.9046136769173  0.5068319872535  0.5793922664770 1.0
C      1  0.0121544717354  0.5417462487835  0.3314807434460 1.0
C      1  0.0694090191907  0.2023121792569  0.4599728011230 1.0
C      1  0.8518691522884  0.8053286846239  0.5281030666142 1.0
C      1  0.1459380360510  0.3977888699889  0.4436382454593 1.0
C      1  0.6063585862096  0.3288694582178  0.3552148456427 1.0
C      1  0.7182438960940  0.6146904036715  0.3518993433567 1.0
C      1  0.7704186213146  0.6411483626085  0.4880011550701 1.0
C      1  0.3241153944433  0.8654536375384  0.7930822889264 1.0
C      1  0.6996930824683  0.1527896258046  0.5872820952836 1.0
C      1  0.3211567674634  0.9810342135377  0.4571889572978 1.0
C      1  0.1216434015407  0.6706901584649  0.3009187991287 1.0
C      1  0.5456769635898  0.8028764679206  0.3653876949350 1.0
C      1  0.0963047441823  0.2817857354383  0.5968248871367 1.0
C      1  0.4198689512088  0.6657255066132  0.3152032471294 1.0
C      1  0.5207433712425  0.6524428759546  0.3030629336832 1.0
C      1  0.7835264378360  0.6526360957056  0.8014171701659 1.0
C      1  0.7308499502035  0.4483266577002  0.5332045020677 1.0
C      1  0.4157945805045  0.2921837020456  0.7647844205221 1.0
C      1  0.6325458126388  0.3682900964242  0.0445336034371 1.0
C      1  0.7360080589464  0.4040755586522  0.2018356838575 1.0
C      1  0.5100652100749  0.6241094772180  0.9318158086686 1.0
C      1  0.2306632186912  0.8488998624274  0.4175788962403 1.0
C      1  0.4582764061810  0.6779444808816  0.5588957213557 1.0
C      1  0.3128945756743  0.5230563300636  0.4009430138057 1.0
C      1  0.4529799274266  0.2397078107167  0.1564099762938 1.0
C      1  0.0526270885804  0.5448152005351  0.5029612399034 1.0
C      1  0.5367432547941  0.2667417350312  0.5278057006691 1.0
C      1  0.7995378111336  0.8730539458886  0.5795236696669 1.0
C      1  0.7368227226409  0.7433683886512  0.8029059241060 1.0
C      1  0.3095795561606  0.3798221701699  0.5150589893951 1.0
C      1  0.4273078854389  0.0571897767181  0.3428128310722 1.0
C      1  0.5296438171695  0.0303816419414  0.3515238176904 1.0
C      1  0.7135925907932  0.5778867859247  0.2650455853657 1.0
C      1  0.3660552529979  0.3718236232043  0.2805431718385 1.0
C      1  0.5379429089490  0.5224415445516  0.7718823846656 1.0
C      1  0.4400164432179  0.5438811356088  0.8096764463951 1.0
C      1  0.1926409441968  0.6922041671806  0.5312596345690 1.0
C      1  0.3532783223234  0.2552900465687  0.8247297284455 1.0
C      1  0.8051283998549  0.8378111793497  0.6723273521586 1.0
C      1  0.3460260445048  0.4527663205551  0.2469780578520 1.0
C      1  0.1655655758001  0.4408731520149  0.5325440713798 1.0
C      1  0.8997456693237  0.5946295216176  0.5661080165835 1.0
C      1  0.8841885674483  0.2191686867363  0.4819008054939 1.0
C      1  0.6263623106531  0.6463782905658  0.0890167546392 1.0
C      1  0.3286849995952  0.4932944305967  0.1529002743029 1.0
C      1  0.2437644352779  0.4451861578701  0.1319164699987 1.0
C      1  0.2035672134673  0.5237782610614  0.5764642639564 1.0
C      1  0.4158649509526  0.3804630559138  0.0616749168053 1.0
C      1  0.7972256226932  0.3859194057429  0.7990000598524 1.0
C      1  0.2732179769562  0.6136910575626  0.8469336724295 1.0
C      1  0.9585743160354  0.6700669525463  0.5318425915081 1.0
C      1  0.4771787634777  0.5797214743644  0.5239885842623 1.0
C      1  0.3452954373550  0.8213678559204  0.8723490799378 1.0
C      1  0.5220554408988  0.6700397810356  0.8418764063320 1.0
C      1  0.7728003007670  0.5774765259249  0.4192823405774 1.0
C      1  0.0388515237267  0.5083017396092  0.4226518937564 1.0
C      1  0.4012843031852  0.1967516644988  0.2283181018916 1.0
C      1  0.8948391730442  0.3408693200343  0.5868220243969 1.0
C      1  0.5648360420929  0.1299385439422  0.4707674528277 1.0
C      1  0.2424005100729  0.7277835280612  0.7198104594770 1.0
C      1  0.5835962574479  0.4707082281377  0.9166428918012 1.0
C      1  0.5422611560555  0.1332879194036  0.3017013477700 1.0
C      1  0.4811108944231  0.6797199860091  0.0094011377183 1.0
C      1  0.8009192498976  0.3892315723063  0.5793105116981 1.0
C      1  0.2053999860652  0.2600003018338  0.6924862386983 1.0
C      1  0.9553329139894  0.6169043095357  0.3668942301421 1.0
C      1  0.5183523457625  0.4332524718340  0.6255781440522 1.0
C      1  0.4009615603218  0.5419025282689  0.0107754719545 1.0
C      1  0.2690563682127  0.8335839892464  0.5080823737789 1.0
C      1  0.3981198864513  0.1081255259111  0.7589219155992 1.0
C      1  0.2314626179015  0.3814556433844  0.5796456092190 1.0
C      1  0.6383385907883  0.9072055145078  0.5104444408436 1.0
C      1  0.4331029555309  0.6512414527848  0.7973227764532 1.0
C      1  0.2752745036599  0.1191404269571  0.7672965348681 1.0
C      1  0.1262037196976  0.3137114213991  0.2525628504510 1.0
C      1  0.6572273697639  0.6892946379353  0.1745030450942 1.0
C      1  0.4949876194146  0.8302056343842  0.2774518299775 1.0
C      1  0.6000949670235  0.5657613279754  0.9478615111399 1.0
C      1  0.6620232019747  0.7227281376480  0.8543221716047 1.0
C      1  0.7009058083466  0.4953241650403  0.6234784104863 1.0
C      1  0.9381552347505  0.4246574957643  0.6204512953649 1.0
C      1  0.3448328135022  0.4990882702218  0.6684615611834 1.0
C      1  0.5904147979749  0.3784444655567  0.1952765101006 1.0
C      1  0.5839955869253  0.7065197132497  0.2421415141184 1.0
C      1  0.5497595503819  0.5676095739825  0.3527731205608 1.0
C      1  0.5941515022184  0.5936989940299  0.4332984743533 1.0
C      1  0.7909420854038  0.2177498751496  0.7765387082237 1.0
C      1  0.8431293840827  0.4635767242292  0.6382437439351 1.0
C      1  0.5177672345574  0.1672264395979  0.5480468588577 1.0
C      1  0.4828304883516  0.2443476048930  0.7249485856301 1.0
C      1  0.3192974846150  0.5999087002514  0.6231946791724 1.0
C      1  0.2480354663728  0.4581957178679  0.6544129318600 1.0
C      1  0.4142148595235  0.4118852392177  0.6414174869232 1.0
C      1  0.7448225992698  0.4442540810401  0.7562809072912 1.0
C      1  0.1569753913079  0.3401313305173  0.7272062975832 1.0
C      1  0.4541838938824  0.3330677424101  0.4243303031089 1.0
C      1  0.0622865574775  0.6379033997159  0.5320061680260 1.0
C      1  0.2577867316078  0.2076608824927  0.5507081978857 1.0
C      1  0.9312008184311  0.3841890223340  0.3560724354821 1.0
C      1  0.2256964659440  0.5406067618001  0.8654337898005 1.0
C      1  0.6164179699397  0.8765888938843  0.6109179830961 1.0
C      1  0.3857425720878  0.4700787595958  0.0711388049197 1.0
C      1  0.6807410534249  0.2492090852585  0.6196880520416 1.0
C      1  0.4341829368932  0.7864241499174  0.0896145709261 1.0
C      1  0.7055365262402  0.2939460548011  0.3493747425193 1.0
C      1  0.2913255010682  0.2158397175798  0.4607199522264 1.0
C      1  0.3686993041297  0.3273342925340  0.3694767394686 1.0
C      1  0.7511540936406  0.3263538177202  0.6382696581010 1.0
C      1  0.1326064722089  0.7233962156566  0.3779322216089 1.0
C      1  0.3772069276765  0.7227155738560  0.3820424153751 1.0
C      1  0.3628207407796  0.6506295160008  0.8757021279106 1.0
C      1  0.4302253326412  0.0275789000073  0.6058908532389 1.0
C      1  0.9185866864492  0.7549683586974  0.5710214711986 1.0
C      1  0.3581656871745  0.2787915527871  0.2825461430211 1.0
C      1  0.6841990410209  0.1614067586160  0.2213482069822 1.0
C      1  0.5704767767975  0.4426431254863  0.8287336878066 1.0
C      1  0.3385985225350  0.5225120606972  0.3113585251350 1.0
C      1  0.8244590939874  0.1921747220861  0.6892043533080 1.0
C      1  0.3144182569504  0.6879424016308  0.4384407446592 1.0
C      1  0.2363938234239  0.6555761007630  0.7689847437070 1.0
C      1  0.7624794689388  0.3724952751953  0.2936550957394 1.0
C      1  0.3028634643658  0.2860782365722  0.1445287870323 1.0
C      1  0.5401823463665  0.5162133692606  0.6702784862921 1.0
C      1  0.6150250664592  0.3113658379004  0.5736135501331 1.0
C      1  0.5901557080749  0.6092595709334  0.7923527079376 1.0
C      1  0.1611510197723  0.6219561468300  0.5964039792442 1.0
C      1  0.6501303959606  0.6744666554495  0.4028877068239 1.0
C      1  0.2379770661579  0.1744355157536  0.6992065714562 1.0
C      1  0.3053898716467  0.2222368101784  0.2202754684994 1.0
C      1  0.5917096383186  0.1703810716773  0.2151585805004 1.0
C      1  0.7328229250457  0.1525983656890  0.2904611893316 1.0
C      1  0.8514359098455  0.7565788744907  0.6447047668822 1.0
C      1  0.4329619796078  0.8353005988675  0.5971196702123 1.0
C      1  0.8608519793261  0.3700833986962  0.2879452634748 1.0
C      1  0.4023467392662  0.3599024946403  0.9215468226450 1.0
C      1  0.8324966316472  0.1566036089869  0.5284051762165 1.0
C      1  0.7790003087822  0.5174180295444  0.6941087949639 1.0
C      1  0.5680624991016  0.3931424981629  0.2879404723827 1.0
C      1  0.5100164919563  0.6718955782714  0.6515440487172 1.0
C      1  0.5660862100703  0.3928209226023  0.9739834024658 1.0
C      1  0.7064075924883  0.7790912407039  0.1797151547397 1.0
C      1  0.4604920209864  0.9388286003032  0.6135894714304 1.0
C      1  0.1719005202411  0.4890739534270  0.8156884967102 1.0
C      1  0.5674913950429  0.2993148545439  0.7262255655399 1.0
C      1  0.0838359084840  0.3470152802353  0.6699669648419 1.0
C      1  0.4457559861897  0.7018480863016  0.7123272726990 1.0
C      1  0.5874913300117  0.7191404584469  0.3412669632333 1.0
C      1  0.7337052176977  0.8798194475755  0.5095720044819 1.0
C      1  0.2888956175408  0.3171145742715  0.4320679920147 1.0
C      1  0.7625986092513  0.4862312090413  0.4408944692332 1.0
C      1  0.6517636058928  0.4514768662129  0.1752530685216 1.0
C      1  0.9678235647929  0.3583578512926  0.4350576025944 1.0
C      1  0.5399101197260  0.9005737893861  0.7509511295125 1.0
C      1  0.5612535803618  0.0394765791374  0.4439528962185 1.0
C      1  0.8576374922060  0.5751786996478  0.1667668844290 1.0
C      1  0.7550003481345  0.7062056183656  0.1974798418153 1.0
C      1  0.3296233550845  0.3430758923589  0.8702940550858 1.0
C      1  0.9630128046631  0.4599770815817  0.2979069403045 1.0
C      1  0.4299284699448  0.5020626558116  0.4857624900807 1.0
C      1  0.3842457266223  0.7651682322057  0.6625046194173 1.0
C      1  0.6812010186355  0.7154688740411  0.6436779975300 1.0
C      1  0.5537909324867  0.7987771513480  0.2066510874638 1.0
C      1  0.1229895949352  0.6967605586645  0.4723145092521 1.0
C      1  0.3600879176199  0.6915098785306  0.5930789964698 1.0
C      1  0.7173719222288  0.7179842887723  0.4636979424538 1.0
C      1  0.2652411058855  0.9024489171546  0.5788978948610 1.0
C      1  0.5799683603932  0.3473904817887  0.8126993626327 1.0
C      1  0.6480087194069  0.3885551143120  0.5108878851824 1.0
C      1  0.4810552267302  0.1157791764119  0.6170580637790 1.0
C      1  0.7763824029545  0.4415205427003  0.1263742091417 1.0
C      1  0.7971005085397  0.6139335979549  0.7190715063006 1.0
C      1  0.3965354174451  0.3838790765353  0.7366635197837 1.0
C      1  0.5945252421300  0.3171798560110  0.1276289170343 1.0
C      1  0.3571228426703  0.7450004103365  0.9025941903769 1.0
C      1  0.5558492838956  0.7101146867039  0.0628620177761 1.0
C      1  0.3644002286583  0.7567955973763  0.1447852913422 1.0
C      1  0.5755183828122  0.8827473001587  0.4173601342613 1.0
C      1  0.4677981141905  0.3684134849870  0.9790128062003 1.0
C      1  0.6474334587880  0.2411234321467  0.7183475588390 1.0
C      1  0.6498739215357  0.0987779969873  0.5326282718491 1.0
C      1  0.2290945307959  0.6393919009825  0.6727396586923 1.0
C      1  0.1507797015506  0.3648299068393  0.1854916928102 1.0
C      1  0.2171260520620  0.4214204582438  0.7517164296356 1.0
C      1  0.3859855883825  0.3497061671092  0.5697362564584 1.0
C      1  0.5480676090507  0.2310032769702  0.1553115854363 1.0
C      1  0.1945693933927  0.6941398023063  0.2390314270586 1.0
C      1  0.0683690109402  0.4563381005315  0.5500112927856 1.0
C      1  0.6827440586911  0.4679145475554  0.0813339579290 1.0
C      1  0.6938999360408  0.2337445167448  0.7973280637525 1.0
C      1  0.3740233600001  0.4807127041823  0.7674580584256 1.0
C      1  0.3024506364908  0.8039585650115  0.7121976308478 1.0
C      1  0.3532794050296  0.0557618078607  0.4050705133420 1.0
C      1  0.0459543444362  0.4943399732699  0.7184633265958 1.0
C      1  0.7457381096430  0.2041465327885  0.3660382218516 1.0
C      1  0.6265533945737  0.0077841208502  0.5004548951162 1.0
C      1  0.6458268939837  0.8482174363585  0.2153601170550 1.0
C      1  0.8584342480585  0.4845672992238  0.1577341343926 1.0
C      1  0.6396820099449  0.9194074302016  0.2693586754471 1.0
C      1  0.9457331631036  0.6654773279653  0.4325543067909 1.0
C      1  0.1475315383653  0.5470602874287  0.2146458395702 1.0
C      1  0.4606352498051  0.1532700906987  0.7030861010784 1.0
C      1  0.0463130714926  0.4142759955322  0.4545681975048 1.0
C      1  0.3342138009708  0.4775410256513  0.4875127507705 1.0
C      1  0.5477525512366  0.9191993512398  0.6596956555702 1.0
END
