TITL C-17339-2271-17 -8.454 3375.00 -1448.12741600 0 0 178 () n - 1
REM
REM Run started: at 2020.12.25 14:37:43 in /gpfs/home/chem/mssmkc/CARBON/AIRSS/Generating-Clusters/Str-Search/Only-C1/C100-200
REM VASP from code version vasp.5.4.4.18Apr17-6-g9f103f2a35 (build Oct 11 2019 16:45:47) gamma-only
REM
REM
REM
REM
REM ./C.cell (efaf0b2bf1589a83377268d7ebe2c73f)
REM AIRSS Version 0.9.1 bugfix July 2018 build 013d7b7c2542+ Fri, 06 Jul 2018 19:26:36 +0100
REM compiler GCC version 6.3.0
REM options -cpp -iprefix /gpfs/warwick/csc/orac/software/Core/GCCcore/6.3.0/bin/../lib/gcc/x86_64-pc-linux-gnu/6.3.0/ -mtune=generic -march=x86-64 -g -O0
REM seed 698622944 -1116159775 -98944804 -673681417 879555947 -170159563 957569902 684141398 229913992 -768970790 1973267100 1534733486
REM
REM C.POTCAR (d86ddea03c3ceb6dc662c8ad6801f873)
REM 
CELL 1.54180   15.00000   15.00000   15.00000   90.00000   90.00000   90.00000
LATT -1
SFAC C  
C      1  0.3478627908806  0.1159325296084  0.6085789963190 1.0
C      1  0.4970125222915  0.1754812336191  0.6128824338499 1.0
C      1  0.5989222003446  0.8646827789914  0.5037933941421 1.0
C      1  0.1865450732481  0.5963250620997  0.7198716022983 1.0
C      1  0.8200922715011  0.3123829441176  0.6424463453986 1.0
C      1  0.2583158459862  0.3446149635723  0.5334435556348 1.0
C      1  0.6934790866611  0.7910641842900  0.3876503397429 1.0
C      1  0.4718860412617  0.2235518573443  0.5220728689296 1.0
C      1  0.3838614521552  0.3140631479904  0.4083219470882 1.0
C      1  0.4291101137229  0.1007387901280  0.6104072304257 1.0
C      1  0.7417779299196  0.5440123732743  0.6716348351381 1.0
C      1  0.4446693395604  0.5276996728308  0.1679296038775 1.0
C      1  0.3030796727474  0.3476796439307  0.6278140704743 1.0
C      1  0.6678895425514  0.3628814617674  0.3114111167324 1.0
C      1  0.3300158185538  0.5660764159892  0.7526296427378 1.0
C      1  0.4521318012747  0.7621828755179  0.5339184658709 1.0
C      1  0.5145572369184  0.4382637584467  0.4015123603535 1.0
C      1  0.2846698957580  0.7158303620891  0.8031553534818 1.0
C      1  0.4323480779189  0.3882120457793  0.3673574833033 1.0
C      1  0.4778363779981  0.3342706218190  0.6685105550218 1.0
C      1  0.6618299499956  0.3858800711802  0.6487031832882 1.0
C      1  0.4335766893075  0.8984881752232  0.5485928974479 1.0
C      1  0.6391189984655  0.3637240824861  0.2139474923094 1.0
C      1  0.7866239180301  0.5316161432682  0.1758958007379 1.0
C      1  0.8694857837475  0.5470557621819  0.3915712719471 1.0
C      1  0.3353410307006  0.6581090299501  0.5899581431922 1.0
C      1  0.7854439352192  0.7000829070507  0.3659986177126 1.0
C      1  0.2992894464872  0.2828395459935  0.3710584780840 1.0
C      1  0.6672296822110  0.3179959658821  0.5753053135752 1.0
C      1  0.1366022291011  0.3275371355752  0.3463866500548 1.0
C      1  0.3297167204948  0.4257494469200  0.2848160337895 1.0
C      1  0.2263499269465  0.3121160379795  0.3125999345836 1.0
C      1  0.4053008742850  0.8297460887285  0.8015021060414 1.0
C      1  0.5051644218106  0.2657618042867  0.2200822926328 1.0
C      1  0.2490908028220  0.3774782977096  0.2480340365828 1.0
C      1  0.2651628214739  0.4518170003865  0.2069073960650 1.0
C      1  0.2857772431782  0.5664178518939  0.5977995710898 1.0
C      1  0.8283398482131  0.4173127007108  0.3004191005879 1.0
C      1  0.4004927203769  0.7548363397245  0.4533498032577 1.0
C      1  0.8024387718859  0.6045496162216  0.3663128126069 1.0
C      1  0.8626075944593  0.3950409495475  0.4631845051486 1.0
C      1  0.6883714104210  0.8484743894131  0.5582415872534 1.0
C      1  0.6047328711334  0.1509318240147  0.4966534213933 1.0
C      1  0.3494902067423  0.8921908829988  0.5193884545726 1.0
C      1  0.7241161523980  0.6119549017065  0.7328930181635 1.0
C      1  0.4345434621017  0.6880890015827  0.8669577348612 1.0
C      1  0.8128752881044  0.4061935808541  0.6253373390246 1.0
C      1  0.7774878449301  0.3918965125611  0.8768954186083 1.0
C      1  0.7033193774961  0.2120176605585  0.7198191021852 1.0
C      1  0.1760589776815  0.6545419677611  0.4458283963676 1.0
C      1  0.7070635999728  0.2171295580882  0.3725467147463 1.0
C      1  0.7659641717518  0.3501615168285  0.3266727249293 1.0
C      1  0.4058886386182  0.1553229731404  0.3178294502424 1.0
C      1  0.2896964707536  0.2021183915416  0.4260872539876 1.0
C      1  0.5540569171674  0.9514934090243  0.3577132655124 1.0
C      1  0.5429005197825  0.7633070146616  0.7652519365813 1.0
C      1  0.6408408852702  0.6967246428213  0.6068694130869 1.0
C      1  0.0891671807973  0.3988952829962  0.3080086890179 1.0
C      1  0.4952166800763  0.4048274454242  0.7374130689552 1.0
C      1  0.7349067267943  0.4447383435392  0.6716383279049 1.0
C      1  0.2847826002384  0.6588190090063  0.3055448521405 1.0
C      1  0.4104208981476  0.3845804329184  0.2714871829395 1.0
C      1  0.5468725467866  0.4560448109880  0.0972895387870 1.0
C      1  0.5321654654479  0.9298647832871  0.2732168185471 1.0
C      1  0.4152146101870  0.4668142479970  0.6193871307866 1.0
C      1  0.3577742219645  0.3160528611734  0.8017155823661 1.0
C      1  0.2771522642091  0.5450885684667  0.2036293862492 1.0
C      1  0.1270606257149  0.3130811185503  0.4395789890362 1.0
C      1  0.2634663184164  0.6376485079051  0.7642124969735 1.0
C      1  0.8337699461316  0.3021023862782  0.4690870739359 1.0
C      1  0.5844272040693  0.9398492403287  0.4357280494737 1.0
C      1  0.4192515140628  0.3786091271565  0.8499422324338 1.0
C      1  0.5794156821845  0.6155299961813  0.8169146131565 1.0
C      1  0.5266096210875  0.5663539018368  0.6581731270261 1.0
C      1  0.2888578302493  0.8568559315945  0.4701212799474 1.0
C      1  0.6628149744614  0.6204441888278  0.5538042284323 1.0
C      1  0.5658987849604  0.6563574532090  0.1233708098007 1.0
C      1  0.4495094622112  0.7475778089090  0.3779462266210 1.0
C      1  0.6777723489522  0.5932154313604  0.8150289273447 1.0
C      1  0.5594350237016  0.6210056141392  0.7204374576537 1.0
C      1  0.7353965878487  0.5651777320957  0.5777345193598 1.0
C      1  0.4496298298596  0.7031581514056  0.2914738827084 1.0
C      1  0.5148808567205  0.3977397796152  0.8277079831505 1.0
C      1  0.2868793818760  0.3951165908491  0.7942380176493 1.0
C      1  0.7720847220220  0.7675813674018  0.4393011960290 1.0
C      1  0.0739590604532  0.5103527272950  0.5460696512356 1.0
C      1  0.7772137961304  0.2797299828538  0.3927858164568 1.0
C      1  0.7032149985722  0.5825231890990  0.1817999696615 1.0
C      1  0.7119306542684  0.7400509298528  0.3105947471679 1.0
C      1  0.3644628967337  0.5389199727396  0.8401952307131 1.0
C      1  0.2905297170562  0.4371622286215  0.4743637638241 1.0
C      1  0.1038788788274  0.4798618970901  0.2936195421673 1.0
C      1  0.4828746795816  0.1981455927099  0.2930615499327 1.0
C      1  0.6805442759951  0.5110239986191  0.4316416369882 1.0
C      1  0.2963016948294  0.1939052980131  0.6009322719856 1.0
C      1  0.6244111675290  0.2088901789374  0.7725611554274 1.0
C      1  0.7664521835671  0.2817286018269  0.7252030933243 1.0
C      1  0.0722791684515  0.5410974277658  0.4679403834419 1.0
C      1  0.4260846971915  0.6775481029040  0.5816498021627 1.0
C      1  0.2707051012701  0.7137312895208  0.5478446355489 1.0
C      1  0.8138275805749  0.2659852172980  0.5563044744631 1.0
C      1  0.6028031643670  0.4379695377496  0.8570024553471 1.0
C      1  0.5209282068047  0.7385593507737  0.1178185416887 1.0
C      1  0.5435803329387  0.7633117265382  0.3738904966167 1.0
C      1  0.2011317322589  0.4226524308368  0.7461566107310 1.0
C      1  0.6860120141103  0.3894810429425  0.8495125851610 1.0
C      1  0.6412049770817  0.7161597386102  0.2496475887262 1.0
C      1  0.5373165878375  0.5594452310014  0.1413411903820 1.0
C      1  0.3030872915317  0.7550426430273  0.4616364665307 1.0
C      1  0.2816743019087  0.4199280424314  0.6913646749478 1.0
C      1  0.3631059120478  0.7513989670309  0.8333060657585 1.0
C      1  0.3042475155103  0.2551874762103  0.6678898934370 1.0
C      1  0.6187387687330  0.5749449193343  0.4834211989508 1.0
C      1  0.5156672046373  0.8868486636038  0.2021586366922 1.0
C      1  0.2678520834560  0.6761159827407  0.4037500598926 1.0
C      1  0.5735710159917  0.3877041563439  0.4574969012471 1.0
C      1  0.8656927723626  0.4524845972646  0.3842411318798 1.0
C      1  0.5984771758441  0.1526528671447  0.5927627962725 1.0
C      1  0.1548317815323  0.5052225212304  0.7157321379395 1.0
C      1  0.5525856291179  0.7229004181190  0.2897135547406 1.0
C      1  0.1433334661217  0.5617095721430  0.3133153219469 1.0
C      1  0.5427785186257  0.2160052342424  0.7652564281527 1.0
C      1  0.3024146118391  0.2448566858873  0.5160137847369 1.0
C      1  0.4875841604534  0.6019191848661  0.5742897263461 1.0
C      1  0.5590031533802  0.2009294934743  0.3622900833241 1.0
C      1  0.6246048246340  0.4251982852036  0.3868679349316 1.0
C      1  0.4812739947753  0.8327869864625  0.7659626970369 1.0
C      1  0.3464662405514  0.4495011300962  0.3833090661806 1.0
C      1  0.6513273441842  0.6679848716940  0.1675354575256 1.0
C      1  0.7554834451685  0.5040476359318  0.5094177606579 1.0
C      1  0.3698299488260  0.5787018801718  0.1970836619447 1.0
C      1  0.6191821866083  0.5306673607215  0.8514059096822 1.0
C      1  0.7601594504197  0.7942694798272  0.5291184878324 1.0
C      1  0.3513480675065  0.4458137309952  0.8520605684525 1.0
C      1  0.6482351466178  0.1529985388186  0.4091023294531 1.0
C      1  0.2241414318138  0.5949893600572  0.2678644715287 1.0
C      1  0.5289449143212  0.1933110908766  0.4583272068900 1.0
C      1  0.4536454243889  0.3494749414218  0.1965476736464 1.0
C      1  0.6976711374362  0.7032786169464  0.6930986005701 1.0
C      1  0.1645062412521  0.3303395857951  0.5109600957514 1.0
C      1  0.4779174948814  0.5288615311067  0.4227541701157 1.0
C      1  0.6205676661260  0.5234886527945  0.1959669548840 1.0
C      1  0.3210379337318  0.5922251499751  0.4400630555103 1.0
C      1  0.5617703978751  0.3938165266264  0.6293154221618 1.0
C      1  0.5253264622506  0.6999623613638  0.8360345349348 1.0
C      1  0.5973337555019  0.2794726268134  0.2254898339922 1.0
C      1  0.3310710432205  0.5071516099056  0.6681966939271 1.0
C      1  0.5956067579005  0.7100806759276  0.6968545840108 1.0
C      1  0.6332400439135  0.2611399828276  0.3192602248534 1.0
C      1  0.8167837487598  0.4698874904786  0.2232546804591 1.0
C      1  0.7143107707666  0.5577622682399  0.3507978695362 1.0
C      1  0.4022599416344  0.3642557801942  0.6003451634144 1.0
C      1  0.3905508360131  0.5392660934446  0.4016722778661 1.0
C      1  0.7520819635817  0.3413487548974  0.8018531909641 1.0
C      1  0.4727886059125  0.2370274513193  0.7003521865843 1.0
C      1  0.6167927799872  0.4334396567240  0.1619052569641 1.0
C      1  0.2884584231356  0.5249125926973  0.5058880245459 1.0
C      1  0.7218544688025  0.2360759397974  0.5623242970694 1.0
C      1  0.1885132253422  0.6699703376651  0.5410270212805 1.0
C      1  0.3451960919874  0.1465468934672  0.3784561011593 1.0
C      1  0.8226007059545  0.4410353318956  0.5358688595305 1.0
C      1  0.3991315757402  0.2866114868385  0.5064593667238 1.0
C      1  0.5052092188571  0.4724255029572  0.6634929403074 1.0
C      1  0.6712307911635  0.5567850490203  0.2730830725343 1.0
C      1  0.5911454833985  0.3589224775639  0.5392592009933 1.0
C      1  0.5278627600090  0.5790594126742  0.4867829936135 1.0
C      1  0.1869763696870  0.5989356075475  0.6163764599331 1.0
C      1  0.5137457353641  0.8190244255496  0.1435512646353 1.0
C      1  0.1209250723305  0.5913611522488  0.4038549269905 1.0
C      1  0.1237887277342  0.5211987611392  0.6228892663093 1.0
C      1  0.5062927713366  0.8447407557626  0.5437209394921 1.0
C      1  0.4650789152171  0.4291970015580  0.1418559494369 1.0
C      1  0.3735375008573  0.6564421827008  0.2588159815256 1.0
C      1  0.3718759539947  0.2513694346479  0.7383319347590 1.0
C      1  0.7114735193866  0.7677523113930  0.6111928954479 1.0
C      1  0.6098971147291  0.8024884144955  0.4245587378714 1.0
C      1  0.6800453630924  0.1818262081595  0.6309061457844 1.0
C      1  0.4133204778266  0.6009020767659  0.8850651803467 1.0
END
