TITL C-17339-2271-26 -7.509 3375.00 -1337.12217403 0 0 162 () n - 1
REM
REM Run started: at 2020.12.26 00:00:08 in /gpfs/home/chem/mssmkc/CARBON/AIRSS/Generating-Clusters/Str-Search/Only-C1/C100-200
REM VASP from code version vasp.5.4.4.18Apr17-6-g9f103f2a35 (build Oct 11 2019 16:45:47) gamma-only
REM
REM
REM
REM
REM ./C.cell (efaf0b2bf1589a83377268d7ebe2c73f)
REM AIRSS Version 0.9.1 bugfix July 2018 build 013d7b7c2542+ Fri, 06 Jul 2018 19:26:36 +0100
REM compiler GCC version 6.3.0
REM options -cpp -iprefix /gpfs/warwick/csc/orac/software/Core/GCCcore/6.3.0/bin/../lib/gcc/x86_64-pc-linux-gnu/6.3.0/ -mtune=generic -march=x86-64 -g -O0
REM seed -1447069668 2084504583 123214566 -358651034 -475728869 -1550601918 35975277 215729282 -20779036 -1069936719 696898776 -1049797250
REM
REM C.POTCAR (d86ddea03c3ceb6dc662c8ad6801f873)
REM 
CELL 1.54180   15.00000   15.00000   15.00000   90.00000   90.00000   90.00000
LATT -1
SFAC C  
C      1  0.4691378037525  0.8390690694655  0.3346900559665 1.0
C      1  0.6281700992865  0.2047650647217  0.8444854868173 1.0
C      1  0.7919111185716  0.4650770104407  0.7225440765351 1.0
C      1  0.4024481294297  0.5401489112537  0.2054725512496 1.0
C      1  0.3567162445960  0.4727949406042  0.8899275676031 1.0
C      1  0.4170859783399  0.6605955555265  0.8286033010262 1.0
C      1  0.6748705450277  0.2449707871867  0.1863707565781 1.0
C      1  0.4593695590931  0.6268026009075  0.7390491043839 1.0
C      1  0.2985848793895  0.5526552589443  0.5569739981426 1.0
C      1  0.4617306165015  0.5844007708607  0.2704469577255 1.0
C      1  0.8586598936721  0.3913061626192  0.3936435061498 1.0
C      1  0.4227545380563  0.3263077607852  0.8110080717726 1.0
C      1  0.4200230275333  0.7335754460484  0.4565810377223 1.0
C      1  0.4018952344848  0.2695450164964  0.7359064213584 1.0
C      1  0.3175517624006  0.6212493773270  0.8203100047384 1.0
C      1  0.5152151379507  0.5510830058228  0.5862088606212 1.0
C      1  0.5443009174482  0.1161363007684  0.4300977264834 1.0
C      1  0.5942839140207  0.8082220332437  0.7080220324357 1.0
C      1  0.3261679623869  0.1578591970228  0.2900158764677 1.0
C      1  0.5677405665505  0.3801040570543  0.3995853220184 1.0
C      1  0.7164151595857  0.6864277349074  0.4100944579111 1.0
C      1  0.5198336654184  0.8856839604179  0.5966136824999 1.0
C      1  0.6656127654239  0.2598273490361  0.7604494279020 1.0
C      1  0.7148479462598  0.5945553237547  0.7676314784159 1.0
C      1  0.5986208349824  0.2980628480806  0.1791922514629 1.0
C      1  0.4178362918186  0.7929221979994  0.6901485988492 1.0
C      1  0.4849731167098  0.1697439071653  0.3646984931536 1.0
C      1  0.8690598818237  0.4851106997062  0.3698935774329 1.0
C      1  0.6872660138970  0.2815695635342  0.5982286587569 1.0
C      1  0.6583555373313  0.3500843385016  0.3668272779091 1.0
C      1  0.6522367182840  0.7386079505012  0.7333548275121 1.0
C      1  0.7119206601308  0.2974421647496  0.4296269619913 1.0
C      1  0.5627468477914  0.6112470813500  0.7184816107920 1.0
C      1  0.6675279631101  0.4264360163461  0.8042570535391 1.0
C      1  0.3690366246935  0.1590472513801  0.5722674479261 1.0
C      1  0.4956694083069  0.7687731153312  0.4076797829957 1.0
C      1  0.6439704757382  0.2716270462292  0.5078959541635 1.0
C      1  0.1596312394447  0.4034290167562  0.5038172321357 1.0
C      1  0.7455771693264  0.5901633866523  0.2782858469941 1.0
C      1  0.1962069824747  0.4090268035299  0.4118758451760 1.0
C      1  0.3232156303476  0.3411475217408  0.3039559412632 1.0
C      1  0.4326832862561  0.2797970172520  0.2281499137257 1.0
C      1  0.7016633450065  0.4173782461491  0.3146456824276 1.0
C      1  0.3804235306370  0.4847236710062  0.7950688672055 1.0
C      1  0.2242761761931  0.4582400159088  0.7839815351392 1.0
C      1  0.3966989142544  0.4392962847905  0.2163233773132 1.0
C      1  0.8092331417179  0.6247872249926  0.5369895242386 1.0
C      1  0.5224725334005  0.3447484622915  0.7926989326193 1.0
C      1  0.2552802946142  0.2714774641147  0.5405958174310 1.0
C      1  0.3918064479678  0.4834699650245  0.9754465306002 1.0
C      1  0.8012743403700  0.3409660199670  0.4503725661873 1.0
C      1  0.4425395262140  0.5277395425093  0.7343851428699 1.0
C      1  0.1568587198413  0.5092784935533  0.6350821236855 1.0
C      1  0.2484547446975  0.3146374268609  0.7243287662413 1.0
C      1  0.4912713702907  0.4851316349606  0.6553221328177 1.0
C      1  0.3089276793288  0.5777767431184  0.2265705226812 1.0
C      1  0.4027307206982  0.3958403457833  0.5585976575017 1.0
C      1  0.2671839807354  0.5008238261328  0.2853983497040 1.0
C      1  0.6340030502215  0.6224100187665  0.4299340512543 1.0
C      1  0.4811790156265  0.3542063771705  0.5409350840489 1.0
C      1  0.5671466942750  0.4760400989849  0.4197483582031 1.0
C      1  0.4856073276045  0.3448765833924  0.3553251807503 1.0
C      1  0.6482217513400  0.2390451572023  0.6698084091444 1.0
C      1  0.7703514496365  0.6143742515533  0.6936148734599 1.0
C      1  0.7262429281654  0.5003150743044  0.7833627278973 1.0
C      1  0.8443426480061  0.5400574643835  0.5791201032524 1.0
C      1  0.6314094143226  0.1481426861301  0.2996540454981 1.0
C      1  0.5998231722517  0.6494700442330  0.3290835741541 1.0
C      1  0.5225983464894  0.2446085279732  0.2149209133650 1.0
C      1  0.2780199909771  0.6941930731269  0.3416978677079 1.0
C      1  0.5758350564839  0.4326680073355  0.7926630008534 1.0
C      1  0.1566429134676  0.5669121309065  0.5041885108201 1.0
C      1  0.4563527107521  0.6832363611507  0.2659887784716 1.0
C      1  0.4692546937973  0.3911108162731  0.6334170252766 1.0
C      1  0.6725716468312  0.7692870951274  0.4418285464098 1.0
C      1  0.2811524501979  0.7390204339816  0.6080313308599 1.0
C      1  0.3028983440550  0.4192306958831  0.2446476650883 1.0
C      1  0.4534404074868  0.4757009827721  0.1394764047521 1.0
C      1  0.2735613496774  0.6139192827834  0.4024378939822 1.0
C      1  0.5294898586397  0.7200764909253  0.3206552160297 1.0
C      1  0.6990828270977  0.6764226379411  0.3055496639859 1.0
C      1  0.7102016949257  0.3429666297814  0.7690294689161 1.0
C      1  0.2930050696294  0.5242077838253  0.8263838645049 1.0
C      1  0.4230019404756  0.4757153856158  0.0499865372957 1.0
C      1  0.3504574027106  0.8076861262077  0.6242132561622 1.0
C      1  0.3808373034007  0.8098814173842  0.3044965960606 1.0
C      1  0.7623276683297  0.3411515011027  0.6122479630690 1.0
C      1  0.3404422297328  0.4650229261270  0.5272571168170 1.0
C      1  0.1321699917600  0.4849463512128  0.5449865161315 1.0
C      1  0.4524529082230  0.8978524779081  0.5338439045772 1.0
C      1  0.2642459235087  0.3741398859071  0.7960043517083 1.0
C      1  0.6043389141400  0.5466009609043  0.1964613766240 1.0
C      1  0.4352708232534  0.1154755553329  0.5456332291278 1.0
C      1  0.4111147345113  0.6514093776851  0.4906838894507 1.0
C      1  0.5415093597486  0.5092929554301  0.7397129460268 1.0
C      1  0.4724700681165  0.3243480706831  0.7054733217326 1.0
C      1  0.5735695207568  0.6575616565652  0.5076586215480 1.0
C      1  0.5424188566232  0.1757967422247  0.2780227306071 1.0
C      1  0.6771383675606  0.2043704042660  0.4456766352629 1.0
C      1  0.5813217082008  0.6702401233854  0.8659720166364 1.0
C      1  0.6596011892786  0.8343805346219  0.6397311839122 1.0
C      1  0.1751933805603  0.4485030426460  0.7011933738517 1.0
C      1  0.5127881362830  0.0907067474749  0.5103406102830 1.0
C      1  0.7137296121159  0.7520294261913  0.6556657728295 1.0
C      1  0.7967667611394  0.5552185341118  0.3636905405948 1.0
C      1  0.3163584125063  0.2549414567566  0.6940472688378 1.0
C      1  0.6179358708631  0.8802860471713  0.5726641073562 1.0
C      1  0.3263438288676  0.4520118422689  0.4351300707439 1.0
C      1  0.5755911137901  0.7562718401760  0.4678006672809 1.0
C      1  0.6331388388236  0.8143669992934  0.2515293639649 1.0
C      1  0.2869848539737  0.3584239740392  0.3991112356283 1.0
C      1  0.6340973428715  0.6539473209194  0.7823563032360 1.0
C      1  0.8157525121859  0.3755264037099  0.5396965436080 1.0
C      1  0.2150708336870  0.5848210898057  0.6062618658538 1.0
C      1  0.6920818149335  0.4359815819480  0.2251742774042 1.0
C      1  0.7923146562013  0.6308426772393  0.4438037562997 1.0
C      1  0.7196360430494  0.4926274233023  0.3778513674910 1.0
C      1  0.5048894414625  0.8316692286439  0.6770576995400 1.0
C      1  0.6908971989041  0.1805535784982  0.2375043999659 1.0
C      1  0.1904035390073  0.4895192350099  0.3591194976958 1.0
C      1  0.3528899606739  0.2492524003674  0.2647387070441 1.0
C      1  0.4263230461712  0.5429109861608  0.3562526594787 1.0
C      1  0.7697330404632  0.3745152768205  0.7014896672472 1.0
C      1  0.3966132378978  0.7099637404178  0.7408999429985 1.0
C      1  0.5762035320011  0.2689714594175  0.8218158529161 1.0
C      1  0.4885492131726  0.5909941093067  0.4987212082426 1.0
C      1  0.3077802388152  0.6679932805368  0.2544280536576 1.0
C      1  0.7657650722307  0.6791729321287  0.6222281189206 1.0
C      1  0.3929691696041  0.1463598494400  0.3405196597792 1.0
C      1  0.1851870410860  0.5688578777574  0.4163859523569 1.0
C      1  0.2803626007340  0.7226484531838  0.5179859329042 1.0
C      1  0.2541563832051  0.6654671776132  0.6604868148209 1.0
C      1  0.6470542698917  0.5240237882144  0.4247543837910 1.0
C      1  0.6999253224754  0.5338462731278  0.2173675655783 1.0
C      1  0.4993644463001  0.6698300572574  0.8787118821235 1.0
C      1  0.3724485810110  0.8518006078132  0.5408620288206 1.0
C      1  0.3324557373095  0.5303209092481  0.3718942274069 1.0
C      1  0.5477507285740  0.8132041017370  0.2822892535021 1.0
C      1  0.3142297420029  0.6306223421593  0.4957886826634 1.0
C      1  0.3832451441420  0.7313365794124  0.2410139952167 1.0
C      1  0.4270872655655  0.3661493165807  0.2797630067009 1.0
C      1  0.8695566929405  0.4579989030789  0.5355207755257 1.0
C      1  0.4889578708504  0.2659045403949  0.4031591258950 1.0
C      1  0.5553232902511  0.4684676898743  0.1581205186952 1.0
C      1  0.3011729297779  0.2831568482230  0.4617468776059 1.0
C      1  0.4897540612159  0.5262220943519  0.4246768595774 1.0
C      1  0.1911571832936  0.3391879496271  0.5695756957587 1.0
C      1  0.6947288878227  0.7559191599561  0.2468501127500 1.0
C      1  0.9047153869605  0.4567775452138  0.4489086914660 1.0
C      1  0.3352738626180  0.7881014830971  0.4665525590935 1.0
C      1  0.6106028122637  0.3960705378018  0.1749586741937 1.0
C      1  0.5722575859369  0.6156393218694  0.6115393844006 1.0
C      1  0.3545859906244  0.3913566182841  0.8303664061136 1.0
C      1  0.3087651773171  0.2202498762981  0.6055724642604 1.0
C      1  0.6338332488924  0.1398126337119  0.3974207598869 1.0
C      1  0.5603115726949  0.5849203555556  0.2646469658789 1.0
C      1  0.8186727947090  0.5367664550992  0.6674588369682 1.0
C      1  0.3043686474833  0.6673933414334  0.7411281269965 1.0
C      1  0.3155245662410  0.7802243372995  0.3683807930342 1.0
C      1  0.1876904569812  0.3574538773648  0.6632811134457 1.0
C      1  0.6356685702396  0.8301276895413  0.4939474979714 1.0
C      1  0.5469291104300  0.3096715263603  0.4790503234435 1.0
END
