TITL C-17339-2271-44 -7.87 3375.00 -1371.53150429 0 0 166 () n - 1
REM
REM Run started: at 2020.12.26 17:42:21 in /gpfs/home/chem/mssmkc/CARBON/AIRSS/Generating-Clusters/Str-Search/Only-C1/C100-200
REM VASP from code version vasp.5.4.4.18Apr17-6-g9f103f2a35 (build Oct 11 2019 16:45:47) gamma-only
REM
REM
REM
REM
REM ./C.cell (efaf0b2bf1589a83377268d7ebe2c73f)
REM AIRSS Version 0.9.1 bugfix July 2018 build 013d7b7c2542+ Fri, 06 Jul 2018 19:26:36 +0100
REM compiler GCC version 6.3.0
REM options -cpp -iprefix /gpfs/warwick/csc/orac/software/Core/GCCcore/6.3.0/bin/../lib/gcc/x86_64-pc-linux-gnu/6.3.0/ -mtune=generic -march=x86-64 -g -O0
REM seed 563885466 -1628385790 -99409461 1889239080 -2041319940 378732908 939497877 89724019 -1932497904 1529107962 -338238352 268479927
REM
REM C.POTCAR (d86ddea03c3ceb6dc662c8ad6801f873)
REM 
CELL 1.54180   15.00000   15.00000   15.00000   90.00000   90.00000   90.00000
LATT -1
SFAC C  
C      1  0.4599692930310  0.7686906818985  0.4684213933058 1.0
C      1  0.5600334055535  0.4135605344607  0.0945009199740 1.0
C      1  0.4451669615331  0.1810231288926  0.7369244813597 1.0
C      1  0.5409474022119  0.8422245678782  0.6534499732565 1.0
C      1  0.4932180622375  0.6749301129793  0.5949562710070 1.0
C      1  0.8151232996757  0.6641482652798  0.5395655345086 1.0
C      1  0.4774770106487  0.3986267140384  0.0908805024014 1.0
C      1  0.2970264553942  0.3585316065324  0.8172762795801 1.0
C      1  0.2304207670935  0.5069802534889  0.3358616061357 1.0
C      1  0.7104186155830  0.3462729870722  0.3932088015617 1.0
C      1  0.5269851334687  0.7495397665814  0.5346598900328 1.0
C      1  0.5374269892588  0.7180383958715  0.2310533686535 1.0
C      1  0.3962926864657  0.4355780445623  0.3206370597572 1.0
C      1  0.3662702807104  0.7836881651841  0.6315358726727 1.0
C      1  0.2243132959259  0.7343730409950  0.5887305528369 1.0
C      1  0.5754814631616  0.7942489881298  0.3711219311711 1.0
C      1  0.6878308392002  0.7831028194915  0.6628397978057 1.0
C      1  0.6983529661911  0.4313202168472  0.4524556005892 1.0
C      1  0.2233908633823  0.4123496841142  0.2972752127333 1.0
C      1  0.7934179490693  0.4081423434769  0.4231100058012 1.0
C      1  0.6861055890949  0.3341278851188  0.2926921946443 1.0
C      1  0.8275173959933  0.4370663944835  0.5905945486530 1.0
C      1  0.1579821925188  0.3107226206074  0.4877521626122 1.0
C      1  0.8262765373494  0.2638926567420  0.6234711458952 1.0
C      1  0.6355794115533  0.1812325670543  0.4592136910359 1.0
C      1  0.4245217066948  0.5241712156009  0.4458991991750 1.0
C      1  0.4885474775395  0.1218645792783  0.5053673210696 1.0
C      1  0.3297544877108  0.5001854692268  0.1532847699517 1.0
C      1  0.5327885115451  0.6696594006385  0.8268202400526 1.0
C      1  0.2919707996706  0.4500404061616  0.8350348506455 1.0
C      1  0.6043547698418  0.7999396793614  0.7159647757799 1.0
C      1  0.4573464145440  0.7871189961650  0.7620011129734 1.0
C      1  0.4378744139884  0.1291153582399  0.5869057696968 1.0
C      1  0.3179688502488  0.4615203726823  0.5558436409654 1.0
C      1  0.8289122261509  0.6641437025757  0.3865056789445 1.0
C      1  0.7738730457778  0.6024508705586  0.2502421443004 1.0
C      1  0.3302325681552  0.4022824366294  0.1603995347010 1.0
C      1  0.3175982638658  0.3174835416422  0.6568012852522 1.0
C      1  0.2651715268919  0.2828817789481  0.2646931577260 1.0
C      1  0.4661014656067  0.1582380343855  0.3340485690463 1.0
C      1  0.3413134679474  0.7363097370569  0.2941239642051 1.0
C      1  0.4049850115449  0.6092828270202  0.3069962224360 1.0
C      1  0.8555102197365  0.5733088332395  0.4181156373017 1.0
C      1  0.3661513365994  0.6561887936063  0.2303048039923 1.0
C      1  0.5757100771404  0.5056301648336  0.8435306270624 1.0
C      1  0.3667581216714  0.6054295197496  0.6569409005351 1.0
C      1  0.4389828046339  0.6443777697517  0.8191842974754 1.0
C      1  0.5202841754060  0.5901545025973  0.6297296887925 1.0
C      1  0.8598944877406  0.5799505253224  0.5128078196506 1.0
C      1  0.1202932531335  0.3552848737576  0.5495355883266 1.0
C      1  0.2296176688154  0.5969929724132  0.4848559470099 1.0
C      1  0.6511826047185  0.2813481837934  0.4630582246394 1.0
C      1  0.7242467928213  0.5249019510836  0.8111131157554 1.0
C      1  0.6730526755569  0.8055434628188  0.5677431755781 1.0
C      1  0.6305053438388  0.2605001213932  0.2615853060670 1.0
C      1  0.2943241332288  0.5785729922407  0.7200521639946 1.0
C      1  0.5762453731599  0.1533226373665  0.5269314409579 1.0
C      1  0.6098482411651  0.3715767644757  0.1602044643201 1.0
C      1  0.6987292110255  0.7233682518132  0.3076978645816 1.0
C      1  0.4335088755083  0.1490833760549  0.4252533568569 1.0
C      1  0.5787090284224  0.4628637074329  0.5646318416868 1.0
C      1  0.5737244134024  0.1971343703487  0.6185738267468 1.0
C      1  0.6685465868551  0.7782672720848  0.3779430889963 1.0
C      1  0.8155743323532  0.6731380196669  0.6360274366224 1.0
C      1  0.6278511627805  0.6663109517012  0.2543715982666 1.0
C      1  0.1137408932695  0.7106081953030  0.4153769732836 1.0
C      1  0.2121912486398  0.5919121628290  0.3824694828598 1.0
C      1  0.1138442957695  0.4302235201519  0.5916450733320 1.0
C      1  0.4690745125390  0.2804850101676  0.1952419055528 1.0
C      1  0.6715574434681  0.3722655539218  0.7814969176648 1.0
C      1  0.3328638050037  0.2207463223659  0.2687297643868 1.0
C      1  0.6319535830880  0.1354930100063  0.3780096394028 1.0
C      1  0.6594208770192  0.4557268800458  0.8204195660257 1.0
C      1  0.2299021440383  0.3008045111672  0.4351758784279 1.0
C      1  0.4883528351548  0.5752353004509  0.2675168351620 1.0
C      1  0.6929473581420  0.5257057499566  0.6517624517591 1.0
C      1  0.3961001266166  0.8078263770898  0.4184822673158 1.0
C      1  0.2233454145543  0.3209695590140  0.3402437174381 1.0
C      1  0.5113662979285  0.7834811886812  0.2968749321632 1.0
C      1  0.5531824697859  0.1280444533887  0.3239509613834 1.0
C      1  0.3265352394382  0.5277956105483  0.7908440292877 1.0
C      1  0.4750289030961  0.4780120754567  0.2785722623626 1.0
C      1  0.4224770612463  0.2149545301182  0.2609162753409 1.0
C      1  0.3080311914949  0.7905807842029  0.4528775016615 1.0
C      1  0.7123618998132  0.6633828000506  0.4975242194964 1.0
C      1  0.2619706079024  0.3673260086679  0.2125822928715 1.0
C      1  0.6858573964026  0.6103958490288  0.8296062923491 1.0
C      1  0.3549928743553  0.1725433104163  0.5628682419062 1.0
C      1  0.4791809992558  0.5917216217396  0.4470692774442 1.0
C      1  0.1613020989855  0.5053687681933  0.5949568923691 1.0
C      1  0.6897265305738  0.5914341908669  0.2100231267284 1.0
C      1  0.3224415982682  0.2949511019309  0.7528073456379 1.0
C      1  0.5757949683100  0.5985186326166  0.3170184395467 1.0
C      1  0.4911049027361  0.1541913810752  0.6617486914399 1.0
C      1  0.2437315309046  0.5127644667968  0.5380804529180 1.0
C      1  0.5423895821935  0.7302156521611  0.4369090121387 1.0
C      1  0.4019959662464  0.4500175646970  0.5025514273017 1.0
C      1  0.1644919732385  0.6622040420344  0.5492214687231 1.0
C      1  0.4929646610620  0.4799076806889  0.8076469899102 1.0
C      1  0.1547184638302  0.5963033248642  0.6284135181328 1.0
C      1  0.6543300461165  0.6013349054075  0.4529429736027 1.0
C      1  0.2929118393933  0.7852108742314  0.5488589429886 1.0
C      1  0.7091033066675  0.7635306119478  0.4761808415799 1.0
C      1  0.5500971639518  0.4406695525612  0.3168076460701 1.0
C      1  0.3058798584317  0.4632677098960  0.3257769541377 1.0
C      1  0.6763574834431  0.3994500960482  0.2246107378582 1.0
C      1  0.8376726884121  0.5845192782644  0.6641744061321 1.0
C      1  0.5793515420993  0.8246666193610  0.5687786536510 1.0
C      1  0.5414545062418  0.2961937339077  0.5986698915952 1.0
C      1  0.3177815481968  0.7486326323689  0.7148696353713 1.0
C      1  0.7298147448040  0.6523010998401  0.7571051910593 1.0
C      1  0.2095328869432  0.6236483629998  0.6965552887253 1.0
C      1  0.6636476943150  0.4105403658223  0.5497118185198 1.0
C      1  0.4377749486392  0.5436369663840  0.6525801762009 1.0
C      1  0.6934800374453  0.4932056055128  0.2514532944195 1.0
C      1  0.4923981538593  0.3281668185683  0.5152156468873 1.0
C      1  0.6218147492321  0.5082212372901  0.3291783192587 1.0
C      1  0.4941469647843  0.4270564204969  0.5412080109669 1.0
C      1  0.4198046321404  0.4488345717741  0.6714227491543 1.0
C      1  0.4842992237930  0.4104727848215  0.7337556206197 1.0
C      1  0.6421125510082  0.3124531468054  0.5639901171687 1.0
C      1  0.4499822225229  0.8301622236149  0.6766232765545 1.0
C      1  0.3258158427095  0.5811051001963  0.1736424592610 1.0
C      1  0.4010952421511  0.6863008270070  0.6181989644431 1.0
C      1  0.5934540064133  0.6021650469223  0.8517468437668 1.0
C      1  0.2967628264396  0.6366568239790  0.4218055123373 1.0
C      1  0.5646273771900  0.2928676063364  0.1957595209654 1.0
C      1  0.7600784328095  0.5633524141380  0.7231896499931 1.0
C      1  0.8425743905728  0.3859104180277  0.5039585131548 1.0
C      1  0.1801002467109  0.6876243864703  0.3581424099134 1.0
C      1  0.2727931615428  0.7288861372872  0.3752912408539 1.0
C      1  0.4212816682867  0.5502160699937  0.8121274207615 1.0
C      1  0.4151099191135  0.7862879669089  0.3240336816890 1.0
C      1  0.2733418457907  0.3901776385926  0.9047309020533 1.0
C      1  0.3414309101978  0.4082908891474  0.6358455729553 1.0
C      1  0.7495869947527  0.7169551217316  0.6909916209902 1.0
C      1  0.4691785479391  0.6562272026631  0.2079158922637 1.0
C      1  0.6270506938942  0.3167745902500  0.7254842711993 1.0
C      1  0.6000582142780  0.5357345168729  0.6204876891029 1.0
C      1  0.7990945168324  0.7181684689585  0.4622841213582 1.0
C      1  0.3860351347558  0.6036083785644  0.3996015840426 1.0
C      1  0.7871174555189  0.5130682820333  0.2847597033435 1.0
C      1  0.5238756829793  0.3654003903222  0.3687255194098 1.0
C      1  0.7568931039510  0.2296203822125  0.6516901245432 1.0
C      1  0.5629549529073  0.6339754418561  0.4148112920683 1.0
C      1  0.7306980159250  0.4527000175899  0.6086215920408 1.0
C      1  0.3185104898076  0.2809122375362  0.4818962744849 1.0
C      1  0.4279202622356  0.3657753867523  0.3730128942803 1.0
C      1  0.8650451158050  0.5284737204857  0.5929191271998 1.0
C      1  0.6279048182107  0.1760943597811  0.2928217546264 1.0
C      1  0.3571758476351  0.1860922392543  0.4676951325467 1.0
C      1  0.3980131346101  0.3461705996793  0.4650802568957 1.0
C      1  0.0870087573741  0.6974636754773  0.4950133997954 1.0
C      1  0.8250524768717  0.4928294188434  0.3667162848477 1.0
C      1  0.3894801142653  0.7248107488145  0.7806936111935 1.0
C      1  0.5483764597572  0.7571511314939  0.7822331785214 1.0
C      1  0.8567434323801  0.3398697564547  0.5781678434097 1.0
C      1  0.2371911706230  0.7156816225610  0.6825054776377 1.0
C      1  0.5396525498072  0.3440825894310  0.6941777589922 1.0
C      1  0.4160137211912  0.3528437202530  0.1423312804762 1.0
C      1  0.5583961147617  0.3175079449719  0.4396486963005 1.0
C      1  0.6628307116019  0.5149803531017  0.4187894646913 1.0
C      1  0.3789879924205  0.2217267805717  0.7666777982685 1.0
C      1  0.7817960951641  0.6771313254566  0.3073934612562 1.0
C      1  0.3148024484698  0.2571879941541  0.5830368546011 1.0
C      1  0.6618082627911  0.2504969027496  0.6519259810954 1.0
END
