TITL C-186558-367-24 -4.35 3375.00 -735.58990267 0 0 92 (C1) n - 1
REM
REM Run started: at 2020.12.05 00:04:45 in /rds/project/t2_vol4/rds-t2-cs072/BORA/CARBON/AIRSS/Generating-Clusters/Str-Search/Only-C1/C10-100
REM VASP from code version vasp.5.4.4.18Apr17-6-g9f103f2a35 (build Oct 11 2019 16:45:47) gamma-only
REM
REM
REM
REM
REM ./C.cell (67c5d0192afd7a3ce4a0888e5fe73b87)
REM AIRSS Version 0.9.1 bugfix July 2018 build 013d7b7c2542+ Fri, 06 Jul 2018 19:26:36 +0100
REM compiler GCC version 4.8.5 20150623 (Red Hat 4.8.5-39)
REM options -cpp -mtune=generic -march=x86-64 -g -O0
REM seed -452516957 -198693833 -1607327191 -483807841 2116815056 -274340366 -713735960 -1536381281 -211071533 1602903300 -1520842612 877265060
REM
REM C.POTCAR (d86ddea03c3ceb6dc662c8ad6801f873)
REM 
CELL 1.54180   15.00000   15.00000   15.00000   90.00000   90.00000   90.00000
LATT -1
SFAC C  
C      1  0.7363378861843  0.4729247283492  0.6601344407621 1.0
C      1  0.2955350663450  0.4546044036359  0.6803264456857 1.0
C      1  0.3392902146483  0.6136376977237  0.3251326756765 1.0
C      1  0.2637266849151  0.3632143613418  0.4455898679754 1.0
C      1  0.4105582805705  0.2738332764403  0.7126620424578 1.0
C      1  0.4278619465542  0.6035866108657  0.3721447971566 1.0
C      1  0.7539583588413  0.3791380032342  0.6533484472183 1.0
C      1  0.5162487006555  0.2575632153630  0.4230067076462 1.0
C      1  0.2151307555225  0.4476917305790  0.5782949671117 1.0
C      1  0.4599099663166  0.5230680634214  0.7438540836549 1.0
C      1  0.5385900746333  0.3541658982605  0.4011178492677 1.0
C      1  0.2942086554395  0.2918987321540  0.5026847899296 1.0
C      1  0.6035643380096  0.7979318311941  0.6590287007395 1.0
C      1  0.7374874743964  0.3522049752177  0.5654515852337 1.0
C      1  0.5788525216647  0.1844457964780  0.5565501700682 1.0
C      1  0.6525019392245  0.7718407068909  0.5798344039965 1.0
C      1  0.5338956631326  0.3475859280095  0.5622281888691 1.0
C      1  0.3963671227117  0.3521753728662  0.2647660258199 1.0
C      1  0.4695697442190  0.3162961081872  0.7538831950442 1.0
C      1  0.3204892018284  0.7131053063078  0.3628874491571 1.0
C      1  0.6758569909451  0.2787185414686  0.3635901780725 1.0
C      1  0.5988569220331  0.5412638150391  0.7389135785569 1.0
C      1  0.4402141448116  0.4194898788471  0.2382874117184 1.0
C      1  0.4542776408182  0.7731223856667  0.5907037606919 1.0
C      1  0.5124806511948  0.2559932930160  0.5266317090353 1.0
C      1  0.6485504649516  0.3278483238060  0.2805054029115 1.0
C      1  0.5626657847504  0.5385746285117  0.2667453383636 1.0
C      1  0.5112156735601  0.7017400915151  0.2636945752466 1.0
C      1  0.2612802874603  0.3796361498242  0.6303752171148 1.0
C      1  0.7009928954034  0.6820774125956  0.4578961839361 1.0
C      1  0.6527642041055  0.5481064171974  0.2604061734138 1.0
C      1  0.5299343755282  0.8232347318807  0.5964959300996 1.0
C      1  0.5143781675635  0.6172400977283  0.3148192304976 1.0
C      1  0.7460514963135  0.5143310931933  0.2794563476154 1.0
C      1  0.5376653051914  0.4707675747412  0.7600511241091 1.0
C      1  0.7205590299094  0.6023884057532  0.3055906578336 1.0
C      1  0.2864118130534  0.3474395438818  0.3569046310295 1.0
C      1  0.5866189889811  0.4872885095864  0.4648467703880 1.0
C      1  0.2215280489290  0.6254730607198  0.4729438773670 1.0
C      1  0.6230607014118  0.7179567289721  0.4096297926553 1.0
C      1  0.4998572161765  0.1471350137085  0.5726136964739 1.0
C      1  0.2277739077863  0.4491615561689  0.4823205544395 1.0
C      1  0.2226746715556  0.5157390950764  0.6528329098199 1.0
C      1  0.6780568079763  0.5946626018661  0.5977866126214 1.0
C      1  0.3630409426875  0.2984627979654  0.3327745386402 1.0
C      1  0.4151817212533  0.2461434563128  0.3967163105858 1.0
C      1  0.5901185493993  0.7545089714832  0.7391763515685 1.0
C      1  0.4817778684913  0.8019061704598  0.3724060589698 1.0
C      1  0.7369567276207  0.6116375791750  0.4011573271825 1.0
C      1  0.2473688071738  0.6190929233776  0.6276179896156 1.0
C      1  0.4439204289369  0.5634210457552  0.4681857920403 1.0
C      1  0.2944909385080  0.2993589227329  0.5985501724577 1.0
C      1  0.6954677524735  0.6894491244823  0.5536184621604 1.0
C      1  0.4182418387634  0.4734956651705  0.5959632177584 1.0
C      1  0.5525584731956  0.5797999254559  0.4722694175319 1.0
C      1  0.3944877661531  0.6873090358077  0.4312759183021 1.0
C      1  0.6777116605636  0.5440493117299  0.6910595360244 1.0
C      1  0.7361486804212  0.5181033551963  0.3822948011005 1.0
C      1  0.7307799925817  0.2700227720431  0.5071888902589 1.0
C      1  0.5214031549763  0.6057274740338  0.7227194547077 1.0
C      1  0.5229801876670  0.4514761024598  0.2603587803898 1.0
C      1  0.1857773445664  0.5991896341237  0.6873623704289 1.0
C      1  0.5730746902085  0.6398973351455  0.3928245774327 1.0
C      1  0.6391876962140  0.3712528479251  0.3831908605437 1.0
C      1  0.5537752098490  0.3661811774921  0.6451482595152 1.0
C      1  0.4398406897240  0.4732730378400  0.5096506870311 1.0
C      1  0.5872694505718  0.8195500437577  0.5178862151267 1.0
C      1  0.2348272583571  0.6715496078329  0.3920094159620 1.0
C      1  0.5382360327099  0.6937489567661  0.7638750382701 1.0
C      1  0.5190981949758  0.4160654617919  0.4828606097627 1.0
C      1  0.5658983291470  0.7927694482522  0.4307381989548 1.0
C      1  0.3939270892334  0.7771196571101  0.3995181843344 1.0
C      1  0.5393696705992  0.3764097502476  0.7355495545350 1.0
C      1  0.2255428622528  0.5322588094080  0.4357335505985 1.0
C      1  0.3830398330555  0.6408416769829  0.5182775026250 1.0
C      1  0.3695418611082  0.2514675068344  0.6347819373586 1.0
C      1  0.7604928868309  0.2834344495750  0.4191669531151 1.0
C      1  0.7322816277318  0.5115370594966  0.5726509034932 1.0
C      1  0.6527464747660  0.2099856179565  0.4997926391051 1.0
C      1  0.3910655321652  0.4845867995976  0.6800386561408 1.0
C      1  0.5670843186466  0.3750580653298  0.3062769641820 1.0
C      1  0.7198413207944  0.4368416536959  0.5161395526119 1.0
C      1  0.3670412237375  0.2347398894699  0.4766699900206 1.0
C      1  0.6134235295024  0.2190114288852  0.4127501514529 1.0
C      1  0.4963915041459  0.7816561510548  0.2799937639322 1.0
C      1  0.6732223595602  0.4543171471161  0.4288526737775 1.0
C      1  0.4207844499154  0.2142053442864  0.5586396671920 1.0
C      1  0.4408709683058  0.6842967915741  0.5870659861159 1.0
C      1  0.5801883197544  0.6028664939187  0.5670824607558 1.0
C      1  0.2567651036057  0.5795789153471  0.3549984916435 1.0
C      1  0.5136069838036  0.6282898090675  0.6246428094327 1.0
C      1  0.2853409070725  0.6337530011931  0.5455302577730 1.0
END
