TITL C-18700-5354-11 -12.279 3375.00 -2939.13038669 0 0 354 (C1) n - 1
REM
REM Run started: at 2020.07.13 20:12:08 in /home/heco/bkarasulu/work/CARBON/AIRSS/Str-Search
REM VASP from code version vasp.5.4.4.18Apr17-6-g9f103f2a35 (build Jul 02 2020 21:03:42) gamma-only
REM
REM
REM
REM
REM ./C.cell (90889e035cd0f9d0e5f9cb6dd9eb5d52)
REM AIRSS Version 0.9.1 bugfix July 2018 build 013d7b7c2542+ Fri, 06 Jul 2018 19:26:36 +0100
REM compiler GCC version 9.2.0
REM options -cpp -mtune=generic -march=x86-64 -g -O0
REM seed 1259956789 1032406054 1903268557 1473360075 -115261499 -461050823 -873944183 -90644757 -777451129 625837700 -1171028999 656506458 -771390954 349081328 -518116464 -175849161 -1783660443 68217218 2024519855 -1030451843 -1456354943 -890387177 1388139974 616098361 1495481433 -2019207754 -844229662 -1054500430 -1255723964 2027468062 971673539 -234393874 961491258
REM
REM C.POTCAR (d86ddea03c3ceb6dc662c8ad6801f873)
REM 
CELL 1.54180   15.00000   15.00000   15.00000   90.00000   90.00000   90.00000
LATT -1
SFAC C  
C      1  0.1379451520354  0.7740208357158  0.2880285808833 1.0
C      1  0.3986334500699  0.8427279770614  0.8640211422337 1.0
C      1  0.2201465696675  0.3211254842835  0.1420038879895 1.0
C      1  0.4617322854065  0.2710192384772  0.3152428576173 1.0
C      1  0.1252521551827  0.8629823279273  0.4439289584643 1.0
C      1  0.7668835628068  0.6710609541613  0.8627848325618 1.0
C      1  0.4397895511588  0.4051206831127  0.7949853061997 1.0
C      1  0.0711266503456  0.7945369698677  0.5561126812777 1.0
C      1  0.6576318799198  0.3461530887409  0.6082288617375 1.0
C      1  0.9052497930726  0.5375045315899  0.5759860384649 1.0
C      1  0.8956140259034  0.3729068469175  0.2120605933592 1.0
C      1  0.6880575173029  0.0969941354976  0.5993797222268 1.0
C      1  0.6084151109387  0.9292625659759  0.3691635637920 1.0
C      1  0.3184640970040  0.3835732160650  0.5847978758829 1.0
C      1  0.6180796421289  0.5261206955562  0.3400968824649 1.0
C      1  0.5314401742648  0.2524133304590  0.2534945241142 1.0
C      1  0.5408681585375  0.3915110116072  0.5160418910308 1.0
C      1  0.6665573175561  0.6920185846257  0.6389251311770 1.0
C      1  0.0886525326563  0.4186545574711  0.8347634289297 1.0
C      1  0.5121340852012  0.7517921954439  0.9284984312659 1.0
C      1  0.6049213549287  0.4124751336499  0.8282310705870 1.0
C      1  0.6895651642248  0.8178292965184  0.1089976966737 1.0
C      1  0.2141778817134  0.4189917556357  0.1413143944392 1.0
C      1  0.2006451261211  0.5943241358373  0.3935524935473 1.0
C      1  0.2727403402076  0.9400786593868  0.5396094258455 1.0
C      1  0.5391049030906  0.2766353081314  0.7254653172643 1.0
C      1  0.8150157744194  0.6160379904328  0.3537629447386 1.0
C      1  0.3605862053388  0.6205117158250  0.1021482993195 1.0
C      1  0.5915631669451  0.6659746348289  0.6928469334794 1.0
C      1  0.4572711415585  0.3647798108669  0.3631536914465 1.0
C      1  0.3592449874833  0.4621691260465  0.7678183703378 1.0
C      1  0.3092783037073  0.2700695999372  0.3683775069812 1.0
C      1  0.8081007565554  0.8653679042453  0.6049433859307 1.0
C      1  0.2579908393665  0.1065477796676  0.4479455168823 1.0
C      1  0.4285114478722  0.9232626095348  0.7299305550073 1.0
C      1  0.3918209503846  0.3507470092929  0.0912946428337 1.0
C      1  0.4121513778825  0.6276409814028  0.8271170470554 1.0
C      1  0.0246093437035  0.4177318353875  0.4116647669225 1.0
C      1  0.8666203161845  0.4700103912256  0.4078702378509 1.0
C      1  0.6780089210370  0.8010047885564  0.8810762167402 1.0
C      1  0.4155245096576  0.7847719945263  0.9358181773796 1.0
C      1  0.0553213175483  0.5299148608760  0.4019126427960 1.0
C      1  0.7589310617115  0.9662220853098  0.4895302256378 1.0
C      1  0.7184066319367  0.6090953000900  0.6280759987358 1.0
C      1  0.3206435299722  0.7651733704164  0.7260441000438 1.0
C      1  0.7682669683552  0.8134408681026  0.1387483936002 1.0
C      1  0.3002062903744  0.7347419659412  0.4685042620846 1.0
C      1  0.1124281851220  0.6127345952082  0.2476635484606 1.0
C      1  0.2550529386648  0.8514341222484  0.5766762586805 1.0
C      1  0.9274169260448  0.2564540935509  0.4773120478815 1.0
C      1  0.3281961076741  0.3922041347894  0.4780123102504 1.0
C      1  0.3249874973664  0.0354827431769  0.4701051655296 1.0
C      1  0.5861407339568  0.0889163251820  0.3428254074110 1.0
C      1  0.2823398721628  0.5601662490731  0.1192537234265 1.0
C      1  0.9331193129131  0.5216401417151  0.6596498858058 1.0
C      1  0.1554748004124  0.3568346556933  0.6370856210943 1.0
C      1  0.5224273897228  0.5243697914155  0.3825668959773 1.0
C      1  0.2510298297218  0.3278488457353  0.4850481090153 1.0
C      1  0.7400139540403  0.2230658663059  0.8331171484924 1.0
C      1  0.1743704828256  0.8379101263114  0.3606705973527 1.0
C      1  0.9889941098530  0.6425917898430  0.4742748293696 1.0
C      1  0.6108058271264  0.6199055281190  0.1356578007659 1.0
C      1  0.8528855510785  0.4501149813956  0.8914758381309 1.0
C      1  0.9765072523923  0.5934421309079  0.3849124511153 1.0
C      1  0.3749168298992  0.2098711564024  0.8633580304997 1.0
C      1  0.1790302815505  0.4679678791789  0.3033403807781 1.0
C      1  0.9528105769817  0.6071424682646  0.7066888086077 1.0
C      1  0.3285530764896  0.4161290966238  0.2732963974238 1.0
C      1  0.2386717763353  0.3199398585219  0.5833408209195 1.0
C      1  0.6939259015510  0.9115311316137  0.5151571495898 1.0
C      1  0.1142852367496  0.5607622433331  0.5747744442935 1.0
C      1  0.8191782650543  0.7121033418263  0.3697215777924 1.0
C      1  0.8753728844288  0.7503368174558  0.4500921244452 1.0
C      1  0.6738243776137  0.1030191937211  0.5035764100376 1.0
C      1  0.4992057152165  0.6811012366564  0.7055789492719 1.0
C      1  0.4603648813573  0.1944273974422  0.3911692593175 1.0
C      1  0.2989826638420  0.1270499882363  0.7209053368487 1.0
C      1  0.5173721385001  0.3791513650808  0.9576525414276 1.0
C      1  0.9948860455216  0.6897948736553  0.3391355111655 1.0
C      1  0.1993694967370  0.7308316413863  0.4784100454565 1.0
C      1  0.6552283146723  0.1839329228915  0.6428923957822 1.0
C      1  0.8898322948763  0.4680656115746  0.1872513508267 1.0
C      1  0.5150199006752  0.2766820976304  0.9452898790988 1.0
C      1  0.6379807873978  0.6069349792566  0.9114233686652 1.0
C      1  0.4285262528940  0.7970249256792  0.1408147885655 1.0
C      1  0.9500508808562  0.3588269633606  0.7957787160106 1.0
C      1  0.9250450833464  0.6290681894597  0.5462647846986 1.0
C      1  0.4119574350830  0.8361147020370  0.5123360379737 1.0
C      1  0.1688507739143  0.2706005746460  0.2080329678969 1.0
C      1  0.0392851771266  0.8108097671864  0.4704117121769 1.0
C      1  0.5788152634515  0.4018687610151  0.2519256044223 1.0
C      1  0.7735304764446  0.3212223872509  0.8250234040108 1.0
C      1  0.3089310038086  0.7041418204984  0.0629893657477 1.0
C      1  0.8334163691492  0.8036910204612  0.6697577620471 1.0
C      1  0.5931469800277  0.5855900030747  0.5394795550321 1.0
C      1  0.3105102531476  0.0182700821909  0.5695808587046 1.0
C      1  0.3574984802800  0.5711167041150  0.3863644717800 1.0
C      1  0.0882055747386  0.7448552329790  0.7068526486277 1.0
C      1  0.8446362091612  0.1874738326580  0.3571642889200 1.0
C      1  0.4814631103338  0.6581074790993  0.8927663210090 1.0
C      1  0.4309302962812  0.6320828472766  0.5375763701552 1.0
C      1  0.7093642458454  0.3614940808493  0.7531821168606 1.0
C      1  0.7551772568614  0.3797746359696  0.1258203178986 1.0
C      1  0.7452886262295  0.3590871870747  0.2216718207110 1.0
C      1  0.2853533197865  0.4014370489145  0.7441690605904 1.0
C      1  0.9257863443627  0.3461073733109  0.2977515381985 1.0
C      1  0.7115920491820  0.8296872608639  0.7974506010744 1.0
C      1  0.8263381452005  0.3186591637833  0.1661245142270 1.0
C      1  0.2193873990012  0.1957331954942  0.2317131615391 1.0
C      1  0.2869987615455  0.5980809625972  0.5383659765510 1.0
C      1  0.1143932335113  0.4079276243146  0.5569667677325 1.0
C      1  0.1795166417372  0.4871958782676  0.5445035140237 1.0
C      1  0.4495698680977  0.5779469345006  0.2350660655631 1.0
C      1  0.2199819499997  0.5121695773209  0.9865846961690 1.0
C      1  0.1696578223520  0.3759645108362  0.3405691707887 1.0
C      1  0.6840873189965  0.7501171950872  0.5569916530114 1.0
C      1  0.3843845384770  0.6871270461510  0.6104644807491 1.0
C      1  0.4994723145558  0.1303802129886  0.8858363936137 1.0
C      1  0.5904414147460  0.1335718668004  0.8619560487319 1.0
C      1  0.7255004468654  0.1309089934295  0.6928268240626 1.0
C      1  0.8021768066023  0.5025011437597  0.2282718869942 1.0
C      1  0.2734081180852  0.4602663642394  0.3283972246046 1.0
C      1  0.6938888936911  0.2851704100989  0.2641016678808 1.0
C      1  0.5306291716119  0.6589953119056  0.0813828735043 1.0
C      1  0.5627617037397  0.5943192119207  0.4438319273087 1.0
C      1  0.7371989218799  0.6552552786379  0.4055877066233 1.0
C      1  0.1942152633923  0.0717768449507  0.3721826079968 1.0
C      1  0.2123324381989  0.1716984829980  0.7060347120777 1.0
C      1  0.7458746956951  0.6701659928764  0.5050662189019 1.0
C      1  0.3662754369543  0.2423330638718  0.2883190582329 1.0
C      1  0.6068615759017  0.2729024608512  0.9242465227418 1.0
C      1  0.2559595153835  0.6923247452958  0.6985300322260 1.0
C      1  0.3657393994982  0.1247892030115  0.1805223320585 1.0
C      1  0.7872213428966  0.2519266831376  0.4045460378843 1.0
C      1  0.6949315737527  0.5827192500008  0.5370649751106 1.0
C      1  0.8309839840839  0.8592322711932  0.3487647158881 1.0
C      1  0.1353062498857  0.1841050910438  0.5437048721262 1.0
C      1  0.7790491143615  0.5662161008405  0.6916414038494 1.0
C      1  0.9287682492395  0.7046998783069  0.2654578130415 1.0
C      1  0.4406552688642  0.3150918550793  0.7392310284210 1.0
C      1  0.3613802963057  0.7158460976519  0.9760288089114 1.0
C      1  0.2937737849534  0.1665977607978  0.3763467088916 1.0
C      1  0.9783261829047  0.7369055181149  0.4319901897566 1.0
C      1  0.7132107027542  0.2012379149918  0.1998166698062 1.0
C      1  0.6137850356344  0.7897008064697  0.4968949154714 1.0
C      1  0.7118335963153  0.6111894860732  0.1099694783834 1.0
C      1  0.5976047390718  0.8676135470334  0.2215873023120 1.0
C      1  0.5228087990726  0.7116940709254  0.3145697228370 1.0
C      1  0.7342473592972  0.6408872476733  0.1987979647797 1.0
C      1  0.5309165431215  0.2953418031066  0.4940497151661 1.0
C      1  0.3466044668881  0.8609350076685  0.2619576625793 1.0
C      1  0.5604895652791  0.1793697412882  0.1998677148638 1.0
C      1  0.5791737596954  0.5168201197450  0.6163056100624 1.0
C      1  0.1206844806290  0.2675927311552  0.4062108748832 1.0
C      1  0.7998281531384  0.4757770267738  0.1296859149994 1.0
C      1  0.2901997324866  0.3783716707006  0.1963438926854 1.0
C      1  0.4065907200805  0.3336459719584  0.6259290581146 1.0
C      1  0.7107181961837  0.0405423058135  0.4441735543368 1.0
C      1  0.5896041840975  0.0988058118231  0.7720320111884 1.0
C      1  0.8645378624269  0.1989290596146  0.2609905814982 1.0
C      1  0.3213965472414  0.2142941648588  0.1983850543289 1.0
C      1  0.8623420738135  0.3166190713433  0.7695026572950 1.0
C      1  0.3387836173985  0.0847608831742  0.6346416231543 1.0
C      1  0.0904309126901  0.5066076486078  0.7901530535391 1.0
C      1  0.6606625390210  0.2545197029641  0.5734205984413 1.0
C      1  0.6506473012971  0.6828758477026  0.9730090547740 1.0
C      1  0.4961074093861  0.1244908211003  0.6567228072842 1.0
C      1  0.8534899445592  0.2337484376558  0.7191715152900 1.0
C      1  0.6105106808156  0.6813427069453  0.3094611318970 1.0
C      1  0.4647835795821  0.8924627579502  0.5668006187476 1.0
C      1  0.4979063589043  0.0748897325351  0.7429039257448 1.0
C      1  0.1651723081499  0.2459296272415  0.7554067898837 1.0
C      1  0.3689557842895  0.2791778715597  0.7981479642986 1.0
C      1  0.3374420002439  0.8958110568896  0.7302224028495 1.0
C      1  0.0796985295338  0.3464717595202  0.3583281525044 1.0
C      1  0.8332218301972  0.3162363518873  0.6699880285566 1.0
C      1  0.5680566540582  0.1833299761243  0.6969983486113 1.0
C      1  0.3439823227749  0.9205414315722  0.3491007258117 1.0
C      1  0.6663037964586  0.0589692686479  0.7299383150104 1.0
C      1  0.1699774957464  0.7078106684576  0.7362624740461 1.0
C      1  0.2366203943260  0.4652453934244  0.8979288741485 1.0
C      1  0.2339589344873  0.5341099242272  0.4726958285614 1.0
C      1  0.4670661046095  0.8889942947848  0.8085502215618 1.0
C      1  0.9343574942563  0.4072233651763  0.3752260075509 1.0
C      1  0.5570278309366  0.6021823872072  0.8695243053551 1.0
C      1  0.3675137361363  0.4378502069740  0.0651407015025 1.0
C      1  0.7126109321385  0.5976753437531  0.8491602466369 1.0
C      1  0.1349256145932  0.4443704336807  0.2125689796002 1.0
C      1  0.4439278688269  0.5975807171170  0.0515405710836 1.0
C      1  0.3536849701864  0.6391725135661  0.4706592879396 1.0
C      1  0.7218097301839  0.4006594937256  0.3722182387851 1.0
C      1  0.1012536660178  0.3038574452453  0.7091902382342 1.0
C      1  0.5373755543981  0.5525081259935  0.7853672916191 1.0
C      1  0.8492821504090  0.6452502893366  0.7173469524367 1.0
C      1  0.3832288275241  0.1514642194648  0.3354995658200 1.0
C      1  0.5448771989748  0.9377336666704  0.5292159571467 1.0
C      1  0.6091725963822  0.5654632414015  0.7143142113252 1.0
C      1  0.3286192504523  0.7851399600917  0.1200991136246 1.0
C      1  0.5242040596284  0.6548784117709  0.5121879851703 1.0
C      1  0.0845772913761  0.2366986661090  0.4857377872759 1.0
C      1  0.6026556243057  0.1105984931947  0.2520469378587 1.0
C      1  0.6492367781901  0.0215792863141  0.3761177154454 1.0
C      1  0.1336468590621  0.5485130764809  0.3380623377400 1.0
C      1  0.4801190225216  0.9255486325281  0.6514601279505 1.0
C      1  0.7051482866123  0.5429163711999  0.7651375978150 1.0
C      1  0.3914060041187  0.0948361451941  0.2548654107245 1.0
C      1  0.4168463586278  0.7324055526200  0.6809098896552 1.0
C      1  0.4613542341377  0.4277203958610  0.8914038797629 1.0
C      1  0.9259625720904  0.4230205906167  0.8631623713129 1.0
C      1  0.2119468281083  0.4348412949405  0.6897141568162 1.0
C      1  0.4901400049187  0.4180543616540  0.2127433230752 1.0
C      1  0.6125121990091  0.4588815609241  0.0793703594848 1.0
C      1  0.2866518392555  0.2442782250591  0.5419547994958 1.0
C      1  0.1835360913584  0.5944414915244  0.0033273270101 1.0
C      1  0.6153250779497  0.3725695735554  0.9214807186282 1.0
C      1  0.8855390276206  0.5559133772076  0.3841550653839 1.0
C      1  0.5269224739261  0.7658568009624  0.0988781425730 1.0
C      1  0.0392989965013  0.7443624927314  0.6288854357957 1.0
C      1  0.3844271874778  0.3293226855027  0.4247563991731 1.0
C      1  0.9072772022830  0.6253004168150  0.2207696136662 1.0
C      1  0.4309620681407  0.8720807717650  0.2055337707661 1.0
C      1  0.5707437309220  0.3495262040686  0.6637015847504 1.0
C      1  0.6242178381249  0.2179668777706  0.1404675257163 1.0
C      1  0.6578660559197  0.3711251526405  0.0987288157360 1.0
C      1  0.5332475435500  0.4276420917404  0.4201423007738 1.0
C      1  0.4904674123224  0.3901444571333  0.6078468784675 1.0
C      1  0.6078576956888  0.3454445940335  0.7563456222242 1.0
C      1  0.6945266665789  0.1114352839834  0.2398345568799 1.0
C      1  0.4845602653780  0.6712085858380  0.2419177212235 1.0
C      1  0.8347557302499  0.9016281564634  0.5146844062767 1.0
C      1  0.2467377227054  0.7703314243618  0.3910438453464 1.0
C      1  0.2169999497750  0.3064267737130  0.3940017196396 1.0
C      1  0.7919581511097  0.8092208375935  0.2259254946820 1.0
C      1  0.0813352544128  0.7003544822561  0.2933961716338 1.0
C      1  0.3266408873018  0.8313232219330  0.8033595885472 1.0
C      1  0.8129934251288  0.3719704687144  0.5183572103148 1.0
C      1  0.2202380998364  0.6368883241203  0.0877456004377 1.0
C      1  0.2184466567172  0.1396983271557  0.3125451177176 1.0
C      1  0.9329680965396  0.2501356237774  0.3080974133729 1.0
C      1  0.7886730826247  0.7890143989348  0.7544071997778 1.0
C      1  0.7281768965514  0.3011268057100  0.3567572116848 1.0
C      1  0.8115362200104  0.2248582666340  0.1903442812506 1.0
C      1  0.1518661967900  0.6559721561318  0.4504502984970 1.0
C      1  0.4917648632808  0.5090415787323  0.1727898280479 1.0
C      1  0.2700042410156  0.4743240435713  0.0718439544742 1.0
C      1  0.9311221469975  0.2026262720534  0.3950436534407 1.0
C      1  0.4282379499303  0.9566047652159  0.3724268400452 1.0
C      1  0.2823275915401  0.7194248048033  0.3168933105304 1.0
C      1  0.5813016188732  0.8118139039197  0.8835143450435 1.0
C      1  0.8440211587023  0.6924728620654  0.5343743191833 1.0
C      1  0.4152249600378  0.1467803518806  0.6013389114076 1.0
C      1  0.4423112819707  0.0917496634155  0.8131752513784 1.0
C      1  0.4226541756025  0.5337082686883  0.5606033463839 1.0
C      1  0.9613800181383  0.6810886381340  0.6305940948517 1.0
C      1  0.5095695007168  0.8946282984510  0.2484254295617 1.0
C      1  0.2890706300968  0.3202492452098  0.7884100300154 1.0
C      1  0.5200910500047  0.4621709905403  0.8200210151950 1.0
C      1  0.3040615938832  0.4829374656783  0.4225531297493 1.0
C      1  0.0065228187943  0.2890071843393  0.5133986659014 1.0
C      1  0.6429189449221  0.0222916214128  0.6490020073259 1.0
C      1  0.0922217976582  0.6761073227254  0.7725318072631 1.0
C      1  0.2303128693019  0.1628279446854  0.5283847374070 1.0
C      1  0.4800928522043  0.4888765177000  0.6255637187057 1.0
C      1  0.6036426671647  0.8145707999252  0.1407505172232 1.0
C      1  0.2788486449444  0.8170805447995  0.1917172339780 1.0
C      1  0.3572230786197  0.1345879491395  0.8022019841621 1.0
C      1  0.4516279788125  0.4982188104851  0.0745847802727 1.0
C      1  0.0403866985301  0.3827844135125  0.5099050777159 1.0
C      1  0.3631441352565  0.5785235649228  0.8861951165431 1.0
C      1  0.5621186812880  0.7204557393513  0.0101313038948 1.0
C      1  0.6394889151920  0.8799470274587  0.6601735598799 1.0
C      1  0.6550759579223  0.2040605784290  0.8793882626098 1.0
C      1  0.6598641449678  0.8873762910813  0.2912270252979 1.0
C      1  0.6296788680340  0.4310274737819  0.5588383197725 1.0
C      1  0.7628741597755  0.4149501908184  0.8813356023382 1.0
C      1  0.5390776815403  0.1373409009708  0.4039781434408 1.0
C      1  0.4555455709454  0.5984412638409  0.7452716854270 1.0
C      1  0.4523411314359  0.7592838067124  0.3608114053129 1.0
C      1  0.2780360119333  0.9463710897493  0.4299035079730 1.0
C      1  0.1986680464585  0.6551891674706  0.1923934757424 1.0
C      1  0.8535985897151  0.8479176723543  0.4422946160770 1.0
C      1  0.4375284256560  0.5323095144332  0.3271112882789 1.0
C      1  0.1770770402862  0.1536428321038  0.6171450706028 1.0
C      1  0.5119844275361  0.9344046584374  0.3330011878872 1.0
C      1  0.7403733574297  0.3554195532167  0.6622356226868 1.0
C      1  0.1491084562836  0.5028580737352  0.7204841386254 1.0
C      1  0.4129592345978  0.6294258294996  0.9620108302458 1.0
C      1  0.6401439552459  0.4524543796829  0.4050640740897 1.0
C      1  0.1817646642801  0.9398552079761  0.3945821097081 1.0
C      1  0.7177610032123  0.7289167106891  0.9261865072644 1.0
C      1  0.4998930137179  0.0991706634248  0.5603540227869 1.0
C      1  0.2849967596115  0.8466038354573  0.6711441658558 1.0
C      1  0.5380961444368  0.7468989134500  0.4890387327344 1.0
C      1  0.2809272896095  0.6161811180101  0.3306048546553 1.0
C      1  0.4036192543344  0.5259976774633  0.6943891276909 1.0
C      1  0.3679728990355  0.6319322202731  0.1977871558244 1.0
C      1  0.3290598227042  0.8037451592643  0.5282843203291 1.0
C      1  0.6120735409869  0.8894619543898  0.4689380465957 1.0
C      1  0.0564168819903  0.5347550508589  0.2052866257396 1.0
C      1  0.3894899409316  0.2408664989570  0.5647689802143 1.0
C      1  0.8407659944548  0.4942575827826  0.6420523018235 1.0
C      1  0.6936842617075  0.4833455273109  0.4926381359099 1.0
C      1  0.0395446378200  0.3535680346369  0.7735755094778 1.0
C      1  0.5204687563690  0.4280667471657  0.0484833916622 1.0
C      1  0.4242826871845  0.4274782410237  0.2925882175498 1.0
C      1  0.6994118549106  0.4492350527881  0.8025850653199 1.0
C      1  0.4867121449683  0.0170263254324  0.5098862253488 1.0
C      1  0.1037937389217  0.5643612214101  0.6647763514028 1.0
C      1  0.8098933901685  0.6006330912699  0.2479852713749 1.0
C      1  0.4626930271401  0.7878412594274  0.4461031472622 1.0
C      1  0.6367041302178  0.4814468002332  0.2506572036443 1.0
C      1  0.8541084693521  0.7688582705549  0.2901646479857 1.0
C      1  0.8665342141511  0.7166820456588  0.6375308781551 1.0
C      1  0.6477571353425  0.6642834283434  0.2227533218394 1.0
C      1  0.6002268759336  0.3159422866872  0.2646737719740 1.0
C      1  0.7109213813819  0.8551516215543  0.5939485441709 1.0
C      1  0.4543178352822  0.2070513387710  0.9187290858156 1.0
C      1  0.7821799481416  0.1829965934105  0.7532608157925 1.0
C      1  0.7361636252069  0.4417575268090  0.2733056701474 1.0
C      1  0.7779160730447  0.4354114340827  0.4511474802210 1.0
C      1  0.4394158375228  0.2598499810042  0.4735475347330 1.0
C      1  0.3737900426483  0.7641816269994  0.2977091710076 1.0
C      1  0.3125092273802  0.5009368862118  0.8567383039503 1.0
C      1  0.2032553078418  0.3019009096369  0.8288044319798 1.0
C      1  0.5772129523270  0.1402786845673  0.4951525727378 1.0
C      1  0.4200453715396  0.0153355308087  0.4468904530142 1.0
C      1  0.4939534064976  0.3566476036723  0.1183203577096 1.0
C      1  0.7508995390366  0.5380467223832  0.0679624844490 1.0
C      1  0.8377695899869  0.2903361849850  0.4805444297771 1.0
C      1  0.5928645773694  0.2345891959862  0.5133674022888 1.0
C      1  0.2184645518725  0.7470552713636  0.2355860892736 1.0
C      1  0.4086127846128  0.7196770951983  0.2165385810411 1.0
C      1  0.1729776726923  0.3905361049316  0.8637702169576 1.0
C      1  0.0782465455481  0.5990291977875  0.4888805782575 1.0
C      1  0.3182783931038  0.2988757746414  0.1393971302585 1.0
C      1  0.5774650305050  0.9504726731454  0.6264684643538 1.0
C      1  0.5585332587425  0.8669291709204  0.8128635982918 1.0
C      1  0.8208898836392  0.3979304034634  0.6138071122686 1.0
C      1  0.6370420493655  0.8658747955919  0.7505094526260 1.0
C      1  0.2882130528205  0.6615949752419  0.6170758314305 1.0
C      1  0.3344275840261  0.5339392585841  0.6045923947927 1.0
C      1  0.6864027142720  0.4869141201231  0.0153134635050 1.0
C      1  0.5958730794130  0.3029121317375  0.1091594184828 1.0
C      1  0.9617297766087  0.5418272314504  0.2016400542728 1.0
C      1  0.1178071830939  0.3438894979843  0.2587471915236 1.0
C      1  0.1667905177258  0.8137144282082  0.5293464470920 1.0
C      1  0.6959455284754  0.4216886958450  0.9531482710086 1.0
C      1  0.5933741667255  0.5224583891362  0.1596565681262 1.0
C      1  0.7544037608597  0.8695858161479  0.2927660414406 1.0
C      1  0.2633135139654  0.4651091574661  0.6091420200085 1.0
C      1  0.8146567838823  0.7045386913835  0.7886957670291 1.0
C      1  0.6425124057830  0.6215595600073  0.3791736595255 1.0
C      1  0.0447698572402  0.5919510583479  0.7504663369230 1.0
C      1  0.2775292852054  0.5997777199279  0.2241619293511 1.0
END
