TITL C-186558-367-33 -1.526 3375.00 -246.28275518 0 0 31 (C1) n - 1
REM
REM Run started: at 2020.12.05 02:30:58 in /rds/project/t2_vol4/rds-t2-cs072/BORA/CARBON/AIRSS/Generating-Clusters/Str-Search/Only-C1/C10-100
REM VASP from code version vasp.5.4.4.18Apr17-6-g9f103f2a35 (build Oct 11 2019 16:45:47) gamma-only
REM
REM
REM
REM
REM ./C.cell (67c5d0192afd7a3ce4a0888e5fe73b87)
REM AIRSS Version 0.9.1 bugfix July 2018 build 013d7b7c2542+ Fri, 06 Jul 2018 19:26:36 +0100
REM compiler GCC version 4.8.5 20150623 (Red Hat 4.8.5-39)
REM options -cpp -mtune=generic -march=x86-64 -g -O0
REM seed -432254195 1745295779 1642913663 116886127 393275245 966329895 491788403 -974263578 200579569 -407684921 246891227 -718699632
REM
REM C.POTCAR (d86ddea03c3ceb6dc662c8ad6801f873)
REM 
CELL 1.54180   15.00000   15.00000   15.00000   90.00000   90.00000   90.00000
LATT -1
SFAC C  
C      1  0.5925782513653  0.3477891807665  0.6262876899147 1.0
C      1  0.3695014101296  0.6460883909360  0.5358509163387 1.0
C      1  0.3772767333287  0.4216983847862  0.4071536468593 1.0
C      1  0.4492931971190  0.6631904067476  0.4903522157273 1.0
C      1  0.4955567157198  0.6018037329447  0.6262262177835 1.0
C      1  0.6203726564277  0.5112819203914  0.4454302197271 1.0
C      1  0.4419551834434  0.5595181983839  0.3466810967448 1.0
C      1  0.6877463011365  0.4558034030504  0.5648394054277 1.0
C      1  0.5272822339258  0.4198955122445  0.3403844173261 1.0
C      1  0.7203481594248  0.4940621526445  0.4857159970409 1.0
C      1  0.6810650897581  0.3936757250374  0.6384553853495 1.0
C      1  0.5635561661138  0.5918611222155  0.4622612970997 1.0
C      1  0.4697825981075  0.3561194577811  0.4910236217404 1.0
C      1  0.5662339322421  0.4808910162776  0.7288480441996 1.0
C      1  0.4667925798224  0.3830920172985  0.3977206757351 1.0
C      1  0.5981037547507  0.5408714520186  0.2748634966899 1.0
C      1  0.5507457153352  0.3693688052979  0.5414081742190 1.0
C      1  0.6028271087401  0.4792647693936  0.3506811304646 1.0
C      1  0.5099315095015  0.5073662220265  0.2998390707742 1.0
C      1  0.3985465737167  0.5957641691439  0.6136794164585 1.0
C      1  0.5370338086058  0.5464560588088  0.6869059075375 1.0
C      1  0.3589307106127  0.5112143946114  0.6229149819569 1.0
C      1  0.4824671652072  0.6168993851603  0.4098404088063 1.0
C      1  0.3799577145444  0.3922680826274  0.5037186500730 1.0
C      1  0.6090653728556  0.4038481733566  0.6993890942873 1.0
C      1  0.5282188174495  0.6357811298403  0.5418377490400 1.0
C      1  0.3527668881015  0.4422776445839  0.5764711941613 1.0
C      1  0.2968631993185  0.6205175265950  0.4803361368218 1.0
C      1  0.2962419678388  0.5631221301364  0.4211031205635 1.0
C      1  0.3598468423030  0.5094969960102  0.3769980272732 1.0
C      1  0.6091113430545  0.4387127388833  0.5127828938585 1.0
END
