TITL C-186558-367-12 -1.355 3375.00 -209.29557358 0 0 27 (C1) n - 1
REM
REM Run started: at 2020.12.04 20:18:05 in /rds/project/t2_vol4/rds-t2-cs072/BORA/CARBON/AIRSS/Generating-Clusters/Str-Search/Only-C1/C10-100
REM VASP from code version vasp.5.4.4.18Apr17-6-g9f103f2a35 (build Oct 11 2019 16:45:47) gamma-only
REM
REM
REM
REM
REM ./C.cell (67c5d0192afd7a3ce4a0888e5fe73b87)
REM AIRSS Version 0.9.1 bugfix July 2018 build 013d7b7c2542+ Fri, 06 Jul 2018 19:26:36 +0100
REM compiler GCC version 4.8.5 20150623 (Red Hat 4.8.5-39)
REM options -cpp -mtune=generic -march=x86-64 -g -O0
REM seed 1012581401 1992822883 411931416 -1194836818 -1454423473 1792425468 -1734190555 -717585979 -1640105161 111213458 -240296674 -1081947089
REM
REM C.POTCAR (d86ddea03c3ceb6dc662c8ad6801f873)
REM 
CELL 1.54180   15.00000   15.00000   15.00000   90.00000   90.00000   90.00000
LATT -1
SFAC C  
C      1  0.4165746930848  0.5102853442729  0.7246873928810 1.0
C      1  0.4329936539528  0.3904068181941  0.2875616987453 1.0
C      1  0.4937502119422  0.5780629305306  0.5914393866739 1.0
C      1  0.5997595460776  0.4151733597537  0.6703978614044 1.0
C      1  0.4672600621730  0.5582614919070  0.6769335606243 1.0
C      1  0.4198158048775  0.5691075366672  0.5213827017581 1.0
C      1  0.5626881724553  0.5986719277750  0.4542792783143 1.0
C      1  0.3943250826938  0.4479931524880  0.4218225718345 1.0
C      1  0.4449188183938  0.3628301747485  0.6396549862493 1.0
C      1  0.3863058424874  0.4705947644709  0.5118966946000 1.0
C      1  0.3839294075174  0.6468982708633  0.4764780588862 1.0
C      1  0.7037289581956  0.5292322939168  0.4693017022036 1.0
C      1  0.4802492526897  0.4773559548436  0.2951897665467 1.0
C      1  0.6415062690923  0.5699150118983  0.4061074307033 1.0
C      1  0.3815682219132  0.7058818430467  0.4136544189100 1.0
C      1  0.6650329254410  0.5310807348507  0.5533417270630 1.0
C      1  0.4412096180155  0.5170963597122  0.3730769280979 1.0
C      1  0.5951093836884  0.3773037079367  0.5730925248085 1.0
C      1  0.3937663734683  0.3724377896694  0.3596904498495 1.0
C      1  0.5369071743086  0.3456181819339  0.6397318991150 1.0
C      1  0.6529748205763  0.4481252169326  0.6027431353362 1.0
C      1  0.3938066279332  0.4303133339778  0.6814412865953 1.0
C      1  0.5624664282223  0.5122965524916  0.2721647299686 1.0
C      1  0.6226896611968  0.5487065126676  0.3182660218034 1.0
C      1  0.3827978129775  0.4139836671063  0.5887989645242 1.0
C      1  0.5766306774700  0.5811884408607  0.5462071738729 1.0
C      1  0.4672344991558  0.5911787264840  0.4306575486306 1.0
END
