TITL C-186558-367-1 -0.769 3375.00 -113.33261505 0 0 15 (C1) n - 1
REM
REM Run started: at 2020.12.04 15:47:28 in /rds/project/t2_vol4/rds-t2-cs072/BORA/CARBON/AIRSS/Generating-Clusters/Str-Search/Only-C1/C10-100
REM VASP from code version vasp.5.4.4.18Apr17-6-g9f103f2a35 (build Oct 11 2019 16:45:47) gamma-only
REM
REM
REM
REM
REM ./C.cell (67c5d0192afd7a3ce4a0888e5fe73b87)
REM AIRSS Version 0.9.1 bugfix July 2018 build 013d7b7c2542+ Fri, 06 Jul 2018 19:26:36 +0100
REM compiler GCC version 4.8.5 20150623 (Red Hat 4.8.5-39)
REM options -cpp -mtune=generic -march=x86-64 -g -O0
REM seed -2008196859 -117502635 -2013595748 1450463755 -11310894 -1020682391 452855283 1064676752 1627199237 -1500009456 -1187815913 -1413505363
REM
REM C.POTCAR (d86ddea03c3ceb6dc662c8ad6801f873)
REM 
CELL 1.54180   15.00000   15.00000   15.00000   90.00000   90.00000   90.00000
LATT -1
SFAC C  
C      1  0.6600307929162  0.3816661943753  0.5327622150034 1.0
C      1  0.6179838043440  0.4619015947390  0.5302680375762 1.0
C      1  0.5041094210771  0.3677717659740  0.4402866405151 1.0
C      1  0.4337685517372  0.5534484874544  0.3509701255957 1.0
C      1  0.4537390714056  0.5701156833304  0.4406389519338 1.0
C      1  0.3979334890940  0.4870348567024  0.5781930786981 1.0
C      1  0.4909311362017  0.6048061515203  0.6621989268608 1.0
C      1  0.4161877315237  0.4887543758242  0.4898935307700 1.0
C      1  0.5749582649056  0.3774793879522  0.4901872040571 1.0
C      1  0.5952379501649  0.5513563326345  0.5309170766206 1.0
C      1  0.4195033417893  0.4690820265125  0.3361412771233 1.0
C      1  0.5287059667210  0.6064605312851  0.4889975613312 1.0
C      1  0.4314174925426  0.5494051815646  0.6301385475543 1.0
C      1  0.5421740839654  0.6126379305459  0.5829847071922 1.0
C      1  0.4333191016118  0.4180794995851  0.4154219191680 1.0
END
