TITL C-19563-4857-4 -6.32 3375.00 -1061.47762743 0 0 130 (C1) n - 1
REM
REM Run started: at 2021.01.18 01:47:33 in /rds/project/t2_vol4/rds-t2-cs072/BORA/CARBON/AIRSS/Generating-Clusters/Str-Search/Only-C1/C100-200
REM VASP from code version vasp.5.4.4.18Apr17-6-g9f103f2a35 (build Oct 11 2019 16:45:47) gamma-only
REM
REM
REM
REM
REM ./C.cell (efaf0b2bf1589a83377268d7ebe2c73f)
REM AIRSS Version 0.9.1 bugfix July 2018 build 013d7b7c2542+ Fri, 06 Jul 2018 19:26:36 +0100
REM compiler GCC version 4.8.5 20150623 (Red Hat 4.8.5-39)
REM options -cpp -mtune=generic -march=x86-64 -g -O0
REM seed -707444464 -1574971856 1954721165 657710604 -150567608 1513965422 65809118 1173435183 -408275952 -779322088 710196688 -9380830
REM
REM C.POTCAR (d86ddea03c3ceb6dc662c8ad6801f873)
REM 
CELL 1.54180   15.00000   15.00000   15.00000   90.00000   90.00000   90.00000
LATT -1
SFAC C  
C      1  0.2626031716855  0.4645574988484  0.3500532458765 1.0
C      1  0.2444427424302  0.5593829340963  0.3512556953543 1.0
C      1  0.2444976028096  0.6751044864735  0.6238106963320 1.0
C      1  0.5165872382030  0.3906467989671  0.4284095054812 1.0
C      1  0.6183070497280  0.6526072015108  0.8043982166280 1.0
C      1  0.4900801756339  0.9598945892337  0.4319208459659 1.0
C      1  0.2855383121054  0.2847162627381  0.3805173037314 1.0
C      1  0.7724099766780  0.4251769024392  0.2935521516585 1.0
C      1  0.1583920569925  0.5029581028563  0.4719302830681 1.0
C      1  0.6463712247529  0.4377738088233  0.2107961545508 1.0
C      1  0.4875145879556  0.5746163889402  0.7207817075403 1.0
C      1  0.4178078084359  0.3629368787894  0.8023401282185 1.0
C      1  0.3414692661216  0.2433682678950  0.5228201579812 1.0
C      1  0.6137491205205  0.1979674028640  0.5429956579824 1.0
C      1  0.3638836962767  0.2725684416539  0.6698042838578 1.0
C      1  0.7725388119121  0.3013446076796  0.5064377065102 1.0
C      1  0.6459889202582  0.5438057376502  0.3641746031121 1.0
C      1  0.3439656057614  0.7261890398829  0.4862161453329 1.0
C      1  0.4952440824151  0.3914163988875  0.1645262916711 1.0
C      1  0.4853422593725  0.6622437143327  0.6754590200181 1.0
C      1  0.2673083876033  0.2483366267123  0.4644508508497 1.0
C      1  0.1726634474410  0.5770302963467  0.4158370397254 1.0
C      1  0.4052591636473  0.6580871686341  0.6151282100312 1.0
C      1  0.2078387956270  0.4861925740450  0.6312576978752 1.0
C      1  0.4400841524917  0.1214475155358  0.4797642417037 1.0
C      1  0.3309766649326  0.4194975056764  0.3077457033500 1.0
C      1  0.8094898041497  0.5535622805342  0.4208661494831 1.0
C      1  0.4714491334148  0.5514931251500  0.3704649074934 1.0
C      1  0.7954693723361  0.5000780131632  0.6285390424698 1.0
C      1  0.3337097466989  0.4060051606968  0.7489863307355 1.0
C      1  0.6266606879824  0.5107992047414  0.5373095042254 1.0
C      1  0.3668032617744  0.3950430438288  0.4650522262729 1.0
C      1  0.3308902490603  0.7258511785831  0.5907110958292 1.0
C      1  0.5373782652274  0.5100171976464  0.6689767023572 1.0
C      1  0.5669843958854  0.6533544321029  0.6122540205254 1.0
C      1  0.5014357417972  0.8616737425027  0.4235397423799 1.0
C      1  0.5130486520748  0.5106418266435  0.2875463439319 1.0
C      1  0.4181532701953  0.8683973481119  0.5746209052508 1.0
C      1  0.4146366286403  0.3141664915887  0.5038396547080 1.0
C      1  0.2968755937781  0.4938297920681  0.7707136727585 1.0
C      1  0.4068065034200  0.3556183848456  0.1746130810861 1.0
C      1  0.4250065799510  0.4127116541696  0.7054274944971 1.0
C      1  0.6782019756164  0.3843780831122  0.6386392152073 1.0
C      1  0.5914584335863  0.5643722802977  0.6088358634217 1.0
C      1  0.3550883769549  0.5610851879023  0.8040280093796 1.0
C      1  0.5613100349821  0.7191058735395  0.8083228985087 1.0
C      1  0.4636645790825  0.8961042846568  0.4994469281979 1.0
C      1  0.4410177589683  0.5089356214710  0.5383608501127 1.0
C      1  0.4655832357816  0.4811823310885  0.2033010382871 1.0
C      1  0.3002736991578  0.3499724896984  0.6709042436475 1.0
C      1  0.8229987051940  0.4660946766534  0.4574677449037 1.0
C      1  0.4782614545294  0.0504645542546  0.4229294734070 1.0
C      1  0.2579916034229  0.4044916831738  0.6036029512100 1.0
C      1  0.4169067990455  0.5974253780267  0.5417451378417 1.0
C      1  0.1896369330122  0.6560850813661  0.4657040889566 1.0
C      1  0.6602743383544  0.7515628764987  0.5125026034009 1.0
C      1  0.2672193370171  0.6965173696316  0.4225123355024 1.0
C      1  0.6564975144408  0.3078068870642  0.3978362425413 1.0
C      1  0.6873607930551  0.5269152503488  0.1962181424964 1.0
C      1  0.4669013450743  0.4480819063002  0.6150848317391 1.0
C      1  0.4558744024208  0.3098530517833  0.4094593240593 1.0
C      1  0.6009812299248  0.4656347681555  0.3085370450300 1.0
C      1  0.4005307209048  0.7909711756003  0.2612677445813 1.0
C      1  0.4430683265053  0.7307917722846  0.3255728343852 1.0
C      1  0.5764151126408  0.4483935786116  0.7436293386807 1.0
C      1  0.5997418004825  0.3689147462380  0.6957770878588 1.0
C      1  0.5901070646307  0.3819136780182  0.3616605113036 1.0
C      1  0.6366895699749  0.3063861075944  0.2322719888336 1.0
C      1  0.2152308015819  0.4273682593405  0.4376201096682 1.0
C      1  0.7875088871650  0.6661308902621  0.5931090755775 1.0
C      1  0.2362306060268  0.5340727425635  0.7091633678284 1.0
C      1  0.3062244248491  0.6276480541263  0.3601094688611 1.0
C      1  0.4815920002117  0.4440582108718  0.7895581490721 1.0
C      1  0.7262787214382  0.4619164541493  0.6848466315077 1.0
C      1  0.8252923916831  0.4408315308946  0.5532396757229 1.0
C      1  0.6370091679089  0.4168948764878  0.5516702675272 1.0
C      1  0.5251443686894  0.5639316502339  0.1999800379397 1.0
C      1  0.6396266727315  0.7820486762280  0.2595471820225 1.0
C      1  0.4423028858885  0.3096503062024  0.7184453646157 1.0
C      1  0.4868371815084  0.1457626655862  0.4045291800710 1.0
C      1  0.4913685599117  0.3504720586666  0.5762339895262 1.0
C      1  0.7100035713796  0.3703463268927  0.2419246665796 1.0
C      1  0.2071048270482  0.3176502517242  0.4226128413819 1.0
C      1  0.5953298668462  0.2653870583612  0.4693551244998 1.0
C      1  0.7327576198231  0.3018124900499  0.6035184521148 1.0
C      1  0.2811123604713  0.4104182156718  0.5084389710986 1.0
C      1  0.1683512937090  0.5365301022938  0.5623998420290 1.0
C      1  0.7957574864090  0.4026443914074  0.3863478729268 1.0
C      1  0.8198966431203  0.3459296259243  0.5696662826585 1.0
C      1  0.6758002316290  0.2225147828672  0.6154751831394 1.0
C      1  0.5827696251579  0.3692345535888  0.1762431686483 1.0
C      1  0.5651870312561  0.3572293643800  0.5118341684782 1.0
C      1  0.3098410152276  0.7857235539831  0.4150161683235 1.0
C      1  0.7533623420553  0.7244146005417  0.5337350523714 1.0
C      1  0.6704430840276  0.5004805775853  0.7541095523311 1.0
C      1  0.5829099454916  0.2213112471920  0.6488087472335 1.0
C      1  0.4224036732253  0.6642687703928  0.4656143079509 1.0
C      1  0.6199012100312  0.7703576711769  0.3457403434218 1.0
C      1  0.3623849545115  0.3449745126493  0.3702444322338 1.0
C      1  0.5975236402641  0.2843798667238  0.3213004798454 1.0
C      1  0.5309203410717  0.3044515944147  0.6689128221731 1.0
C      1  0.3723207995754  0.2040335425593  0.6068989683754 1.0
C      1  0.7944967287028  0.6387735066860  0.3969356892010 1.0
C      1  0.1889222741124  0.6337076268150  0.5582772924108 1.0
C      1  0.3763834553927  0.4310050876418  0.2217636623830 1.0
C      1  0.7668612075833  0.7203257453726  0.4357720907009 1.0
C      1  0.8070502280929  0.5910675852529  0.6243348057476 1.0
C      1  0.7612076967460  0.5183876603221  0.2616587115673 1.0
C      1  0.6171623513380  0.5454010755747  0.4543336176465 1.0
C      1  0.5395092648097  0.1569540438033  0.5936851000110 1.0
C      1  0.4477912261094  0.1520113403057  0.5734449072491 1.0
C      1  0.7448539636423  0.5708168353369  0.3438128236171 1.0
C      1  0.4067865588776  0.6350385478156  0.3664743733315 1.0
C      1  0.4469441496461  0.4679693206429  0.4464224422786 1.0
C      1  0.5216882835008  0.7688355181526  0.3835266658471 1.0
C      1  0.6108398233344  0.5747265681675  0.1789989328441 1.0
C      1  0.3281646593682  0.6485370787163  0.7700708399285 1.0
C      1  0.3646102611582  0.8163077734330  0.6103015790952 1.0
C      1  0.4465908683085  0.5365327534540  0.7932140435823 1.0
C      1  0.2542370618122  0.6303975577037  0.7065673283438 1.0
C      1  0.7485802919989  0.3271670829087  0.4218197671668 1.0
C      1  0.5567455641013  0.6029658760235  0.4092972116178 1.0
C      1  0.5809584197351  0.7125374173877  0.5354609603019 1.0
C      1  0.6703947092475  0.5839090505457  0.7924506554423 1.0
C      1  0.5256015993024  0.2374752966194  0.3888982178752 1.0
C      1  0.5223030364203  0.6939362649912  0.4547719223655 1.0
C      1  0.6832463817295  0.7619668897644  0.4173733806512 1.0
C      1  0.3879572054548  0.7185659681487  0.7791165923019 1.0
C      1  0.4784446897626  0.7169859479063  0.7636140354971 1.0
C      1  0.3552226548489  0.7962638832542  0.3358892113346 1.0
END
