TITL C-191355-4848-27 -1.925 3375.00 -320.99858130 0 0 39 (C1) n - 1
REM
REM Run started: at 2020.12.24 04:14:13 in /rds/project/t2_vol4/rds-t2-cs072/BORA/CARBON/AIRSS/Generating-Clusters/Str-Search/Only-C1/C10-100
REM VASP from code version vasp.5.4.4.18Apr17-6-g9f103f2a35 (build Oct 11 2019 16:45:47) gamma-only
REM
REM
REM
REM
REM ./C.cell (67c5d0192afd7a3ce4a0888e5fe73b87)
REM AIRSS Version 0.9.1 bugfix July 2018 build 013d7b7c2542+ Fri, 06 Jul 2018 19:26:36 +0100
REM compiler GCC version 4.8.5 20150623 (Red Hat 4.8.5-39)
REM options -cpp -mtune=generic -march=x86-64 -g -O0
REM seed -365871489 -1529579279 761604048 -1176148977 1095349137 -370103341 1390195279 -1367691033 -472755310 -1146352956 -97007034 887057812
REM
REM C.POTCAR (d86ddea03c3ceb6dc662c8ad6801f873)
REM 
CELL 1.54180   15.00000   15.00000   15.00000   90.00000   90.00000   90.00000
LATT -1
SFAC C  
C      1  0.6224982278348  0.5997708978501  0.5407439685260 1.0
C      1  0.5453492527342  0.4891979160909  0.7275852408085 1.0
C      1  0.4084468773111  0.4500548666712  0.3616258288311 1.0
C      1  0.4879548263801  0.6656099701987  0.3785467122956 1.0
C      1  0.4058773384216  0.3803718163794  0.4264036661803 1.0
C      1  0.5184707114605  0.4116538469596  0.6852376502026 1.0
C      1  0.5658548284064  0.3781547932283  0.6077189866152 1.0
C      1  0.6109499775366  0.5470035645540  0.6860018299220 1.0
C      1  0.4847505960095  0.4469500062035  0.2996674197068 1.0
C      1  0.3985772876781  0.5147915662219  0.6800861464648 1.0
C      1  0.6877741222057  0.4509327947015  0.4076684171438 1.0
C      1  0.4986201253408  0.3435460285774  0.5468925881102 1.0
C      1  0.4243068750429  0.4231045785562  0.6613673427237 1.0
C      1  0.5165712823031  0.5388735034193  0.2847215277189 1.0
C      1  0.3221815653049  0.5737415094273  0.5334656630456 1.0
C      1  0.6742508090770  0.4081408876292  0.4911662286628 1.0
C      1  0.6467048364352  0.3640217684772  0.4136513208517 1.0
C      1  0.4753680948555  0.5583462704160  0.7187793138925 1.0
C      1  0.3862154585438  0.5456325035912  0.3752195914565 1.0
C      1  0.3280674310901  0.5477675555437  0.6230087283932 1.0
C      1  0.6632272107361  0.5366780884879  0.3832013561299 1.0
C      1  0.6472290610981  0.5250842313827  0.6028252450665 1.0
C      1  0.2649925525048  0.4209897305197  0.5141141699616 1.0
C      1  0.5422216017594  0.3753230627602  0.2967057748713 1.0
C      1  0.5809936033000  0.6494688890538  0.3787286788896 1.0
C      1  0.5991090641700  0.5722576261704  0.3192784334000 1.0
C      1  0.6368097095733  0.6080079387821  0.4484756802281 1.0
C      1  0.3519313903344  0.3865828660933  0.5066202501219 1.0
C      1  0.4771346707505  0.6790678176650  0.5405711929993 1.0
C      1  0.4917200769221  0.3396329685518  0.4496062686399 1.0
C      1  0.2737288458079  0.4969029412623  0.5644956959548 1.0
C      1  0.3689801782532  0.5967025723158  0.4561811797903 1.0
C      1  0.5484647697285  0.6509064006090  0.5879333776413 1.0
C      1  0.5437493146711  0.6171438345285  0.6789730186790 1.0
C      1  0.6413705696543  0.4309914513255  0.5748737382033 1.0
C      1  0.5595563639820  0.3394276734401  0.3831585268502 1.0
C      1  0.4375567479490  0.6675354498364  0.4608137868007 1.0
C      1  0.4498280645113  0.5962875024770  0.3232808176868 1.0
C      1  0.4126057803220  0.3733423100417  0.5806046365336 1.0
END
