TITL C-193553-3116-10 -4.337 3375.00 -742.02795752 0 0 92 (C1) n - 1
REM
REM Run started: at 2020.12.26 15:41:26 in /rds/project/t2_vol4/rds-t2-cs072/BORA/CARBON/AIRSS/Generating-Clusters/Str-Search/Only-C1/C10-100
REM VASP from code version vasp.5.4.4.18Apr17-6-g9f103f2a35 (build Oct 11 2019 16:45:47) gamma-only
REM
REM
REM
REM
REM ./C.cell (67c5d0192afd7a3ce4a0888e5fe73b87)
REM AIRSS Version 0.9.1 bugfix July 2018 build 013d7b7c2542+ Fri, 06 Jul 2018 19:26:36 +0100
REM compiler GCC version 4.8.5 20150623 (Red Hat 4.8.5-39)
REM options -cpp -mtune=generic -march=x86-64 -g -O0
REM seed 215469299 -560673061 -618580378 -1477517708 -515486133 1090462495 -997296616 1044588587 1936246013 -2073226093 1390134277 -71765287
REM
REM C.POTCAR (d86ddea03c3ceb6dc662c8ad6801f873)
REM 
CELL 1.54180   15.00000   15.00000   15.00000   90.00000   90.00000   90.00000
LATT -1
SFAC C  
C      1  0.3896413054721  0.4045944573495  0.7972808156499 1.0
C      1  0.5235177415293  0.4389309591667  0.5334961830211 1.0
C      1  0.7004511292554  0.4979654910491  0.5657462487466 1.0
C      1  0.4906396987928  0.3771989248964  0.4108785806104 1.0
C      1  0.3345924738679  0.4762641693739  0.7689904498772 1.0
C      1  0.4623312932079  0.3520521434184  0.5067866401667 1.0
C      1  0.5684248483130  0.2634511367129  0.5894053007855 1.0
C      1  0.6107580948712  0.4743976965915  0.7269439409252 1.0
C      1  0.5034690756694  0.4699000137870  0.4363603835154 1.0
C      1  0.6223730501738  0.4573090046109  0.5446951997926 1.0
C      1  0.4933581815756  0.7707305422168  0.6325818999090 1.0
C      1  0.5702956580469  0.5252720380342  0.3983877190288 1.0
C      1  0.3777886789676  0.4760953293894  0.5700509901703 1.0
C      1  0.6132962033347  0.3957880039741  0.1970445417369 1.0
C      1  0.7055041048673  0.3328068632065  0.5334856354115 1.0
C      1  0.5819000565027  0.4673524536811  0.1662522234109 1.0
C      1  0.2791590327917  0.7112018189054  0.4351456451450 1.0
C      1  0.2814827916259  0.4482064753845  0.6902433195516 1.0
C      1  0.4866076771040  0.2182295043998  0.4372429868634 1.0
C      1  0.2656309737120  0.5223050506909  0.4324232708328 1.0
C      1  0.4564396218700  0.7036570664725  0.6794609456376 1.0
C      1  0.6908919802380  0.4035144351440  0.5986669619503 1.0
C      1  0.5894522005198  0.5741427274415  0.7026420619509 1.0
C      1  0.5650475157346  0.3201738696221  0.6744437343757 1.0
C      1  0.3957217046723  0.6191521469767  0.2827889970181 1.0
C      1  0.3454496953108  0.4701276771366  0.4694932967361 1.0
C      1  0.2190009388053  0.3316780604202  0.4853361102490 1.0
C      1  0.4936134445478  0.2600214137601  0.5286464611732 1.0
C      1  0.3444804804692  0.5927806002799  0.6612459905807 1.0
C      1  0.7182395804711  0.5945250352199  0.3516855274869 1.0
C      1  0.4926894846565  0.3296399582606  0.7376337994535 1.0
C      1  0.7024362787906  0.3403782928299  0.4325463073522 1.0
C      1  0.6974279467539  0.4041748902096  0.3607648619861 1.0
C      1  0.6000503650914  0.5896194209454  0.4564958103910 1.0
C      1  0.2748178366346  0.3491011389120  0.5543227133693 1.0
C      1  0.6149282829139  0.3898610557966  0.2985039112835 1.0
C      1  0.4459972012600  0.7043100163396  0.3122369174165 1.0
C      1  0.7334077967925  0.6562828474389  0.5186146901730 1.0
C      1  0.4446801936330  0.3677345031658  0.3243919796792 1.0
C      1  0.5883778220061  0.6329572144548  0.2438012611489 1.0
C      1  0.6311110731798  0.3944282932625  0.6781235526271 1.0
C      1  0.5431000456444  0.3330209572682  0.3384678315768 1.0
C      1  0.6519271991905  0.6456394482190  0.6967179817389 1.0
C      1  0.5405110372509  0.4805345388766  0.7905640934832 1.0
C      1  0.4451138328225  0.6322048551083  0.5155586582556 1.0
C      1  0.7665610250409  0.5674079979784  0.5530775496544 1.0
C      1  0.6892713845624  0.7261249696700  0.5628542792841 1.0
C      1  0.2602951289170  0.3596434437192  0.6529054698484 1.0
C      1  0.3087148275445  0.5892952121967  0.3191407141419 1.0
C      1  0.3096105209472  0.5130829047925  0.6275439131653 1.0
C      1  0.3203985638995  0.2754467616272  0.7198337703042 1.0
C      1  0.2343383434758  0.2831392531854  0.7073930620336 1.0
C      1  0.4855689113780  0.4074624460458  0.7971080149493 1.0
C      1  0.5364882177795  0.7022418193599  0.2859821871819 1.0
C      1  0.2864851938048  0.3237358026622  0.3254910230169 1.0
C      1  0.4161882621633  0.5055543777463  0.4116703535730 1.0
C      1  0.4229848682523  0.6348258342569  0.6153444528737 1.0
C      1  0.6118551058726  0.7332521562312  0.3397206265784 1.0
C      1  0.6650922038178  0.6557031524819  0.3010366529136 1.0
C      1  0.6797469540111  0.7110474148473  0.6564963590785 1.0
C      1  0.5221503228005  0.5754208711800  0.7788450064041 1.0
C      1  0.5011037926714  0.7957678056456  0.4447755224206 1.0
C      1  0.3012941552109  0.6166274086584  0.4189540207376 1.0
C      1  0.6487739523851  0.2561493998033  0.5353600063939 1.0
C      1  0.5672353792501  0.2471932645035  0.3866382660738 1.0
C      1  0.6194624399234  0.7715811156774  0.5163187147872 1.0
C      1  0.3954534675186  0.3140496667320  0.7534504301397 1.0
C      1  0.4511394941651  0.5414263323634  0.2585762448269 1.0
C      1  0.2461870734650  0.4072678128962  0.3242463903469 1.0
C      1  0.4282808251517  0.7681931735344  0.3887681942914 1.0
C      1  0.5927425127606  0.7736106897272  0.4217791128812 1.0
C      1  0.6990141969333  0.4999605188389  0.3352897668241 1.0
C      1  0.5518758525855  0.5402449860500  0.2311668403871 1.0
C      1  0.2643638681158  0.5023978760397  0.3376997829716 1.0
C      1  0.4215884138754  0.4684942123731  0.3129683767933 1.0
C      1  0.4073580855919  0.2271582683924  0.3917729497426 1.0
C      1  0.3960260487654  0.5999950817273  0.4439638114006 1.0
C      1  0.5176009079230  0.5743593387381  0.6205713232587 1.0
C      1  0.9398643702642  0.5306495289913  0.5473617425755 1.0
C      1  0.3629105049208  0.3891515017163  0.5243434509808 1.0
C      1  0.3392530270254  0.7659634364032  0.4199072069360 1.0
C      1  0.8567751359895  0.5490520378670  0.5536767354601 1.0
C      1  0.2260559752215  0.3426480952230  0.3975719166768 1.0
C      1  0.5274528112076  0.7905686435217  0.5476627916488 1.0
C      1  0.4461854455494  0.6284385041790  0.7671017234857 1.0
C      1  0.5360604237560  0.6083617910805  0.5284730543095 1.0
C      1  0.6915446840108  0.6201954734046  0.4419733904359 1.0
C      1  0.4720891766625  0.4888660353181  0.5960546555955 1.0
C      1  0.3656374425795  0.5743079327066  0.7518696294264 1.0
C      1  0.6454016217802  0.2593093216596  0.4348048021385 1.0
C      1  0.3765862416650  0.2917207147932  0.3354240117786 1.0
C      1  0.6027974098672  0.4931933730543  0.3104353670291 1.0
END
