TITL C-191496-5079-43 -4.594 3375.00 0 0 0 98 (C1) n - 1
REM
REM Run started: at 2020.03.16 18:38:44 in /rds/user/bk393/hpc-work/AIRSS.pl-DENE/CARBON/New-Try
REM VASP from code version vasp.5.4.4.18Apr17-6-g9f103f2a35 (build Oct 11 2019 16:45:47) gamma-only
REM
REM
REM
REM
REM ./C.cell (9f5935e56d41cf50cb14479ce98dda23)
REM AIRSS Version 0.9.1 bugfix July 2018 build 013d7b7c2542+ Fri, 06 Jul 2018 19:26:36 +0100
REM compiler GCC version 4.8.5 20150623 (Red Hat 4.8.5-39)
REM options -cpp -mtune=generic -march=x86-64 -g -O0
REM seed -1997770898 1271946235 -473408048 190509528 1127162269 1973240180 -768341652 -205694348 -2018033146 -204990555 174557581 1613202603
REM
REM C.POTCAR (d86ddea03c3ceb6dc662c8ad6801f873)
REM 
CELL 1.54180   15.00000   15.00000   15.00000   90.00000   90.00000   90.00000
LATT -1
SFAC C  
C      1  0.5163612425993  0.7513677438819  0.5847673962444 1.0
C      1  0.7129168700408  0.3081612441479  0.5041189920873 1.0
C      1  0.6281162276242  0.4066057793404  0.2652677256027 1.0
C      1  0.3549497452843  0.4617571420196  0.5749084661809 1.0
C      1  0.7093861527238  0.6931185178238  0.4592731511376 1.0
C      1  0.7912729702161  0.5177176865736  0.4624560854925 1.0
C      1  0.4322882315078  0.3143971390822  0.6261948009057 1.0
C      1  0.4678221613062  0.4164083460955  0.2685067157237 1.0
C      1  0.4551201734968  0.7902165611327  0.5196674722361 1.0
C      1  0.5895253444584  0.5010901213192  0.5690089043508 1.0
C      1  0.2877000687792  0.2876838352486  0.5638033791110 1.0
C      1  0.2183303054188  0.5927998443889  0.6419673126699 1.0
C      1  0.4149863692193  0.6179393309949  0.6262629958797 1.0
C      1  0.7271666782684  0.3687263917735  0.4243827095838 1.0
C      1  0.6490680961246  0.4476397803787  0.7707380172743 1.0
C      1  0.6107159458007  0.7523364318474  0.5679946740956 1.0
C      1  0.2775732612206  0.5701545173421  0.7163650588608 1.0
C      1  0.7933908041416  0.4234308371394  0.4746317332640 1.0
C      1  0.7746898963284  0.5648400453857  0.5454635731735 1.0
C      1  0.3383498157321  0.5406436082493  0.3929751159538 1.0
C      1  0.4965097255200  0.6598402926604  0.6172501432127 1.0
C      1  0.5588302404492  0.4190497694298  0.7928808829318 1.0
C      1  0.5741904246049  0.6044162026291  0.5834187789946 1.0
C      1  0.5226776299558  0.2807651975424  0.3146955839000 1.0
C      1  0.6367297077453  0.6529627299648  0.3200410904025 1.0
C      1  0.2619078678675  0.6382165605202  0.4832934305892 1.0
C      1  0.3682496985036  0.7799957780042  0.3105684379176 1.0
C      1  0.4230659106111  0.8207344561162  0.3609649585858 1.0
C      1  0.4880734026321  0.8225588175400  0.4322980596126 1.0
C      1  0.3959425596267  0.6776976353200  0.4150050271784 1.0
C      1  0.6590217066375  0.6712860386053  0.6063396085033 1.0
C      1  0.4695660541963  0.5222225539549  0.4914467233229 1.0
C      1  0.3734820921337  0.7434873923240  0.4972914487053 1.0
C      1  0.5415129441439  0.3320773546714  0.7508982185601 1.0
C      1  0.4815085290975  0.2258656112048  0.4934162182099 1.0
C      1  0.3466181029119  0.6842655250335  0.3257153989763 1.0
C      1  0.4835064456113  0.4382595138131  0.7430198097548 1.0
C      1  0.6403050153022  0.2528372367373  0.5257931140530 1.0
C      1  0.7321460197421  0.6494321313456  0.5404733085447 1.0
C      1  0.3946518699569  0.5545120676081  0.5495496446954 1.0
C      1  0.7661801436658  0.3740123994270  0.5545986582095 1.0
C      1  0.6413379661620  0.4336720873551  0.4263786501386 1.0
C      1  0.5080666128095  0.4379836766409  0.5305058995097 1.0
C      1  0.6006750273181  0.2303174423725  0.3577133941667 1.0
C      1  0.6505943247636  0.5041881757559  0.2565515523526 1.0
C      1  0.3464237465136  0.5106341523526  0.2564395394855 1.0
C      1  0.2097650952370  0.5566758217543  0.4817895208557 1.0
C      1  0.3501957717839  0.6045846783335  0.4634570984955 1.0
C      1  0.7367959701847  0.5633989174586  0.7008529359122 1.0
C      1  0.4280167540033  0.4013642003491  0.5757874961580 1.0
C      1  0.7143776566950  0.6440507105314  0.3763072530721 1.0
C      1  0.5478719057020  0.3989392445565  0.4335080847106 1.0
C      1  0.6394864533933  0.7592700330825  0.4773710047779 1.0
C      1  0.2901991433829  0.7133559698622  0.5359974283821 1.0
C      1  0.2645028814651  0.6839126369275  0.6247493893429 1.0
C      1  0.6123852240662  0.3178147286552  0.6838602848884 1.0
C      1  0.3244580977680  0.5943629446230  0.3064264061690 1.0
C      1  0.4400593541839  0.5108628533714  0.2437879892103 1.0
C      1  0.4986851370923  0.5842661538035  0.2781439842578 1.0
C      1  0.5657206265483  0.3074482650982  0.4035009041495 1.0
C      1  0.4265352887574  0.2823976200671  0.3400856792913 1.0
C      1  0.5643035969678  0.7075949354791  0.3507716784874 1.0
C      1  0.5731008007899  0.2236586283351  0.4559605224541 1.0
C      1  0.2589037378531  0.4470628477624  0.5754457679377 1.0
C      1  0.2363820321328  0.3611372194121  0.5342919174023 1.0
C      1  0.2897814535216  0.4896269539609  0.7577365156462 1.0
C      1  0.5618644336713  0.5723873142954  0.4906107583930 1.0
C      1  0.6835733562569  0.6442064357477  0.6997053144380 1.0
C      1  0.3880793461131  0.3589384279155  0.2911670819605 1.0
C      1  0.4961562146713  0.2529004084931  0.5826113050725 1.0
C      1  0.7477341267444  0.4176787375203  0.6353061815571 1.0
C      1  0.5492145785282  0.3605364493468  0.2574889621466 1.0
C      1  0.3147487434390  0.4178732212508  0.2942700348120 1.0
C      1  0.2970985427947  0.4061320909000  0.7644420952247 1.0
C      1  0.4462524916436  0.3436647622097  0.7248338712623 1.0
C      1  0.5899232713246  0.2658385648695  0.6062970713085 1.0
C      1  0.3329428141197  0.6416018084082  0.6761751224898 1.0
C      1  0.2538783505392  0.3439123015611  0.4382213724384 1.0
C      1  0.4789874831804  0.4370880681134  0.3690683701151 1.0
C      1  0.4034843772726  0.2513790526119  0.4324522114720 1.0
C      1  0.4831316936568  0.6558923891918  0.3466993744975 1.0
C      1  0.2022203416211  0.5283592875926  0.5753823580755 1.0
C      1  0.4245410948463  0.4938506280788  0.4098700750067 1.0
C      1  0.6373933255929  0.6262286163728  0.7821234150873 1.0
C      1  0.6803085399342  0.5346343749893  0.7730041692854 1.0
C      1  0.2477471818506  0.5004446458499  0.4127064584086 1.0
C      1  0.6958357244762  0.4078527199865  0.3398582482237 1.0
C      1  0.3197737691033  0.2749028679139  0.4688357549406 1.0
C      1  0.2549223482114  0.4126200208172  0.3735565767538 1.0
C      1  0.7605086796644  0.5582022436206  0.3766743009961 1.0
C      1  0.5726584954500  0.7794286973520  0.4122657060702 1.0
C      1  0.3437974171103  0.3330797606087  0.7311357468194 1.0
C      1  0.3372609108024  0.2907872670064  0.6445382279671 1.0
C      1  0.6802711870760  0.3866136950067  0.6994878644425 1.0
C      1  0.7689267029791  0.5143321706761  0.6307150917749 1.0
C      1  0.5964048163862  0.5797874938184  0.2703468722142 1.0
C      1  0.7300226168669  0.4975542045785  0.3112380664444 1.0
C      1  0.6373064137709  0.5111805067781  0.4837780183588 1.0
END
