TITL C-191496-5079-12 -2.938 3375.00 0 0 0 61 (C1) n - 1
REM
REM Run started: at 2020.03.16 05:45:26 in /rds/user/bk393/hpc-work/AIRSS.pl-DENE/CARBON/New-Try
REM VASP from code version vasp.5.4.4.18Apr17-6-g9f103f2a35 (build Oct 11 2019 16:45:47) gamma-only
REM
REM
REM
REM
REM ./C.cell (9f5935e56d41cf50cb14479ce98dda23)
REM AIRSS Version 0.9.1 bugfix July 2018 build 013d7b7c2542+ Fri, 06 Jul 2018 19:26:36 +0100
REM compiler GCC version 4.8.5 20150623 (Red Hat 4.8.5-39)
REM options -cpp -mtune=generic -march=x86-64 -g -O0
REM seed 484729884 -1873178639 588506154 401704755 2078038343 1041261819 564818595 -1276598959 1975413847 1413185546 -2081727812 -1631068286
REM
REM C.POTCAR (d86ddea03c3ceb6dc662c8ad6801f873)
REM 
CELL 1.54180   15.00000   15.00000   15.00000   90.00000   90.00000   90.00000
LATT -1
SFAC C  
C      1  0.6662462942529  0.4430468585586  0.3064626318019 1.0
C      1  0.4259607429521  0.3244468345354  0.6202930998068 1.0
C      1  0.2365844384129  0.5198465616310  0.4253214753537 1.0
C      1  0.5235517111975  0.7362168575510  0.5225002065646 1.0
C      1  0.3857184541390  0.3263700115038  0.4632804021171 1.0
C      1  0.6034505452386  0.2931317040136  0.5244164586425 1.0
C      1  0.6267410372869  0.6340093784412  0.5822216879938 1.0
C      1  0.4106203900656  0.6447264500364  0.3350298827333 1.0
C      1  0.7259447838274  0.4344496409758  0.3794773395671 1.0
C      1  0.6735652363642  0.6042417742019  0.2313982496084 1.0
C      1  0.5587759179686  0.3414165214236  0.7226735572364 1.0
C      1  0.4544535496455  0.5193161671688  0.2346482814530 1.0
C      1  0.6832868151337  0.4865492840450  0.5769922038812 1.0
C      1  0.2971898426041  0.3272736425863  0.4929584665460 1.0
C      1  0.6934287955945  0.3856636423497  0.4572920956152 1.0
C      1  0.4907648799761  0.3107811444483  0.6869909054302 1.0
C      1  0.4405910447786  0.3934637669100  0.4129945489346 1.0
C      1  0.2667885025794  0.5782649326971  0.3577352495377 1.0
C      1  0.6132851466118  0.4100388437915  0.6885094332219 1.0
C      1  0.5134045041214  0.5493362895328  0.4068633933071 1.0
C      1  0.2336063076439  0.4738442708038  0.6676760061252 1.0
C      1  0.6323679042792  0.5525896893080  0.6301458473703 1.0
C      1  0.5145667647934  0.4632043667752  0.2431326783162 1.0
C      1  0.4068210494055  0.4779596156366  0.6920830563284 1.0
C      1  0.6919130852447  0.3315143576248  0.5490373014248 1.0
C      1  0.3888184003225  0.4097661635750  0.6277639290163 1.0
C      1  0.5887051809245  0.5395768846898  0.4581836786978 1.0
C      1  0.6805487928848  0.3971873819620  0.6211413274556 1.0
C      1  0.4411953095507  0.7349530402880  0.5779225414697 1.0
C      1  0.5348926112500  0.3765600071943  0.3812451707590 1.0
C      1  0.3751094813947  0.5391924798157  0.4690473613250 1.0
C      1  0.7638456210515  0.5367855751311  0.5289676036680 1.0
C      1  0.4426348531709  0.2834787343540  0.5333796820510 1.0
C      1  0.3100393836975  0.4626777969205  0.5844068943903 1.0
C      1  0.5279943586019  0.2487327038982  0.5340425623261 1.0
C      1  0.2952484338298  0.5516338117444  0.2732153047626 1.0
C      1  0.5779620209961  0.5043110259666  0.6902219883311 1.0
C      1  0.3243868611890  0.5306112940943  0.6622636411658 1.0
C      1  0.3368637371690  0.6526628420421  0.3923203028623 1.0
C      1  0.7295650546695  0.5866174005305  0.4501256496922 1.0
C      1  0.3615155334923  0.6201745469458  0.6489651461646 1.0
C      1  0.3661232839454  0.6754268631347  0.5689308230018 1.0
C      1  0.5708653399283  0.7034344543451  0.6023316479635 1.0
C      1  0.6213706495705  0.4618678083774  0.4987987346274 1.0
C      1  0.2346818145935  0.3322361264034  0.5515763028361 1.0
C      1  0.4497297975347  0.6236092629691  0.6904424800875 1.0
C      1  0.6344544674574  0.6264694862215  0.4798398617638 1.0
C      1  0.5716620783838  0.4159275931251  0.3035838540190 1.0
C      1  0.3866735553363  0.5777077585237  0.2661166707796 1.0
C      1  0.7403023252614  0.5337781116832  0.3742501570703 1.0
C      1  0.4834350751297  0.5322033607902  0.7073553043818 1.0
C      1  0.8377947707604  0.5121571329053  0.5684264465705 1.0
C      1  0.4366913322733  0.4888630062377  0.4208782857698 1.0
C      1  0.2912892118864  0.5004641221993  0.4953000585899 1.0
C      1  0.6931757495660  0.5370637728487  0.2852403988612 1.0
C      1  0.3627117352708  0.6359164571838  0.4829194522447 1.0
C      1  0.2310839696303  0.4023755451179  0.6141144474473 1.0
C      1  0.4953920240652  0.6408667611112  0.3867897186216 1.0
C      1  0.5550806056728  0.6920704285184  0.4457406598218 1.0
C      1  0.5965144035456  0.3694178921882  0.4576591668359 1.0
C      1  0.4920148318757  0.7015197604136  0.6563580856515 1.0
END
