TITL C-199650-6946-7 -12.29 3375.00 0 0 0 258 (C1) n - 1
REM
REM Run started: at 2020.03.11 09:09:13 in /rds/user/bk393/hpc-work/AIRSS.pl-DENE/CARBON/New-Try
REM VASP from code version vasp.5.4.4.18Apr17-6-g9f103f2a35 (build Oct 11 2019 16:45:47) gamma-only
REM
REM
REM
REM
REM ./C.cell (67df479faaa1345d4e7bfe0367c0c0c2)
REM AIRSS Version 0.9.1 bugfix July 2018 build 013d7b7c2542+ Fri, 06 Jul 2018 19:26:36 +0100
REM compiler GCC version 4.8.5 20150623 (Red Hat 4.8.5-39)
REM options -cpp -mtune=generic -march=x86-64 -g -O0
REM seed -1162545551 -1530089864 -277584561 -1084677075 1557813321 -1745185264 -1906576764 873075085 1523289213 922956884 183369155 555494092
REM
REM C.POTCAR (d86ddea03c3ceb6dc662c8ad6801f873)
REM 
CELL 1.54180   15.00000   15.00000   15.00000   90.00000   90.00000   90.00000
LATT -1
SFAC C  
C      1  0.3186350523847  0.7818924955939  0.3981863427068 1.0
C      1  0.5885004827591  0.8625994267584  0.6958409223555 1.0
C      1  0.6670191101060  0.1830565638064  0.1896036357416 1.0
C      1  0.5101596156709  0.3580839336196  0.6063178686223 1.0
C      1  0.7740948542415  0.3476693607616  0.8283779056793 1.0
C      1  0.2093583268078  0.5292697960670  0.1327311499193 1.0
C      1  0.2199744647814  0.5988143261924  0.7773885283334 1.0
C      1  0.6699415979723  0.3063182735602  0.7078994941296 1.0
C      1  0.7225252446796  0.5779381608287  0.3113765543742 1.0
C      1  0.3077093154588  0.6277644686521  0.0191821944572 1.0
C      1  0.2625581098025  0.9151527998092  0.4950994027716 1.0
C      1  0.3207696935066  0.2456287033465  0.6508314387445 1.0
C      1  0.3325158418969  0.5208549498560  0.4082806285258 1.0
C      1  0.4499188194440  0.7863767503132  0.7763499581051 1.0
C      1  0.3607150455622  0.5388508561695  0.0216852235417 1.0
C      1  0.4478035084347  0.8287686331109  0.6059074710169 1.0
C      1  0.4557508706622  0.0814748840759  0.2842692241520 1.0
C      1  0.5670252237251  0.4666868499963  0.8924240024559 1.0
C      1  0.5004028169991  0.2622023973583  0.9175789459456 1.0
C      1  0.0496183326754  0.4450760696152  0.4040369344969 1.0
C      1  0.7254836774148  0.7554133191729  0.3747510218786 1.0
C      1  0.4269397693555  0.5244668635177  0.0886975343828 1.0
C      1  0.1658577624010  0.7869675862132  0.6980207109861 1.0
C      1  0.4868372160383  0.1891094523990  0.4080806340834 1.0
C      1  0.2022220247729  0.3668480617141  0.3728337332598 1.0
C      1  0.9396752569611  0.5647951956207  0.2620560552302 1.0
C      1  0.5228796326341  0.5414918256007  0.5918399092204 1.0
C      1  0.8077783332741  0.4833039253423  0.7375588067092 1.0
C      1  0.2451816327870  0.1771100840636  0.5218011638809 1.0
C      1  0.5443112061377  0.8968504786325  0.4388266168857 1.0
C      1  0.7950186206060  0.2195036875428  0.7166212991839 1.0
C      1  0.4573920214587  0.4518520922024  0.7709366536441 1.0
C      1  0.8676171441398  0.5185838468797  0.2341628713801 1.0
C      1  0.2131856495268  0.4345062057148  0.1272873889870 1.0
C      1  0.0480639803363  0.5725490948455  0.6046725497899 1.0
C      1  0.3919566115666  0.8466261419934  0.4117686282538 1.0
C      1  0.7713980793194  0.2594508287575  0.2776549000668 1.0
C      1  0.2493497662142  0.4171773830534  0.8245325437138 1.0
C      1  0.3957986753650  0.4855836759214  0.6302551799193 1.0
C      1  0.7001745875402  0.2278253756591  0.4759252312747 1.0
C      1  0.5394069232615  0.8520384356369  0.1126250662713 1.0
C      1  0.3553750887118  0.7991020315982  0.8300547024572 1.0
C      1  0.2077674508207  0.7857499616604  0.5335592067163 1.0
C      1  0.8629592737158  0.3758321983400  0.3519564567595 1.0
C      1  0.2892454630299  0.4874789472345  0.8847552088542 1.0
C      1  0.4224479257479  0.8968888221906  0.3315151188577 1.0
C      1  0.7670944766383  0.5000398474841  0.3515886710598 1.0
C      1  0.1851835986880  0.2561228307548  0.5214154829976 1.0
C      1  0.8586630873420  0.2361273810650  0.4226167515124 1.0
C      1  0.2603219018556  0.5802328336109  0.4557465690939 1.0
C      1  0.3525379698940  0.3101036055302  0.3382743316589 1.0
C      1  0.4841157176424  0.4291463678967  0.3161086991616 1.0
C      1  0.5662945650336  0.3982604453526  0.2707056759523 1.0
C      1  0.1985278948345  0.5598139373595  0.2263470815078 1.0
C      1  0.4217655138487  0.7670857691221  0.6798637957966 1.0
C      1  0.4187613664676  0.0955663383707  0.6893807882835 1.0
C      1  0.5661210288474  0.7431118487475  0.1254724979254 1.0
C      1  0.7192757189452  0.5753220947407  0.2074301152060 1.0
C      1  0.0813291924584  0.3907734442407  0.4834735137672 1.0
C      1  0.7057936319690  0.1060942754032  0.3253205197695 1.0
C      1  0.5561452042360  0.5652139350616  0.8395795066904 1.0
C      1  0.4237240805305  0.5211126291791  0.4545384283387 1.0
C      1  0.8089177710012  0.4353664397349  0.8168481832862 1.0
C      1  0.4155074020550  0.4803475748583  0.2602391656512 1.0
C      1  0.2335129693223  0.6091143437399  0.0852179894693 1.0
C      1  0.6464940911548  0.1406579886379  0.4724816384898 1.0
C      1  0.2398993343779  0.1205786261393  0.3575526467580 1.0
C      1  0.6199791167220  0.5832815402597  0.1879413403505 1.0
C      1  0.5437137034281  0.8334626114666  0.7772692192971 1.0
C      1  0.5389297611274  0.3172585980824  0.2207850387495 1.0
C      1  0.7411010576315  0.8070099951573  0.7535042308462 1.0
C      1  0.7363337162920  0.6014215422158  0.5361737681485 1.0
C      1  0.8886900385966  0.2961582305723  0.4882154671594 1.0
C      1  0.1348531995172  0.2605306107176  0.6903231507185 1.0
C      1  0.1876899071336  0.3508233153552  0.8293547435335 1.0
C      1  0.8065381917307  0.7346575403052  0.7194217487908 1.0
C      1  0.8746260841689  0.3839770793700  0.4466604807977 1.0
C      1  0.8728071377770  0.6709415524192  0.4892956405895 1.0
C      1  0.6972603740991  0.7951810971673  0.8342360949546 1.0
C      1  0.9236209507140  0.4524000156657  0.6124400101629 1.0
C      1  0.5709498183874  0.4393601856982  0.4491539172338 1.0
C      1  0.4437762574906  0.3123678823103  0.1893609489451 1.0
C      1  0.5220490168592  0.0849649473884  0.5725929659932 1.0
C      1  0.6604793484200  0.5571997893492  0.8379664772835 1.0
C      1  0.2778776741885  0.1283571545391  0.4449960819300 1.0
C      1  0.8613275649944  0.7870646795900  0.4767103865665 1.0
C      1  0.5643650358302  0.9176638105620  0.5365264310812 1.0
C      1  0.6108477902975  0.1103316245174  0.5586411145006 1.0
C      1  0.2475557118712  0.5811997010579  0.6875976501135 1.0
C      1  0.5774465708579  0.3058803022595  0.1313082943711 1.0
C      1  0.5722662989781  0.1453063057543  0.8097108501685 1.0
C      1  0.5113842274916  0.0815404012829  0.6705300425021 1.0
C      1  0.8401703520504  0.2855954926157  0.3377634679627 1.0
C      1  0.1292222938049  0.2812969545129  0.5980726077121 1.0
C      1  0.7395101176806  0.4185911120276  0.8792316537494 1.0
C      1  0.6576744104428  0.3968782732394  0.4049042905791 1.0
C      1  0.2436723174818  0.4658591659807  0.3719308849627 1.0
C      1  0.3551743081165  0.5494430460670  0.3125039265462 1.0
C      1  0.5252735315706  0.6920170990639  0.5328810524887 1.0
C      1  0.6331139724265  0.6078153738640  0.4269690158670 1.0
C      1  0.4249200810824  0.0908335712736  0.5284975039332 1.0
C      1  0.8651652261868  0.7336956904288  0.5677651182665 1.0
C      1  0.3802017632413  0.8952846557342  0.5786603525000 1.0
C      1  0.6855610846273  0.8471844237747  0.6844641141121 1.0
C      1  0.4856233187434  0.5032995333286  0.6819106315891 1.0
C      1  0.4613755166620  0.6046901530018  0.4109490443561 1.0
C      1  0.4285013521723  0.7478467644664  0.0319868070932 1.0
C      1  0.8364339887434  0.5770311925790  0.7275815728285 1.0
C      1  0.6235483043432  0.2401805321919  0.6573273141984 1.0
C      1  0.4598205076307  0.2643292484148  0.4595302798597 1.0
C      1  0.7298950865465  0.4660688984108  0.4397408287783 1.0
C      1  0.8447511329211  0.2289369505315  0.6355843409139 1.0
C      1  0.3799713546875  0.6312239727115  0.5796230940532 1.0
C      1  0.3632374265059  0.2293243269655  0.7353200914900 1.0
C      1  0.8993127023029  0.2875981574660  0.5845455191068 1.0
C      1  0.6346081148818  0.6532149269772  0.6408353922009 1.0
C      1  0.2219045540194  0.3419188025010  0.4719145411458 1.0
C      1  0.9644758699035  0.3678081176941  0.6109135626851 1.0
C      1  0.4558960377737  0.5183377514472  0.1763050441059 1.0
C      1  0.4664388994572  0.6937057772745  0.8095495468137 1.0
C      1  0.7982962398668  0.5478727986354  0.1738163201668 1.0
C      1  0.2969139487528  0.6523903250533  0.9186984449726 1.0
C      1  0.4856637555420  0.7734377805502  0.5296011099745 1.0
C      1  0.7206552075470  0.6338244333812  0.8314263239752 1.0
C      1  0.8244265993067  0.4468780684889  0.5871707197958 1.0
C      1  0.4744255707103  0.3127571616448  0.8385549802698 1.0
C      1  0.6875742133092  0.8277852317851  0.2047025988945 1.0
C      1  0.1559358015614  0.6650961783775  0.7831155858391 1.0
C      1  0.8114473117869  0.4361480316950  0.4937040520218 1.0
C      1  0.5779994892535  0.1554580616275  0.2343482281082 1.0
C      1  0.4789738586856  0.1392809695289  0.2153235125707 1.0
C      1  0.4873557838134  0.8089566641551  0.4377264735864 1.0
C      1  0.2181309841888  0.8533318044587  0.7392447018718 1.0
C      1  0.6364069089746  0.9009828592786  0.4844386187244 1.0
C      1  0.1865473461537  0.5079520576654  0.4489355545495 1.0
C      1  0.5289826183963  0.0241375839531  0.3167017967856 1.0
C      1  0.3272964415091  0.7956510944620  0.2314781720800 1.0
C      1  0.5074498573262  0.2878220853247  0.5348346911304 1.0
C      1  0.2848600385853  0.8449351256590  0.7884684645610 1.0
C      1  0.2129616975549  0.6421994884346  0.6098940950835 1.0
C      1  0.2801045274490  0.7709869777339  0.3135125271775 1.0
C      1  0.4057667951083  0.3766317683734  0.2702019708757 1.0
C      1  0.3711963421617  0.1045559053223  0.6057467645170 1.0
C      1  0.6294860790266  0.7725420361059  0.3535083351333 1.0
C      1  0.3738852787249  0.1056769365840  0.4454390494423 1.0
C      1  0.6636255062424  0.4739263709732  0.8765531411695 1.0
C      1  0.2559280044759  0.3183471669094  0.3101622076638 1.0
C      1  0.7427413018536  0.2832308347322  0.7664829242916 1.0
C      1  0.6568600427777  0.1442792184052  0.6455879001147 1.0
C      1  0.2995231241629  0.1683945126798  0.5982792568435 1.0
C      1  0.5476097938638  0.2665888482079  0.6131904840311 1.0
C      1  0.7080680146590  0.3243076766908  0.2400553574463 1.0
C      1  0.2656464391761  0.1390171664142  0.2796803523260 1.0
C      1  0.7169468765605  0.6621820143989  0.6038209959368 1.0
C      1  0.7306047592095  0.1134305736046  0.4167409755820 1.0
C      1  0.4754959387942  0.3179490452588  0.9900126519586 1.0
C      1  0.2505222114511  0.2914983147002  0.2206989530986 1.0
C      1  0.5798797868973  0.1561484673952  0.3993540713608 1.0
C      1  0.6276716618265  0.5816575049611  0.3356397712788 1.0
C      1  0.6543704469274  0.2976789317626  0.4272019246184 1.0
C      1  0.3160734278854  0.3354997551688  0.5004180186886 1.0
C      1  0.7264671248026  0.8266301482006  0.6010305141835 1.0
C      1  0.2186699038097  0.6614848449822  0.4120000829366 1.0
C      1  0.4928348221244  0.4084233386844  0.8518249981326 1.0
C      1  0.5870558300536  0.1105443023145  0.7211400410525 1.0
C      1  0.5196022033110  0.5158504912691  0.0553078436091 1.0
C      1  0.8332479798191  0.4571065897294  0.3074646022723 1.0
C      1  0.6539893068721  0.3904231213757  0.2979813527202 1.0
C      1  0.5780618105086  0.6165431315433  0.2701953630448 1.0
C      1  0.6899963346540  0.7926566396830  0.2880228312049 1.0
C      1  0.9875008103874  0.6220874264523  0.3144474650813 1.0
C      1  0.7331083313096  0.1706156067671  0.2590838247358 1.0
C      1  0.1892311009096  0.8744302887333  0.5030203791268 1.0
C      1  0.6303146178021  0.8185076490063  0.1396366939256 1.0
C      1  0.5444165801290  0.6568861633824  0.4419406256790 1.0
C      1  0.9030909496591  0.6103627156911  0.6680922108609 1.0
C      1  0.9510484032625  0.7039784493991  0.3444786992073 1.0
C      1  0.5461356810725  0.1845798365197  0.8792828926961 1.0
C      1  0.4787378060849  0.5501709301883  0.7667512892050 1.0
C      1  0.3007067722441  0.4978519217129  0.6686336768814 1.0
C      1  0.5323678744954  0.6593174166437  0.8680979523885 1.0
C      1  0.3750124811150  0.2187931737191  0.3028530284297 1.0
C      1  0.4103499685438  0.3856761467299  0.6348005290502 1.0
C      1  0.3075346170638  0.2049178154288  0.2211923605249 1.0
C      1  0.2682627010847  0.5752286843806  0.8610748111786 1.0
C      1  0.5058217424443  0.7458429194876  0.2077807741747 1.0
C      1  0.2247145121777  0.3580856302248  0.1594546104018 1.0
C      1  0.4321757311821  0.6332804861107  0.7512730395042 1.0
C      1  0.4120826849479  0.2164265502418  0.2108898817124 1.0
C      1  0.1335598061482  0.6794886933224  0.3755201720735 1.0
C      1  0.4266953064303  0.5434733226243  0.5545816310788 1.0
C      1  0.3577104981231  0.4744159188397  0.9548026609674 1.0
C      1  0.4040600412508  0.6757509294606  0.6661067800554 1.0
C      1  0.1242296153321  0.6026727104364  0.5914023945623 1.0
C      1  0.7727406917057  0.8080172930511  0.4479182255249 1.0
C      1  0.3881241221507  0.1419542395006  0.7629485529831 1.0
C      1  0.5070446939948  0.7804747604144  0.0531768006377 1.0
C      1  0.5024223938913  0.6837186402048  0.2864203852214 1.0
C      1  0.5955316667711  0.7210357260499  0.8944141683548 1.0
C      1  0.1943012573082  0.7457333254057  0.6154630612444 1.0
C      1  0.5571513290901  0.6337937129612  0.6036401563019 1.0
C      1  0.4253232072404  0.6269191499204  0.3306938104404 1.0
C      1  0.2653149688590  0.7295801779695  0.4708157767218 1.0
C      1  0.7136423996737  0.8498614171221  0.5103153915257 1.0
C      1  0.2520860905004  0.4048052499619  0.6474102535269 1.0
C      1  0.2002070405726  0.6527434816333  0.2317168394628 1.0
C      1  0.6725478211301  0.5379677301189  0.4937913351601 1.0
C      1  0.0949585848504  0.5296820034195  0.4047246360689 1.0
C      1  0.3287025816311  0.7300297700136  0.8847752602540 1.0
C      1  0.1720915007788  0.4248037483589  0.5090831431146 1.0
C      1  0.7835465954665  0.1850682330761  0.4502178082088 1.0
C      1  0.3089447539088  0.7400190796065  0.1493001972791 1.0
C      1  0.9168850347414  0.7270274428596  0.4216398305139 1.0
C      1  0.7768755448327  0.7396077352241  0.6163623553467 1.0
C      1  0.6009618789283  0.4138529533485  0.6066009473156 1.0
C      1  0.4141656302565  0.1394951261931  0.3575600251045 1.0
C      1  0.6016206253758  0.8074862312940  0.8459076362625 1.0
C      1  0.2896111259938  0.6433318729159  0.5345386361289 1.0
C      1  0.6017829715587  0.2469077881760  0.3660894852458 1.0
C      1  0.6726562094418  0.3944253477819  0.6616605460300 1.0
C      1  0.4009383859300  0.8583343027628  0.2470058958441 1.0
C      1  0.7889315371644  0.6467768422691  0.7658917276557 1.0
C      1  0.0646282215379  0.3603295842216  0.5820041390223 1.0
C      1  0.7652493590843  0.4412569828572  0.6592286066552 1.0
C      1  0.9600807902145  0.5456159529245  0.6223348465714 1.0
C      1  0.6656476165508  0.2769717365777  0.1638173237593 1.0
C      1  0.4431875779210  0.4169749778987  0.9485782714756 1.0
C      1  0.4970389109153  0.3135512893987  0.0872056111091 1.0
C      1  0.3773473521066  0.3110411008226  0.4366939529075 1.0
C      1  0.5352348300444  0.8784670911469  0.6176130371346 1.0
C      1  0.5948450008054  0.4849292612132  0.5372964279566 1.0
C      1  0.5049241486294  0.9463082533467  0.3589383635347 1.0
C      1  0.2089726749796  0.7029198403782  0.3127136669170 1.0
C      1  0.0734460595993  0.6068646434764  0.3607084316642 1.0
C      1  0.5647573316914  0.2451792829194  0.2810860952808 1.0
C      1  0.3552187164023  0.7104142902647  0.0653393248622 1.0
C      1  0.2932045761186  0.4220941186431  0.7357220558427 1.0
C      1  0.7337264977536  0.6513488121531  0.3898244080393 1.0
C      1  0.5390807616262  0.7369176831460  0.3760126660212 1.0
C      1  0.5233566073899  0.4707546914702  0.9786980370012 1.0
C      1  0.4901927410607  0.4532768273988  0.4120871144460 1.0
C      1  0.6025155862606  0.0940526308847  0.3167387855997 1.0
C      1  0.3893435873359  0.3880975213621  0.7348227673902 1.0
C      1  0.7638184920008  0.1615583327807  0.6532590775350 1.0
C      1  0.2352304527239  0.6813873258217  0.1503127874884 1.0
C      1  0.8971812844119  0.7088163654542  0.6620274244746 1.0
C      1  0.5527604094444  0.5353386324408  0.1449647479570 1.0
C      1  0.1548222111223  0.3004396728747  0.7629373986146 1.0
C      1  0.4077095209766  0.3019705728472  0.7773831082234 1.0
C      1  0.4780963462856  0.8322223951465  0.1941626452070 1.0
C      1  0.3554744118019  0.9054175536114  0.4930371787413 1.0
C      1  0.7936443455413  0.6285715809809  0.4668062281925 1.0
C      1  0.1608534985981  0.4119818463804  0.6060014255919 1.0
C      1  0.3254386420979  0.3372709393498  0.6013059631502 1.0
C      1  0.1140431510376  0.7318132416032  0.7554079992355 1.0
C      1  0.2564151649810  0.5217836494584  0.2918570459902 1.0
C      1  0.6901551058273  0.7079588932924  0.8770353786440 1.0
C      1  0.0989139916993  0.3685887643771  0.3870198133266 1.0
END
