TITL C-193553-3116-9 -3.926 3375.00 -617.76737298 0 0 76 (C1) n - 1
REM
REM Run started: at 2020.12.26 14:58:33 in /rds/project/t2_vol4/rds-t2-cs072/BORA/CARBON/AIRSS/Generating-Clusters/Str-Search/Only-C1/C10-100
REM VASP from code version vasp.5.4.4.18Apr17-6-g9f103f2a35 (build Oct 11 2019 16:45:47) gamma-only
REM
REM
REM
REM
REM ./C.cell (67c5d0192afd7a3ce4a0888e5fe73b87)
REM AIRSS Version 0.9.1 bugfix July 2018 build 013d7b7c2542+ Fri, 06 Jul 2018 19:26:36 +0100
REM compiler GCC version 4.8.5 20150623 (Red Hat 4.8.5-39)
REM options -cpp -mtune=generic -march=x86-64 -g -O0
REM seed 445526660 2062133863 406886637 498847524 1128999356 -2085963815 -1007064123 675726814 -726525881 -1083631533 670985295 -874351857
REM
REM C.POTCAR (d86ddea03c3ceb6dc662c8ad6801f873)
REM 
CELL 1.54180   15.00000   15.00000   15.00000   90.00000   90.00000   90.00000
LATT -1
SFAC C  
C      1  0.7173312434040  0.7167879074459  0.5050778034441 1.0
C      1  0.2014581448384  0.6419403839229  0.5364247811649 1.0
C      1  0.5225264759085  0.5153805292279  0.2930037975372 1.0
C      1  0.3149401854234  0.6154123086053  0.3613803284838 1.0
C      1  0.5528979995374  0.2748650208379  0.3448533178026 1.0
C      1  0.6344692331814  0.3738908335841  0.7098606491128 1.0
C      1  0.4523870650323  0.5850104224585  0.7209124899014 1.0
C      1  0.4224447854665  0.4964660926704  0.7354003363729 1.0
C      1  0.5695358757099  0.6954047721395  0.6776835724988 1.0
C      1  0.2227238938078  0.4997992009418  0.4526798177862 1.0
C      1  0.5195735937113  0.0813689737122  0.5603140191175 1.0
C      1  0.3831834754358  0.4422139459659  0.4648446209588 1.0
C      1  0.5451128411292  0.7646587619409  0.4622413083493 1.0
C      1  0.3102377269759  0.6895170329864  0.4259645184364 1.0
C      1  0.3494343688386  0.3449507221856  0.4642212151304 1.0
C      1  0.5804444855768  0.5111337932209  0.5570455055852 1.0
C      1  0.2158065731981  0.5812306616673  0.6080870896245 1.0
C      1  0.5029938603528  0.7444551952524  0.6303234019729 1.0
C      1  0.5740018772611  0.5600735780463  0.4766804589701 1.0
C      1  0.4523936745611  0.3621159535603  0.6746188764374 1.0
C      1  0.6297824329663  0.7269864036847  0.4615876566186 1.0
C      1  0.2858744737779  0.4219436615961  0.4380168323339 1.0
C      1  0.6012106407612  0.4237570491316  0.3952890473719 1.0
C      1  0.5817971148553  0.3154294311472  0.2688447921198 1.0
C      1  0.2949936460711  0.4521420660833  0.3428415652518 1.0
C      1  0.7309894414697  0.5278487675649  0.5944540697624 1.0
C      1  0.6856843612448  0.4047023097684  0.4292620955162 1.0
C      1  0.4258441617138  0.3825181039877  0.3950130894040 1.0
C      1  0.5791239331278  0.4699762352250  0.2177967282129 1.0
C      1  0.3917441658679  0.7337689861759  0.4449625589586 1.0
C      1  0.5001792810788  0.8095319261382  0.5454414429845 1.0
C      1  0.7623205129452  0.5391369097495  0.5116858705060 1.0
C      1  0.1913149602366  0.5466978841838  0.5222275007514 1.0
C      1  0.5626960307575  0.6153541953992  0.2852387740055 1.0
C      1  0.5493096806509  0.2576744829857  0.5415013048323 1.0
C      1  0.4330261168794  0.4927852950877  0.5270967800358 1.0
C      1  0.6505715698815  0.5293809863833  0.6299003089225 1.0
C      1  0.6324858536185  0.6316834493085  0.4406289765978 1.0
C      1  0.2457945500116  0.7071402663747  0.4936319584683 1.0
C      1  0.6058145813138  0.5339596823814  0.7184304176420 1.0
C      1  0.6637323001751  0.3213824662168  0.4773756464519 1.0
C      1  0.3837250670434  0.4376484529482  0.3174282626215 1.0
C      1  0.5263682961773  0.1637880254373  0.5592546250956 1.0
C      1  0.4771632593358  0.7234428459662  0.4019822607707 1.0
C      1  0.6456465634178  0.2920430214377  0.5636265622641 1.0
C      1  0.3907828795888  0.6237129235866  0.6509532370976 1.0
C      1  0.4057247678478  0.7653298313260  0.5348415826398 1.0
C      1  0.3864010206654  0.5555482638474  0.5775993905975 1.0
C      1  0.5115588676684  0.4435777959376  0.5562342444196 1.0
C      1  0.5802091568983  0.4448955889351  0.7407238189218 1.0
C      1  0.3837647214028  0.3438348689573  0.5556873138847 1.0
C      1  0.2594773205631  0.5372359676564  0.3670754725551 1.0
C      1  0.4156377555539  0.7136817904302  0.6149345874618 1.0
C      1  0.7107111004713  0.7330940457309  0.5962292109336 1.0
C      1  0.7395225228174  0.6250734211015  0.4668876213603 1.0
C      1  0.5438989301710  0.6089092887947  0.7198179046054 1.0
C      1  0.5764555273930  0.5132384491751  0.3805290442771 1.0
C      1  0.7460826768388  0.4847881038267  0.4312497293473 1.0
C      1  0.7357309413673  0.5662454533270  0.3785942775454 1.0
C      1  0.6387306030449  0.5881194912494  0.3520443278929 1.0
C      1  0.5133465601789  0.9893752328955  0.5592174989536 1.0
C      1  0.3078355833442  0.5603205183824  0.6379445378210 1.0
C      1  0.5687256325408  0.5599946185578  0.2036031594382 1.0
C      1  0.5871474912348  0.3796924268010  0.2119695033785 1.0
C      1  0.4860377395932  0.4255487204435  0.7385885016030 1.0
C      1  0.6617179806283  0.3255592690889  0.6490768286082 1.0
C      1  0.5249173150442  0.3595131142984  0.3993823236761 1.0
C      1  0.4854072216174  0.3398183958161  0.5790739041107 1.0
C      1  0.3642482937392  0.3852126228366  0.6425751949001 1.0
C      1  0.4000079219071  0.6052430439232  0.3162322001165 1.0
C      1  0.4273791613348  0.5160559647848  0.2929335530235 1.0
C      1  0.3451220778091  0.4751027449793  0.6780163472928 1.0
C      1  0.4805402619224  0.6632521125046  0.3263304002569 1.0
C      1  0.5085611283046  0.9070556611711  0.5554122338372 1.0
C      1  0.5758263496328  0.2827822521771  0.4414872164579 1.0
C      1  0.6574000141469  0.7207889227224  0.6596177967985 1.0
END
