TITL C-191496-5079-33 -4.072 3375.00 0 0 0 84 (C1) n - 1
REM
REM Run started: at 2020.03.16 15:12:46 in /rds/user/bk393/hpc-work/AIRSS.pl-DENE/CARBON/New-Try
REM VASP from code version vasp.5.4.4.18Apr17-6-g9f103f2a35 (build Oct 11 2019 16:45:47) gamma-only
REM
REM
REM
REM
REM ./C.cell (9f5935e56d41cf50cb14479ce98dda23)
REM AIRSS Version 0.9.1 bugfix July 2018 build 013d7b7c2542+ Fri, 06 Jul 2018 19:26:36 +0100
REM compiler GCC version 4.8.5 20150623 (Red Hat 4.8.5-39)
REM options -cpp -mtune=generic -march=x86-64 -g -O0
REM seed 1855298525 1811901704 -836777338 -898434372 1207791899 -1059898457 -228398702 27111704 -188083207 -1722302088 -1530633430 598421391
REM
REM C.POTCAR (d86ddea03c3ceb6dc662c8ad6801f873)
REM 
CELL 1.54180   15.00000   15.00000   15.00000   90.00000   90.00000   90.00000
LATT -1
SFAC C  
C      1  0.3418823611860  0.6223549305964  0.4975585179954 1.0
C      1  0.5095368513915  0.4666609317651  0.4221994801831 1.0
C      1  0.4575430276141  0.5424769782977  0.4117094642118 1.0
C      1  0.6898906470485  0.7059495326729  0.6175495167366 1.0
C      1  0.4116366535902  0.6924455700306  0.5175266134748 1.0
C      1  0.6419143683830  0.7236103541276  0.3307822559565 1.0
C      1  0.6215362768465  0.5029986109501  0.7594243172014 1.0
C      1  0.4497633681041  0.6253985926883  0.2374899495055 1.0
C      1  0.7388372594412  0.5737957381863  0.3142923200758 1.0
C      1  0.6560646296025  0.3057562433930  0.6079536424652 1.0
C      1  0.5405598753710  0.6428461947575  0.7111312524827 1.0
C      1  0.4791145684653  0.7782095122453  0.6491510466477 1.0
C      1  0.3603539391532  0.5963869812307  0.6985562574020 1.0
C      1  0.2787000137166  0.3898478906078  0.3175645164205 1.0
C      1  0.6381491529363  0.2819918636472  0.3524769724218 1.0
C      1  0.3026276712675  0.5674699451473  0.3290117914939 1.0
C      1  0.6541231458362  0.3932191197418  0.5641104089428 1.0
C      1  0.4621469827946  0.5977649988033  0.6905388994121 1.0
C      1  0.5294200286746  0.6483773353509  0.2295665620470 1.0
C      1  0.2390286437827  0.6696345648180  0.6028043015388 1.0
C      1  0.4519266443304  0.3066301372488  0.2006392212798 1.0
C      1  0.6239804528152  0.4126157810963  0.7733406785097 1.0
C      1  0.8664898261298  0.4408634900500  0.6707872679095 1.0
C      1  0.2146909306195  0.6780232235659  0.4259598193145 1.0
C      1  0.4554593761533  0.3536613984530  0.7726598548489 1.0
C      1  0.5116243276267  0.6234798525675  0.4240764099849 1.0
C      1  0.2637342522689  0.4795509511253  0.3059686813475 1.0
C      1  0.5519977256573  0.7363088471984  0.6894374293526 1.0
C      1  0.5296630286770  0.3188772368273  0.5029278890659 1.0
C      1  0.3672081875410  0.7807716860151  0.3165680384605 1.0
C      1  0.7340364011285  0.5620222666339  0.4031061028339 1.0
C      1  0.4437906920265  0.2651158455657  0.5078989833773 1.0
C      1  0.6803641585409  0.6387908971163  0.4606085678178 1.0
C      1  0.2887496295879  0.6459232363821  0.6659678466483 1.0
C      1  0.7047549155662  0.4764507966038  0.4408064300786 1.0
C      1  0.3241173665942  0.5255549000130  0.5037925397627 1.0
C      1  0.7436864393950  0.3859495191329  0.4335977491234 1.0
C      1  0.6863650642315  0.3109114638038  0.4270847787010 1.0
C      1  0.7049114868802  0.3669177860922  0.7403657353384 1.0
C      1  0.6137753649062  0.5730035841783  0.7050719299961 1.0
C      1  0.2861133689117  0.4515107086605  0.5382513935475 1.0
C      1  0.5370945071588  0.3028927743560  0.1956088045469 1.0
C      1  0.7401454205902  0.4246333779816  0.5269601866737 1.0
C      1  0.6179162631886  0.6683878889571  0.2548958615826 1.0
C      1  0.4643077930452  0.7092311911011  0.4352881676152 1.0
C      1  0.5060570584275  0.4455216091540  0.6111869913968 1.0
C      1  0.5983942764536  0.4968242121252  0.4616211141831 1.0
C      1  0.6289686171835  0.3047254558301  0.5128331381163 1.0
C      1  0.3571939128925  0.2842031557161  0.6556070575933 1.0
C      1  0.2664711737981  0.4109228349544  0.6298498942497 1.0
C      1  0.2473167735864  0.6663409586326  0.5077665933774 1.0
C      1  0.6419244546661  0.7536549368427  0.6656821543140 1.0
C      1  0.7960306884130  0.4367257122229  0.6066792345415 1.0
C      1  0.7782444832525  0.4146186636468  0.6957211966417 1.0
C      1  0.3136674715417  0.3621632027801  0.5109357987021 1.0
C      1  0.3595381610330  0.6250409668622  0.2607875347484 1.0
C      1  0.6752153290097  0.7225526988907  0.4074244596146 1.0
C      1  0.4871233150004  0.3713111540310  0.4268447833196 1.0
C      1  0.5365490940412  0.3712569158160  0.7807725979701 1.0
C      1  0.3168647293808  0.7043415585212  0.2925178500922 1.0
C      1  0.3840130417591  0.3312600740708  0.4454875690493 1.0
C      1  0.4576352601137  0.5024624455331  0.6684504932148 1.0
C      1  0.5803521250985  0.3197101030425  0.2820627308731 1.0
C      1  0.3711566382716  0.3446920659530  0.7291172395551 1.0
C      1  0.6907930047509  0.6108544785669  0.2545283821093 1.0
C      1  0.4173560946835  0.3108974387062  0.2887616164992 1.0
C      1  0.5017465361914  0.3139297497780  0.3426086958356 1.0
C      1  0.4352208513658  0.2765636497992  0.6027723699665 1.0
C      1  0.4287249926064  0.7438069514336  0.5898392694044 1.0
C      1  0.4282731317708  0.7645852118144  0.3738619368556 1.0
C      1  0.4951186446078  0.3513123135821  0.5920829025223 1.0
C      1  0.5942496941616  0.4757272066587  0.5664126234419 1.0
C      1  0.6840918217575  0.6292342814068  0.5637261997305 1.0
C      1  0.6848482306702  0.2902220129366  0.6906782826236 1.0
C      1  0.3487512461413  0.3314639035469  0.3473128185583 1.0
C      1  0.5589951983829  0.2311011246857  0.3568691519745 1.0
C      1  0.2913005689916  0.3233443295629  0.5956832863119 1.0
C      1  0.5933503999737  0.5945392913455  0.4485540832070 1.0
C      1  0.2506541455010  0.6567015628420  0.3464497324429 1.0
C      1  0.2035978187240  0.4188779244908  0.2652166230276 1.0
C      1  0.3154771234775  0.4236375281931  0.7086179422502 1.0
C      1  0.3674530971617  0.5026227502939  0.7050091576277 1.0
C      1  0.3588682775345  0.5577230033010  0.4174241241993 1.0
C      1  0.6386793288462  0.5592521326465  0.6091733155261 1.0
END
