TITL C-19544-864-5 -9.23 3375.00 -1576.83357471 0 0 193 (C1) n - 1
REM
REM Run started: at 2021.01.18 05:17:44 in /rds/project/t2_vol4/rds-t2-cs072/BORA/CARBON/AIRSS/Generating-Clusters/Str-Search/Only-C1/C100-200
REM VASP from code version vasp.5.4.4.18Apr17-6-g9f103f2a35 (build Oct 11 2019 16:45:47) gamma-only
REM
REM
REM
REM
REM ./C.cell (efaf0b2bf1589a83377268d7ebe2c73f)
REM AIRSS Version 0.9.1 bugfix July 2018 build 013d7b7c2542+ Fri, 06 Jul 2018 19:26:36 +0100
REM compiler GCC version 4.8.5 20150623 (Red Hat 4.8.5-39)
REM options -cpp -mtune=generic -march=x86-64 -g -O0
REM seed -115839880 1939548295 1036992443 1785438581 -810200959 -1234925877 478726639 1946887285 -2037739429 -1249699822 180963214 820741948
REM
REM C.POTCAR (d86ddea03c3ceb6dc662c8ad6801f873)
REM 
CELL 1.54180   15.00000   15.00000   15.00000   90.00000   90.00000   90.00000
LATT -1
SFAC C  
C      1  0.4514141955544  0.0677044896343  0.5485022442768 1.0
C      1  0.3163919921572  0.8029971466000  0.5761549471827 1.0
C      1  0.3566129190855  0.8119457707216  0.3716153362062 1.0
C      1  0.1514531249862  0.6729769232635  0.4205818770711 1.0
C      1  0.3444175625274  0.4454468972101  0.4357548881513 1.0
C      1  0.8390283740953  0.5042328394026  0.3995994760199 1.0
C      1  0.3193582353570  0.4956924685373  0.3613799625621 1.0
C      1  0.5946280218659  0.5899427628497  0.7331811785185 1.0
C      1  0.8786059075938  0.4478915549239  0.2611779516771 1.0
C      1  0.5931936677121  0.3985788639598  0.4296985090257 1.0
C      1  0.7124176010345  0.4279081380033  0.8337946830524 1.0
C      1  0.5287342608508  0.4860914796927  0.2323029352443 1.0
C      1  0.2660835823329  0.6910628642612  0.6981023333201 1.0
C      1  0.4478995869875  0.4163909346391  0.6920033013113 1.0
C      1  0.2494557399115  0.6455133187457  0.2916917573438 1.0
C      1  0.2902518532526  0.2343896298476  0.3270265293319 1.0
C      1  0.4934833401036  0.2632931463183  0.4324219340824 1.0
C      1  0.6507339401058  0.2423522587466  0.5483574779989 1.0
C      1  0.5880269211360  0.6296504429327  0.2574857040979 1.0
C      1  0.4314928988361  0.7513079161078  0.4178195079417 1.0
C      1  0.8516829961094  0.6886089436039  0.6605644404386 1.0
C      1  0.6304073595807  0.0842152604327  0.5786963658361 1.0
C      1  0.2074765387321  0.3983885327449  0.8159426640608 1.0
C      1  0.1115889355539  0.5888707130774  0.4422600032123 1.0
C      1  0.6505314117174  0.6301045596102  0.4555094083587 1.0
C      1  0.7776206809987  0.5185240971303  0.4708656896022 1.0
C      1  0.6843410286980  0.3989967333204  0.4727967520381 1.0
C      1  0.3909522378369  0.2821434511209  0.2092251682865 1.0
C      1  0.5221523968812  0.3978252350721  0.6300338563187 1.0
C      1  0.3206728333420  0.4658295372622  0.6539913019745 1.0
C      1  0.8064282883316  0.7064446529095  0.3849061864073 1.0
C      1  0.6343160331761  0.3332473402932  0.3631883215626 1.0
C      1  0.5694651046426  0.3115615894008  0.6575115011716 1.0
C      1  0.5786705306906  0.0851792128644  0.6561952003191 1.0
C      1  0.2976000603235  0.5533708586399  0.8123967908685 1.0
C      1  0.1547929037839  0.5520344383298  0.6676270242583 1.0
C      1  0.2743647938839  0.7694060218642  0.4010966685968 1.0
C      1  0.2147632244716  0.3534998962812  0.4099396550246 1.0
C      1  0.7496375283869  0.6180313951716  0.1667270185630 1.0
C      1  0.3064882462296  0.2989435358626  0.2550927898240 1.0
C      1  0.1046226928969  0.5283228717502  0.5864255667813 1.0
C      1  0.4856437692458  0.6785962635681  0.8285695893731 1.0
C      1  0.6546678163647  0.6668747211518  0.8931786498402 1.0
C      1  0.5257534341430  0.1211915058538  0.3406309027307 1.0
C      1  0.4707412337413  0.6298832320631  0.5345349320844 1.0
C      1  0.4707497145661  0.9483701689382  0.6625922798570 1.0
C      1  0.3221926611327  0.7611319763874  0.6670114361013 1.0
C      1  0.2374237028608  0.4667015714671  0.2979351576211 1.0
C      1  0.4644146856531  0.5982524820815  0.8806835746021 1.0
C      1  0.6616980547575  0.3024320168198  0.6248665680869 1.0
C      1  0.6658912154271  0.5340068972988  0.7592032572356 1.0
C      1  0.4390710295767  0.1538756715095  0.3066939253762 1.0
C      1  0.1682955065148  0.7242955057234  0.5034378018159 1.0
C      1  0.3650888302734  0.1801487062138  0.3627377971926 1.0
C      1  0.3569807517439  0.3715759490505  0.6642659969513 1.0
C      1  0.1262499934717  0.4884270953359  0.4333133087497 1.0
C      1  0.5801126786920  0.7022416760930  0.3264327246653 1.0
C      1  0.4219394329454  0.7993429624605  0.2093042059593 1.0
C      1  0.3303701223103  0.2880424705016  0.4981840368859 1.0
C      1  0.6007928888759  0.4787028580958  0.3778796473021 1.0
C      1  0.6569368124809  0.7758136966374  0.3389423802798 1.0
C      1  0.6677873095396  0.3471310444296  0.8677353812082 1.0
C      1  0.6485747714707  0.5241548046800  0.5732475816961 1.0
C      1  0.6315337462061  0.7112810999706  0.8276299443318 1.0
C      1  0.5973662464193  0.1601803556831  0.7190407017174 1.0
C      1  0.6401486138126  0.3633148016735  0.2682403851864 1.0
C      1  0.5731128765518  0.3315902672275  0.1976458880681 1.0
C      1  0.6181288453750  0.0897394434255  0.4828317119312 1.0
C      1  0.5571442188396  0.6716601648922  0.1642258613428 1.0
C      1  0.1243736769058  0.3619378707662  0.6631006031544 1.0
C      1  0.4409822309582  0.2181667302395  0.7027070872058 1.0
C      1  0.6839095823720  0.1980174216290  0.2500389719954 1.0
C      1  0.8675965453073  0.3364638990071  0.4821024072015 1.0
C      1  0.5336927033846  0.5394937309951  0.9081523474680 1.0
C      1  0.2965382272550  0.3681732667529  0.4517296050759 1.0
C      1  0.8836907574145  0.6093165639751  0.6400877649500 1.0
C      1  0.6406547399088  0.5728340225952  0.9212431200945 1.0
C      1  0.4673759502891  0.8655051606388  0.6034422482614 1.0
C      1  0.1727288356263  0.4351619277480  0.3720000291939 1.0
C      1  0.5021540042233  0.7231014846927  0.6743322909619 1.0
C      1  0.4379863120828  0.6650404696616  0.2606464466303 1.0
C      1  0.5536737497392  0.9068744314892  0.3760063771790 1.0
C      1  0.5330594357260  0.4886371517638  0.1305148726083 1.0
C      1  0.4384626301881  0.8738590583268  0.6996983483507 1.0
C      1  0.3453430617237  0.6311736074823  0.2648706288381 1.0
C      1  0.3658708959826  0.5975877940109  0.8816160621462 1.0
C      1  0.1551218162505  0.5015693208737  0.7428875364790 1.0
C      1  0.2178816628755  0.4928348048030  0.8169857064984 1.0
C      1  0.4076737131055  0.4770347175792  0.5056203880559 1.0
C      1  0.5613455012984  0.6823982072946  0.7627364369492 1.0
C      1  0.6812616312071  0.7063807635840  0.5971356553793 1.0
C      1  0.2797765588149  0.6527343370807  0.7843340898327 1.0
C      1  0.7180882782750  0.4424545817491  0.7312251387352 1.0
C      1  0.2190030898620  0.7024517544877  0.3587439527622 1.0
C      1  0.7495065526145  0.7354928755673  0.3123660817644 1.0
C      1  0.5378206916497  0.4478939139516  0.9173561167128 1.0
C      1  0.4784906450660  0.9306847752468  0.4290457861385 1.0
C      1  0.4908397198957  0.6364907482846  0.6233252218568 1.0
C      1  0.7545540998246  0.5747764304899  0.2580017738890 1.0
C      1  0.2813229959286  0.3914401609844  0.2368530080867 1.0
C      1  0.6548066899736  0.1922427941529  0.7856690499602 1.0
C      1  0.6240629400859  0.7906112020066  0.5822987342548 1.0
C      1  0.6608995178933  0.5632496698979  0.2897075814866 1.0
C      1  0.3907884622945  0.8479472348707  0.5432869442785 1.0
C      1  0.6195890474146  0.5181672207584  0.0903682921284 1.0
C      1  0.7635729638753  0.7243210839407  0.6344867150870 1.0
C      1  0.7246056803833  0.3442101790919  0.4117366182715 1.0
C      1  0.4151480387055  0.2226978363447  0.6085268800811 1.0
C      1  0.8904410038806  0.3800350675949  0.5504795900121 1.0
C      1  0.2739064161519  0.3310197775869  0.8155589170474 1.0
C      1  0.5920270009524  0.1904254241912  0.3077703113170 1.0
C      1  0.8225575790269  0.3424525276242  0.4032095258604 1.0
C      1  0.1414549435812  0.4023067038918  0.7420750171529 1.0
C      1  0.5759604276212  0.2603255115110  0.4896184122290 1.0
C      1  0.4643942985408  0.5556167909769  0.4734170639506 1.0
C      1  0.5896036580081  0.3829747376650  0.9057017970699 1.0
C      1  0.5248235770340  0.5560442296832  0.6720569402933 1.0
C      1  0.5360799672110  0.2355030533768  0.7003682921625 1.0
C      1  0.4022531032852  0.2149079030432  0.4526406950866 1.0
C      1  0.4150665076751  0.7354278719745  0.8124061591700 1.0
C      1  0.8489166911580  0.6627099579720  0.4412895697519 1.0
C      1  0.6548781357641  0.2989208345995  0.1285318371855 1.0
C      1  0.6983428331431  0.2910423528236  0.2210255096578 1.0
C      1  0.3574403390897  0.2990099235508  0.8420698972021 1.0
C      1  0.7496428007899  0.8799889642147  0.6106396015987 1.0
C      1  0.7214287113199  0.3639067580316  0.6645559892485 1.0
C      1  0.3103704859319  0.5708106443233  0.1949695417817 1.0
C      1  0.2312022400998  0.5579677669256  0.2478220604606 1.0
C      1  0.5213868591567  0.3477324841900  0.4759333658945 1.0
C      1  0.4173267921189  0.8522238491263  0.4469825415391 1.0
C      1  0.5444860072452  0.0760648885615  0.4227088745243 1.0
C      1  0.6589856196016  0.6226090176526  0.5496756605973 1.0
C      1  0.3678464401357  0.5696614264856  0.3415584702757 1.0
C      1  0.3131440330656  0.3070529548789  0.7301228306084 1.0
C      1  0.1103142573375  0.4520254161789  0.5270688737996 1.0
C      1  0.4834338527430  0.6394581324006  0.1162917458168 1.0
C      1  0.7639064301099  0.6734674155587  0.2390781293093 1.0
C      1  0.3663856465645  0.5146838167034  0.1437795968063 1.0
C      1  0.8605181648460  0.4197367799054  0.3511684806073 1.0
C      1  0.6751515358860  0.8708163732527  0.5733677578924 1.0
C      1  0.2087452742422  0.6343870293206  0.6365305829823 1.0
C      1  0.4504869370874  0.2136880902496  0.2315171004064 1.0
C      1  0.6354836082700  0.7065441447343  0.4055024268900 1.0
C      1  0.6416297588188  0.5577152025352  0.3897560496372 1.0
C      1  0.3772903810193  0.2440311801025  0.7615701859933 1.0
C      1  0.4610610825838  0.3847706658519  0.5452336930920 1.0
C      1  0.2888090582996  0.6005656212180  0.5697443900209 1.0
C      1  0.5004265187572  0.5760379182012  0.2770286226145 1.0
C      1  0.8022532493747  0.8148495906171  0.6499345860496 1.0
C      1  0.1397084647590  0.6768644882892  0.5751468333253 1.0
C      1  0.4755761728174  0.0167025669289  0.4646148840134 1.0
C      1  0.7123447714057  0.4759521055641  0.5188849782251 1.0
C      1  0.3183571125313  0.6704401208204  0.5149856178099 1.0
C      1  0.6314112663724  0.2139298854448  0.1698814158152 1.0
C      1  0.3862332416836  0.3162376465129  0.5798602697152 1.0
C      1  0.8853583919944  0.5438292140670  0.5808103967940 1.0
C      1  0.8781266518270  0.7799795256029  0.6918525865567 1.0
C      1  0.1150277596532  0.3770499162088  0.5796311435966 1.0
C      1  0.6585555676689  0.5548718135386  0.0170926583602 1.0
C      1  0.8652754203467  0.4479137052297  0.6071251180820 1.0
C      1  0.4660734153028  0.7145282546894  0.1807906441468 1.0
C      1  0.2618206934889  0.7564676844642  0.5011159452878 1.0
C      1  0.4063643011907  0.6877826560302  0.4897727408663 1.0
C      1  0.4903048458686  0.0387996363214  0.6347011274365 1.0
C      1  0.4520264537786  0.5482220082067  0.1133060807778 1.0
C      1  0.6162499263485  0.4671576493415  0.2797360610251 1.0
C      1  0.7925617180245  0.4225016636658  0.6665312230456 1.0
C      1  0.3313950698865  0.5158737005799  0.5753136468765 1.0
C      1  0.4590096844661  0.5891510570868  0.3754420857509 1.0
C      1  0.5736712293098  0.4879061465417  0.6162980052132 1.0
C      1  0.3828423906800  0.8245502723486  0.2779616016675 1.0
C      1  0.3490402780741  0.5209196622224  0.7341676571989 1.0
C      1  0.5456533634239  0.2339479117672  0.2230371064483 1.0
C      1  0.4126824821325  0.7781942000636  0.7213014529286 1.0
C      1  0.3463076686020  0.4233702902119  0.1687809335757 1.0
C      1  0.4221869639790  0.1608092027282  0.5399756992660 1.0
C      1  0.4159665037971  0.3619686334044  0.1628817551851 1.0
C      1  0.8272323194077  0.5197541312019  0.2981788507976 1.0
C      1  0.4435399895935  0.5039759537581  0.7189429440182 1.0
C      1  0.3419552432405  0.6837062182445  0.8456149242970 1.0
C      1  0.6730980209516  0.2615083804751  0.8301089818256 1.0
C      1  0.5828889984730  0.2530314558203  0.3836474547109 1.0
C      1  0.5372707923669  0.7931471996406  0.6108690418646 1.0
C      1  0.2548043531281  0.2221150049459  0.4837705886605 1.0
C      1  0.6931852549786  0.5805798531920  0.1008226645713 1.0
C      1  0.6898223716019  0.5180452015306  0.8512678497604 1.0
C      1  0.8581272510541  0.5733150535152  0.4824762524382 1.0
C      1  0.5052196469786  0.4005189602239  0.1736625377302 1.0
C      1  0.0928016650550  0.6029030758714  0.5362715447781 1.0
C      1  0.4790889227492  0.6933269627894  0.3509936558866 1.0
C      1  0.2307683219660  0.2571045135724  0.3968599964331 1.0
C      1  0.6184618169995  0.8633755216151  0.3506784874857 1.0
C      1  0.6764171433876  0.1508446592494  0.5284469060413 1.0
END
