TITL C-193553-3116-11 -2.594 3375.00 -435.21965199 0 0 53 (C1) n - 1
REM
REM Run started: at 2020.12.26 16:10:06 in /rds/project/t2_vol4/rds-t2-cs072/BORA/CARBON/AIRSS/Generating-Clusters/Str-Search/Only-C1/C10-100
REM VASP from code version vasp.5.4.4.18Apr17-6-g9f103f2a35 (build Oct 11 2019 16:45:47) gamma-only
REM
REM
REM
REM
REM ./C.cell (67c5d0192afd7a3ce4a0888e5fe73b87)
REM AIRSS Version 0.9.1 bugfix July 2018 build 013d7b7c2542+ Fri, 06 Jul 2018 19:26:36 +0100
REM compiler GCC version 4.8.5 20150623 (Red Hat 4.8.5-39)
REM options -cpp -mtune=generic -march=x86-64 -g -O0
REM seed -46913487 -1739107719 -1785352517 720618438 -244791980 -401752683 1807199284 223683598 -682836925 -1450330029 -1617178200 -1219301234
REM
REM C.POTCAR (d86ddea03c3ceb6dc662c8ad6801f873)
REM 
CELL 1.54180   15.00000   15.00000   15.00000   90.00000   90.00000   90.00000
LATT -1
SFAC C  
C      1  0.3507419546675  0.3092240392151  0.4962402361186 1.0
C      1  0.3672926283578  0.5460061702120  0.3177339534647 1.0
C      1  0.6909258947465  0.5279354669279  0.6739462245124 1.0
C      1  0.5636139893420  0.4185236358934  0.7070364195423 1.0
C      1  0.4426258371817  0.4922934276000  0.3189267329781 1.0
C      1  0.3161002007514  0.4006910977335  0.3586662715084 1.0
C      1  0.5151102073607  0.7077231312596  0.5003703529993 1.0
C      1  0.3666239771885  0.6240638003879  0.5335076016229 1.0
C      1  0.3018447619101  0.4677173821002  0.5824208584356 1.0
C      1  0.5292754326117  0.5048383302978  0.3739342172827 1.0
C      1  0.5955007064418  0.2837382953561  0.5031734108578 1.0
C      1  0.5758107805659  0.7127410111348  0.4332824255151 1.0
C      1  0.4932815457817  0.4912885237552  0.7205780777357 1.0
C      1  0.7091888540460  0.5615631573358  0.4003945227086 1.0
C      1  0.5708473743613  0.6400968613323  0.6800888435480 1.0
C      1  0.6970686200636  0.4677956261145  0.3738426807531 1.0
C      1  0.6526745181785  0.6079431431090  0.3322396978297 1.0
C      1  0.2664527025530  0.4539972610044  0.4961581989533 1.0
C      1  0.6557866280074  0.6112031367714  0.6433535257566 1.0
C      1  0.4374605539303  0.2855566054816  0.4585693273022 1.0
C      1  0.2951800734019  0.3724359770133  0.4505030889578 1.0
C      1  0.3631840831237  0.5431394366241  0.5853430706914 1.0
C      1  0.4659457115451  0.3520560106826  0.3966743443565 1.0
C      1  0.4642632862159  0.2938114209899  0.6100411660524 1.0
C      1  0.4294648324720  0.6897479378010  0.3268465094968 1.0
C      1  0.3223683555304  0.6134850271957  0.4481929451024 1.0
C      1  0.6510364984455  0.4428636002278  0.6865693025920 1.0
C      1  0.4467800801534  0.4940095956748  0.5967506701489 1.0
C      1  0.3415040766039  0.3958098389076  0.6341046407479 1.0
C      1  0.4438279454080  0.6775865646066  0.5622623565490 1.0
C      1  0.4847628245181  0.6565177048267  0.6457832553038 1.0
C      1  0.5089749369367  0.6942460550310  0.2961905785980 1.0
C      1  0.5080551196937  0.4270508839089  0.4367455216809 1.0
C      1  0.7018430384398  0.4097330886774  0.4524577637017 1.0
C      1  0.2731098871814  0.5293026720661  0.4337739460491 1.0
C      1  0.3669406585014  0.6337437260684  0.3616285279876 1.0
C      1  0.6575470675250  0.3290516931998  0.4712485233392 1.0
C      1  0.7173792156389  0.4566235643701  0.6187070302509 1.0
C      1  0.4979706619081  0.3584002212091  0.6700574481164 1.0
C      1  0.5027970503224  0.4844250075199  0.5157166161721 1.0
C      1  0.7288851113282  0.4667505906791  0.5255405193685 1.0
C      1  0.5017378264778  0.5841985663318  0.7088568668364 1.0
C      1  0.3684858827830  0.3167292658798  0.5910234476585 1.0
C      1  0.5874693117322  0.6382938716931  0.4964304749773 1.0
C      1  0.4291208920436  0.4290341147946  0.6721240379055 1.0
C      1  0.5055309159162  0.2698268364264  0.5266377596950 1.0
C      1  0.7203361682691  0.5602685698313  0.4964922939349 1.0
C      1  0.5892518238061  0.6827180971547  0.3413093999809 1.0
C      1  0.5383999231267  0.5560284968470  0.4657032619268 1.0
C      1  0.2919482369190  0.4930928656469  0.3481197468180 1.0
C      1  0.6211183678837  0.5157915234886  0.3357309517304 1.0
C      1  0.4094327160701  0.3998268423363  0.3373421906582 1.0
C      1  0.6671204520319  0.6184600292668  0.5506282631897 1.0
END
