TITL C-19563-2797-3 -5.794 3375.00 -986.33178404 0 0 119 (C1) n - 1
REM
REM Run started: at 2021.01.17 22:42:55 in /rds/project/t2_vol4/rds-t2-cs072/BORA/CARBON/AIRSS/Generating-Clusters/Str-Search/Only-C1/C100-200
REM VASP from code version vasp.5.4.4.18Apr17-6-g9f103f2a35 (build Oct 11 2019 16:45:47) gamma-only
REM
REM
REM
REM
REM ./C.cell (efaf0b2bf1589a83377268d7ebe2c73f)
REM AIRSS Version 0.9.1 bugfix July 2018 build 013d7b7c2542+ Fri, 06 Jul 2018 19:26:36 +0100
REM compiler GCC version 4.8.5 20150623 (Red Hat 4.8.5-39)
REM options -cpp -mtune=generic -march=x86-64 -g -O0
REM seed 522140793 -261045140 724581629 -2140541746 456854367 111160377 1862838075 -1915513633 75749802 -1917358754 -1504061275 -1917969089
REM
REM C.POTCAR (d86ddea03c3ceb6dc662c8ad6801f873)
REM 
CELL 1.54180   15.00000   15.00000   15.00000   90.00000   90.00000   90.00000
LATT -1
SFAC C  
C      1  0.4606468476574  0.4003263312218  0.5531263993733 1.0
C      1  0.6930848333414  0.2523269800411  0.7205363756550 1.0
C      1  0.6168628273751  0.4650240180379  0.3458839930370 1.0
C      1  0.6398683454971  0.2281307401115  0.5291959366279 1.0
C      1  0.7180505757947  0.2737348061458  0.4898059869789 1.0
C      1  0.4395691999142  0.5526652145352  0.5974976878019 1.0
C      1  0.6611282741903  0.6228020468309  0.7164613215419 1.0
C      1  0.6645000865837  0.3219663259664  0.4154994728914 1.0
C      1  0.3617033689750  0.3434756736011  0.4403876747580 1.0
C      1  0.6871039930324  0.5287920439885  0.3067222510975 1.0
C      1  0.5041632947442  0.7321495909744  0.2412345586220 1.0
C      1  0.7833473715216  0.5034057680631  0.3052996669025 1.0
C      1  0.6271889990341  0.8040366990291  0.4387155035702 1.0
C      1  0.5312165689710  0.4212335744361  0.7970615836874 1.0
C      1  0.3305438542160  0.3300900385968  0.2831983031182 1.0
C      1  0.3502553903887  0.4458325236144  0.2039975634623 1.0
C      1  0.3459834974881  0.7350060465871  0.2967384699377 1.0
C      1  0.5043871829585  0.5990568212864  0.4260799599606 1.0
C      1  0.2781443577561  0.4055834355332  0.2587990339107 1.0
C      1  0.5007990298421  0.4833030870413  0.5909925516868 1.0
C      1  0.7030954928047  0.4538188859053  0.7474915955319 1.0
C      1  0.3148388246463  0.7882387728644  0.4464767712270 1.0
C      1  0.3038940272581  0.5240085762292  0.7015457068647 1.0
C      1  0.2403951586226  0.6218552113218  0.2508000869121 1.0
C      1  0.4868310684851  0.6500389580746  0.2008905468387 1.0
C      1  0.1759465612051  0.4036654049619  0.5934907500752 1.0
C      1  0.4850946438148  0.8011694920898  0.3748352774732 1.0
C      1  0.6532510939702  0.6818462871898  0.2907780319188 1.0
C      1  0.3466447799952  0.1965345617351  0.5747278751504 1.0
C      1  0.5199480492475  0.1783318347332  0.3749462329010 1.0
C      1  0.5300391577066  0.3581960227661  0.4999954516918 1.0
C      1  0.6625205353727  0.4234248629991  0.4265495177430 1.0
C      1  0.4195261053403  0.2773560667838  0.4237762724803 1.0
C      1  0.5802456362058  0.6757937692881  0.7211371130297 1.0
C      1  0.2327696486838  0.6589415700448  0.3877513523201 1.0
C      1  0.3821062776144  0.8112493911388  0.4880245049279 1.0
C      1  0.7593366167087  0.5731673356930  0.5936725729334 1.0
C      1  0.6153985240416  0.4572577650155  0.7826884125322 1.0
C      1  0.7777542014683  0.3348089832475  0.5329619268706 1.0
C      1  0.7047350039095  0.7478044421132  0.4423037391599 1.0
C      1  0.3441966023793  0.5226005726911  0.6120556350338 1.0
C      1  0.5926883412202  0.4272974075384  0.4939199615933 1.0
C      1  0.5899674409634  0.2899582774094  0.4792412274304 1.0
C      1  0.4301700464748  0.1712400821145  0.5314241904870 1.0
C      1  0.4608704386886  0.2010474027795  0.6821010735860 1.0
C      1  0.8276088043130  0.6642436331792  0.4859077758692 1.0
C      1  0.1882554848245  0.5258156653350  0.4646634067680 1.0
C      1  0.7405231684856  0.7303673540217  0.6070590710988 1.0
C      1  0.3251457355304  0.6645269683970  0.2334611790700 1.0
C      1  0.7309214630479  0.6436839112868  0.6489109629962 1.0
C      1  0.4997554382070  0.4075802975033  0.2421606843810 1.0
C      1  0.4033530280849  0.3321977382807  0.7856682076217 1.0
C      1  0.6119744793398  0.2218481089667  0.6949713205688 1.0
C      1  0.3399711833820  0.6723301149168  0.6867248099680 1.0
C      1  0.4978100579602  0.3264523744227  0.7824672287839 1.0
C      1  0.7199229751634  0.4996506650603  0.4649243819141 1.0
C      1  0.5266640477331  0.2470230997627  0.7350753301999 1.0
C      1  0.8246443215787  0.4942683178676  0.4666136750874 1.0
C      1  0.7684668314865  0.7304423167909  0.5140393850275 1.0
C      1  0.3375879649629  0.2858970202318  0.7311663534359 1.0
C      1  0.4375630214723  0.5769302393901  0.7778208523593 1.0
C      1  0.3964558608620  0.6168753416248  0.1925385482015 1.0
C      1  0.2018786451555  0.6214932969703  0.4724086166690 1.0
C      1  0.5697480325259  0.2212171819317  0.3237338966155 1.0
C      1  0.5768793977219  0.8036955686787  0.3579040810494 1.0
C      1  0.3775020467339  0.4238196883838  0.7969177860289 1.0
C      1  0.7579216284536  0.3961919544714  0.6948283212113 1.0
C      1  0.4753273169261  0.7830301069992  0.4731878555162 1.0
C      1  0.6723028397744  0.7871407433979  0.6368816400450 1.0
C      1  0.4021065362625  0.5204915410460  0.1854112166586 1.0
C      1  0.6612865020438  0.5359385480194  0.7509267439179 1.0
C      1  0.3450573996925  0.5968928794755  0.7486364174448 1.0
C      1  0.4307719865608  0.6891001286426  0.6666457878719 1.0
C      1  0.5003407789808  0.1723479214764  0.5990899265116 1.0
C      1  0.5517763058209  0.5765973811648  0.2089015999847 1.0
C      1  0.4085622233554  0.3732640144363  0.2392466028218 1.0
C      1  0.1993184322463  0.3432911299162  0.6493770867352 1.0
C      1  0.6354485439992  0.5952042789653  0.2507462410740 1.0
C      1  0.2508310702239  0.2541034435169  0.4438079771134 1.0
C      1  0.6814065624592  0.5774036488467  0.4020991292978 1.0
C      1  0.2114357431852  0.4630340965495  0.5357589812980 1.0
C      1  0.3105983373300  0.4629273151241  0.5489818388452 1.0
C      1  0.6137139294231  0.3054901157689  0.3270456535635 1.0
C      1  0.7638380932775  0.4129089565034  0.5982096435532 1.0
C      1  0.2239703289599  0.6629737609427  0.5539927413546 1.0
C      1  0.7004023083891  0.6751240855047  0.3778616463073 1.0
C      1  0.5810934567070  0.5547269471168  0.3992460880442 1.0
C      1  0.5762797295722  0.3860553452594  0.2977385058738 1.0
C      1  0.3739456432448  0.4015501892473  0.5152432202929 1.0
C      1  0.5941513783359  0.7604428875394  0.6795386378021 1.0
C      1  0.2311886352733  0.4119176731123  0.3411582266790 1.0
C      1  0.5941022061760  0.1887723998001  0.6041592028448 1.0
C      1  0.5970948826756  0.4848392937787  0.5653106478185 1.0
C      1  0.4227186538884  0.5671959030853  0.3936520038155 1.0
C      1  0.8362737850159  0.4927943941914  0.3679840978068 1.0
C      1  0.4963536279900  0.4952800758596  0.2029870463511 1.0
C      1  0.5633976121348  0.8170879328194  0.5118875024041 1.0
C      1  0.2800924948921  0.3275788306006  0.3815121366285 1.0
C      1  0.2680053916182  0.3514205726062  0.7117595809190 1.0
C      1  0.8281968034567  0.5805677505008  0.5247039493473 1.0
C      1  0.2761586612786  0.2206798349014  0.5170230763382 1.0
C      1  0.3007233147175  0.4373017023612  0.7418652149030 1.0
C      1  0.7547307863421  0.3083462867327  0.7225406543075 1.0
C      1  0.2718007525251  0.6734739935720  0.6208310159854 1.0
C      1  0.2856381993719  0.7357792221653  0.3740657015299 1.0
C      1  0.5901264106364  0.8129878459124  0.5991892175530 1.0
C      1  0.2080840891570  0.4962896751588  0.3770973202032 1.0
C      1  0.5912489752110  0.7509710076908  0.2797823000651 1.0
C      1  0.4351658741789  0.7679760544024  0.3000824897312 1.0
C      1  0.8276184725901  0.4095868976575  0.5223799442645 1.0
C      1  0.3481430924516  0.5559859677122  0.3631629556968 1.0
C      1  0.2568109996007  0.5720058892011  0.3323829424723 1.0
C      1  0.4528611476057  0.4821720376164  0.8012020749826 1.0
C      1  0.3687071713691  0.2203466200237  0.6705484526185 1.0
C      1  0.4464136268170  0.1923454496888  0.4354857656665 1.0
C      1  0.6992077550229  0.4990511146511  0.5671141804080 1.0
C      1  0.4590251662515  0.6487628583884  0.5785601847856 1.0
C      1  0.4850448285532  0.6755529327005  0.4951870930469 1.0
C      1  0.4897353432936  0.6477456578058  0.7370236426407 1.0
END
