TITL C-191355-4848-5 -3.231 3375.00 -523.67214918 0 0 65 (C1) n - 1
REM
REM Run started: at 2020.12.23 21:46:01 in /rds/project/t2_vol4/rds-t2-cs072/BORA/CARBON/AIRSS/Generating-Clusters/Str-Search/Only-C1/C10-100
REM VASP from code version vasp.5.4.4.18Apr17-6-g9f103f2a35 (build Oct 11 2019 16:45:47) gamma-only
REM
REM
REM
REM
REM ./C.cell (67c5d0192afd7a3ce4a0888e5fe73b87)
REM AIRSS Version 0.9.1 bugfix July 2018 build 013d7b7c2542+ Fri, 06 Jul 2018 19:26:36 +0100
REM compiler GCC version 4.8.5 20150623 (Red Hat 4.8.5-39)
REM options -cpp -mtune=generic -march=x86-64 -g -O0
REM seed -1199222350 665769834 -989212427 -43036843 1013881568 1895628278 -1945606009 154126273 1205787651 2077988845 627594829 -1734821335
REM
REM C.POTCAR (d86ddea03c3ceb6dc662c8ad6801f873)
REM 
CELL 1.54180   15.00000   15.00000   15.00000   90.00000   90.00000   90.00000
LATT -1
SFAC C  
C      1  0.2907096804424  0.3318489301499  0.3756240225355 1.0
C      1  0.5936338687910  0.7581588022719  0.4340310782656 1.0
C      1  0.3865893912931  0.3499519654646  0.5831279711583 1.0
C      1  0.5284568230711  0.4712673029415  0.5041397856562 1.0
C      1  0.3457657032632  0.4726990658859  0.3073390528799 1.0
C      1  0.3393226659351  0.7339739494071  0.4276635249475 1.0
C      1  0.4531714363351  0.3663842145785  0.6473749200987 1.0
C      1  0.5784424261007  0.3168796537997  0.4580180939863 1.0
C      1  0.6310879281638  0.6078719980242  0.3920745286537 1.0
C      1  0.4447292607589  0.6002948684597  0.3022433590845 1.0
C      1  0.7450819246710  0.5730103140040  0.6286043404238 1.0
C      1  0.6468796000910  0.2189256754814  0.5764349051314 1.0
C      1  0.3372708764661  0.6660860831785  0.7524287926530 1.0
C      1  0.5705314681206  0.4950128707401  0.2799425068276 1.0
C      1  0.5471218366438  0.3428776847071  0.6329049895043 1.0
C      1  0.3954594562676  0.6150022471876  0.6873838930851 1.0
C      1  0.3973162669753  0.5572725804277  0.4452689219837 1.0
C      1  0.3717370033060  0.5592271026756  0.3476978534691 1.0
C      1  0.4564410062981  0.2785156249333  0.2865378192014 1.0
C      1  0.4819715318107  0.2768515178393  0.4506591869733 1.0
C      1  0.5377770604923  0.5509343013539  0.7284704709343 1.0
C      1  0.6095460367820  0.5918075349402  0.7214787629524 1.0
C      1  0.4854342655015  0.5259287127600  0.2583467710974 1.0
C      1  0.2256866488974  0.4712550413853  0.5049018588086 1.0
C      1  0.6110139389385  0.3734649850690  0.3738583524715 1.0
C      1  0.7599632686328  0.4599227685256  0.4218098873434 1.0
C      1  0.6348186761867  0.3495986316421  0.6887679610988 1.0
C      1  0.4485988625494  0.5310429287268  0.7067141116266 1.0
C      1  0.6774914806575  0.4461881657466  0.3825062919134 1.0
C      1  0.6730543504752  0.7183897199115  0.6467165113762 1.0
C      1  0.2616026566901  0.4880764828171  0.5907445167445 1.0
C      1  0.7543060404791  0.4865408690878  0.6607529187044 1.0
C      1  0.2899055344523  0.6183288824228  0.6954997341883 1.0
C      1  0.2309194093629  0.4615201046074  0.4236782316480 1.0
C      1  0.2473043890792  0.5827714785513  0.6197223154301 1.0
C      1  0.6618153243491  0.5922498408514  0.4880827130820 1.0
C      1  0.2409799400267  0.6449677842756  0.5489246728907 1.0
C      1  0.6881967820700  0.4257351673185  0.6530274316344 1.0
C      1  0.4110035332844  0.7297496522155  0.3838488081888 1.0
C      1  0.4706932522650  0.2496137907138  0.3644029274961 1.0
C      1  0.7867590267090  0.5245358402429  0.4703101752255 1.0
C      1  0.6162435699197  0.2709436568035  0.6492226538975 1.0
C      1  0.6105001074579  0.5225359957730  0.5246439739042 1.0
C      1  0.3985764632970  0.3006724455796  0.4996945634059 1.0
C      1  0.2790029785849  0.4219813770376  0.3521626881359 1.0
C      1  0.6355123373108  0.5285428204146  0.3420344514032 1.0
C      1  0.4811103978087  0.6803747140333  0.3431922825587 1.0
C      1  0.5603478550543  0.3987640383211  0.2979957478556 1.0
C      1  0.7516920997616  0.5848356596227  0.5309475606484 1.0
C      1  0.6388803502189  0.2504607874879  0.4998263224383 1.0
C      1  0.4113055948884  0.4502292527862  0.6768065236065 1.0
C      1  0.5695655782521  0.3860966740486  0.5405789987461 1.0
C      1  0.4214477808805  0.6297203650848  0.5978098003779 1.0
C      1  0.4748144159446  0.3667909155104  0.2648804693827 1.0
C      1  0.4231261342755  0.4473525722692  0.2568474689938 1.0
C      1  0.4522822129798  0.4896390250091  0.4653431646908 1.0
C      1  0.6415588944869  0.4461845185947  0.5727004170648 1.0
C      1  0.6826400887515  0.6320256601445  0.6776684925243 1.0
C      1  0.3253022625310  0.2956947284169  0.4419152161162 1.0
C      1  0.6579100511556  0.7778523909282  0.5900282420378 1.0
C      1  0.3867369051416  0.6199354475798  0.5172842328528 1.0
C      1  0.5705589097171  0.6856555773172  0.3792225390265 1.0
C      1  0.3329716907229  0.4330396147617  0.6185698727899 1.0
C      1  0.3051349327494  0.6836472106634  0.5011334692105 1.0
C      1  0.6241877554234  0.7822894164894  0.5074255769572 1.0
END
