TITL C-191496-5079-7 -5.94 3375.00 0 0 0 125 (C1) n - 1
REM
REM Run started: at 2020.03.16 03:36:45 in /rds/user/bk393/hpc-work/AIRSS.pl-DENE/CARBON/New-Try
REM VASP from code version vasp.5.4.4.18Apr17-6-g9f103f2a35 (build Oct 11 2019 16:45:47) gamma-only
REM
REM
REM
REM
REM ./C.cell (9f5935e56d41cf50cb14479ce98dda23)
REM AIRSS Version 0.9.1 bugfix July 2018 build 013d7b7c2542+ Fri, 06 Jul 2018 19:26:36 +0100
REM compiler GCC version 4.8.5 20150623 (Red Hat 4.8.5-39)
REM options -cpp -mtune=generic -march=x86-64 -g -O0
REM seed 488075487 -628936629 -1064757082 -1721489307 1690673935 934836616 -842210329 123168755 -959173371 -1672804289 -744359268 -112785029
REM
REM C.POTCAR (d86ddea03c3ceb6dc662c8ad6801f873)
REM 
CELL 1.54180   15.00000   15.00000   15.00000   90.00000   90.00000   90.00000
LATT -1
SFAC C  
C      1  0.4112506182448  0.8208304257214  0.6705541906504 1.0
C      1  0.5045896233679  0.7245628876451  0.7662038161533 1.0
C      1  0.5596829259562  0.5761651407427  0.6361932960587 1.0
C      1  0.5653920194409  0.8299574480446  0.5536900004836 1.0
C      1  0.6549539090570  0.8065924879799  0.6953004293411 1.0
C      1  0.6391216618884  0.7345061014594  0.4134809344548 1.0
C      1  0.3727406632252  0.5420844579622  0.2316414024870 1.0
C      1  0.4279572024846  0.5999387564809  0.2866158582526 1.0
C      1  0.5646496528257  0.3963010846044  0.1970787858018 1.0
C      1  0.7590915765039  0.5165472204075  0.2927512344372 1.0
C      1  0.6798423774329  0.2698793093469  0.4184009981119 1.0
C      1  0.4741560904015  0.3764661210452  0.5298339777582 1.0
C      1  0.3682372281098  0.2113292450044  0.7195398382436 1.0
C      1  0.5557512029057  0.2509596067367  0.2843334518750 1.0
C      1  0.1700986642041  0.5316059271320  0.5758673525678 1.0
C      1  0.3073246028053  0.6302367429897  0.6413925122461 1.0
C      1  0.7326493823636  0.3369707039528  0.6452692827405 1.0
C      1  0.8130502196171  0.4868147421916  0.3697048144045 1.0
C      1  0.5201820170051  0.4688303683813  0.7787647272294 1.0
C      1  0.7872243610110  0.5724356534306  0.5221700257272 1.0
C      1  0.5078410362972  0.7743592760482  0.3485514085804 1.0
C      1  0.5364580448818  0.4896302600040  0.1842777751349 1.0
C      1  0.6935902860601  0.3307110265458  0.2822610257549 1.0
C      1  0.3522486945686  0.6736464300051  0.7266648799058 1.0
C      1  0.5895872265777  0.7229392624325  0.3335682308541 1.0
C      1  0.5859479563060  0.2869152189787  0.4623216841998 1.0
C      1  0.4968792897470  0.8028124715934  0.7078502114097 1.0
C      1  0.4774015811070  0.5521301869553  0.3623403167619 1.0
C      1  0.1325693012702  0.6666180675636  0.3899393721256 1.0
C      1  0.6556977602358  0.4028603295008  0.6294874062504 1.0
C      1  0.8083633977329  0.5703108369960  0.4251531949917 1.0
C      1  0.5242706858517  0.2054207252060  0.4372079615589 1.0
C      1  0.3021496581144  0.2571933603189  0.3136083925809 1.0
C      1  0.4323330972794  0.6383058335448  0.5110841620447 1.0
C      1  0.4266286360663  0.8131662125381  0.3392642293799 1.0
C      1  0.2727486623017  0.4346188340008  0.7617014185210 1.0
C      1  0.5136155039668  0.3220447678206  0.2286416950676 1.0
C      1  0.4433493377218  0.4422461346962  0.6507080446089 1.0
C      1  0.3918639738366  0.4129747510730  0.5705221315490 1.0
C      1  0.2575237797586  0.2948551291052  0.3917922644342 1.0
C      1  0.7169866910647  0.3590291067618  0.3764979355114 1.0
C      1  0.3323689658769  0.2750264466051  0.7657926761149 1.0
C      1  0.6099692728839  0.5426768957620  0.2306001022608 1.0
C      1  0.2217804065885  0.3906920889593  0.5436000577133 1.0
C      1  0.2599724197937  0.7854504831490  0.3265545225640 1.0
C      1  0.5837597772722  0.5618181784559  0.4765443354611 1.0
C      1  0.4339502885437  0.6537263035343  0.7666945446194 1.0
C      1  0.6353368355633  0.5282421934820  0.3965405307011 1.0
C      1  0.1890702146061  0.4307949825934  0.4572329626847 1.0
C      1  0.7937028662404  0.3949574600333  0.5033089303214 1.0
C      1  0.2968185599791  0.3528323745530  0.7748221330649 1.0
C      1  0.2288697275885  0.5661922604510  0.6448210002515 1.0
C      1  0.8308031088395  0.4814924037435  0.6863770091052 1.0
C      1  0.5781342430210  0.3416707672697  0.6550607953427 1.0
C      1  0.5858581102867  0.4660870691703  0.8412468935475 1.0
C      1  0.7078626208900  0.6280053998904  0.5442114540369 1.0
C      1  0.6698826483714  0.4661267435239  0.8572257928587 1.0
C      1  0.4175964951413  0.3255813691600  0.2580742936792 1.0
C      1  0.6749058785241  0.4770281958135  0.5838180702401 1.0
C      1  0.5787864735537  0.6387993468073  0.2698764199628 1.0
C      1  0.4063183743258  0.2514560308644  0.3289540175625 1.0
C      1  0.3870848854257  0.5832627665835  0.5857359706898 1.0
C      1  0.2960741874732  0.7279668469361  0.6105446322422 1.0
C      1  0.7068736836097  0.1713403431291  0.5594111652743 1.0
C      1  0.8011350128560  0.4517999663452  0.7730434543198 1.0
C      1  0.6682451607594  0.1969157901276  0.6316672454647 1.0
C      1  0.6912068944455  0.4856188977409  0.2370139014727 1.0
C      1  0.5696820893422  0.6018582192085  0.7224622676282 1.0
C      1  0.6374038045767  0.4240116613134  0.3971219733878 1.0
C      1  0.2787118053317  0.4105774279335  0.2958466716129 1.0
C      1  0.4790197698368  0.8414990984694  0.5169447208995 1.0
C      1  0.6278734123363  0.5637246312616  0.5650967817773 1.0
C      1  0.8315175509027  0.5281108583684  0.6052954714577 1.0
C      1  0.4601945599428  0.5403805089775  0.6476776773466 1.0
C      1  0.3395296959331  0.7604615372201  0.6904528767880 1.0
C      1  0.4560083565483  0.7899256574253  0.4329023455492 1.0
C      1  0.7679322317356  0.3169487274007  0.5484175419173 1.0
C      1  0.4048449389061  0.8370879522239  0.5758032786699 1.0
C      1  0.2214993815669  0.3832510359603  0.3765384766335 1.0
C      1  0.7957972212645  0.3934332034499  0.7002812039668 1.0
C      1  0.5937366840178  0.6823963682342  0.7692145350346 1.0
C      1  0.5755199580540  0.8261816262280  0.6510191746868 1.0
C      1  0.7323121463732  0.2395533570005  0.5010590586398 1.0
C      1  0.4002893871196  0.7192324988504  0.4815709404048 1.0
C      1  0.6833499840907  0.7075815699228  0.4963085921439 1.0
C      1  0.3015880689922  0.5544569785689  0.3686628086172 1.0
C      1  0.6257226813206  0.7793760968203  0.4987026429959 1.0
C      1  0.4998774137388  0.5910258909553  0.4560708054047 1.0
C      1  0.1951462331898  0.4456047543376  0.6124884158203 1.0
C      1  0.4817835304068  0.1643181189549  0.5057717843859 1.0
C      1  0.3629856232761  0.5028915519032  0.5288301971193 1.0
C      1  0.4466632443547  0.1525646753730  0.5819523541251 1.0
C      1  0.4263800221194  0.4642019433484  0.3869012989722 1.0
C      1  0.4799958848899  0.5653236409570  0.7478271448364 1.0
C      1  0.6560819900293  0.2736392424482  0.6779589686502 1.0
C      1  0.3982246937476  0.3225863334290  0.4017815172716 1.0
C      1  0.2165052879896  0.7047151314640  0.3560246812379 1.0
C      1  0.4601830366929  0.5453340720786  0.1835723679683 1.0
C      1  0.3031664858137  0.5047588030752  0.2792424362841 1.0
C      1  0.2330112112414  0.4806604108342  0.6951145989489 1.0
C      1  0.1253875481666  0.5922159736111  0.4277270162199 1.0
C      1  0.7670736286381  0.4776988715436  0.5490273006998 1.0
C      1  0.4877228081259  0.6367518953212  0.2246947746136 1.0
C      1  0.6607862539962  0.7396981438771  0.7460179038325 1.0
C      1  0.4061103486295  0.1663003324745  0.6576593899826 1.0
C      1  0.4951514951125  0.2080079995843  0.3441480209757 1.0
C      1  0.1521069296115  0.5201213110291  0.4806969542898 1.0
C      1  0.3833995555290  0.3937412962024  0.3294074296928 1.0
C      1  0.3119482278558  0.3264993578743  0.2473667962069 1.0
C      1  0.3378473667763  0.8106222832074  0.3121535389844 1.0
C      1  0.5444759308418  0.3266944934981  0.5591731878790 1.0
C      1  0.3418690031152  0.7680109276471  0.5415262923542 1.0
C      1  0.8016185367847  0.4008472712688  0.4088565596625 1.0
C      1  0.3496901826995  0.5048819073531  0.4377610954239 1.0
C      1  0.6485799162442  0.2553628950696  0.3114844622392 1.0
C      1  0.5717795794617  0.5542682161672  0.3249264783810 1.0
C      1  0.5656283749652  0.3724169248190  0.4136941974537 1.0
C      1  0.3236269410258  0.3048541830338  0.4644011852309 1.0
C      1  0.2743328908118  0.6385289274592  0.3664023786704 1.0
C      1  0.6602492964252  0.3964340345110  0.2211176692374 1.0
C      1  0.3105153620220  0.3503242412234  0.5426008604555 1.0
C      1  0.4729571032499  0.3891397233249  0.4329463688729 1.0
C      1  0.5066078095264  0.4026581964170  0.7075713886278 1.0
C      1  0.7292456429864  0.5636348807771  0.3716642055968 1.0
C      1  0.7563830696605  0.4712479710778  0.8510553514275 1.0
END
