TITL C-192488-9509-2 -10.102 3375.00 -1703.72258412 0 0 209 (C1) n - 1
REM
REM Run started: at 2020.10.20 04:57:43 in /rds/project/t2_vol4/rds-t2-cs072/BORA/CARBON/AIRSS/Generating-Clusters/Str-Search
REM VASP from code version vasp.5.4.4.18Apr17-6-g9f103f2a35 (build Oct 11 2019 16:45:47) gamma-only
REM
REM
REM
REM
REM ./C.cell (8c8f32957ea4b25f9ffc41644e092d35)
REM AIRSS Version 0.9.1 bugfix July 2018 build 013d7b7c2542+ Fri, 06 Jul 2018 19:26:36 +0100
REM compiler GCC version 4.8.5 20150623 (Red Hat 4.8.5-39)
REM options -cpp -mtune=generic -march=x86-64 -g -O0
REM seed -415562449 -145432353 1675746194 2019980845 1496702331 -1460024785 -891810932 -1320080049 -525106171 -2109615760 2051887045 1374512532
REM
REM C.POTCAR (d86ddea03c3ceb6dc662c8ad6801f873)
REM 
CELL 1.54180   15.00000   15.00000   15.00000   90.00000   90.00000   90.00000
LATT -1
SFAC C  
C      1  0.3977035795173  0.1564986071100  0.3470006852747 1.0
C      1  0.7828713684513  0.7931864891321  0.3077243335849 1.0
C      1  0.1967728413586  0.5446096344962  0.5762066133548 1.0
C      1  0.3761961278947  0.1535134331699  0.5039024885824 1.0
C      1  0.6291956708408  0.4931779598548  0.0882123817306 1.0
C      1  0.3200240766538  0.2603112894464  0.2306571208788 1.0
C      1  0.4222366528351  0.7011142559102  0.6011459199306 1.0
C      1  0.5040921117500  0.7948204722276  0.5079480099357 1.0
C      1  0.4226320870386  0.8326209066582  0.7235866615146 1.0
C      1  0.5807412151771  0.4225733832069  0.7036104995646 1.0
C      1  0.2367276685236  0.3522116939723  0.7680823144561 1.0
C      1  0.3741204985956  0.4688828237942  0.4022714291127 1.0
C      1  0.5327451761614  0.3787332908182  0.5202496536835 1.0
C      1  0.5729020741679  0.3281650886876  0.4390420525245 1.0
C      1  0.4963295337803  0.0542667814975  0.6795347844290 1.0
C      1  0.0587094378958  0.5700198460195  0.4823298194415 1.0
C      1  0.4443444172791  0.5427100689937  0.8818467066270 1.0
C      1  0.6562516011535  0.3068857494406  0.4583951356730 1.0
C      1  0.3584875387772  0.8595900654096  0.3126260299112 1.0
C      1  0.8110924509366  0.4162579185809  0.3551943358395 1.0
C      1  0.3807064153967  0.6555462840778  0.6748635065181 1.0
C      1  0.3358764700661  0.5560834402709  0.4299008084729 1.0
C      1  0.2246290464593  0.7630038722905  0.5892396587143 1.0
C      1  0.5629615027274  0.4632583780139  0.1419067026285 1.0
C      1  0.5620621640891  0.7120525158838  0.1664070723057 1.0
C      1  0.6060022538213  0.0589142092360  0.5546349108209 1.0
C      1  0.7950382112608  0.3335735463029  0.3025728263880 1.0
C      1  0.7254863061334  0.3115032952486  0.2480274452351 1.0
C      1  0.6506542690453  0.6334108149221  0.4582438768979 1.0
C      1  0.1591267004504  0.6230022651748  0.6249523656041 1.0
C      1  0.2385277633222  0.5425304091410  0.2378424304655 1.0
C      1  0.8001121332306  0.4492710584135  0.8319198521336 1.0
C      1  0.4372185135497  0.7368617344303  0.3694352952485 1.0
C      1  0.2705546574999  0.3711817374624  0.3436280343370 1.0
C      1  0.4964588932657  0.2299934631719  0.2871387816871 1.0
C      1  0.3615234941435  0.4140968827152  0.3180752427033 1.0
C      1  0.3313788025163  0.3131241737144  0.1519340551667 1.0
C      1  0.4915523396878  0.8584486365998  0.6510907329977 1.0
C      1  0.7214728812995  0.6178196383203  0.1464529363261 1.0
C      1  0.2774831299131  0.8576466378038  0.3549099850274 1.0
C      1  0.5825863714894  0.6070537535148  0.8597517124235 1.0
C      1  0.5808996389868  0.7371118031539  0.6349891868411 1.0
C      1  0.1109803334013  0.2748360130472  0.5890535493536 1.0
C      1  0.7727960980802  0.4091710818036  0.4486173979060 1.0
C      1  0.8906897558075  0.5947086118585  0.7543606744091 1.0
C      1  0.8442655212670  0.2403197215896  0.6066267781314 1.0
C      1  0.4316322418127  0.3689952822283  0.5346309857860 1.0
C      1  0.2776325720015  0.3857154012704  0.6084074097151 1.0
C      1  0.8670899357620  0.5433953302721  0.4348047036687 1.0
C      1  0.3825424941617  0.3736294082422  0.4498173353453 1.0
C      1  0.6652749103327  0.6104882417850  0.5617241180716 1.0
C      1  0.5002036766803  0.3543416511974  0.6905124588616 1.0
C      1  0.3269846561850  0.3418159135043  0.7997476629278 1.0
C      1  0.3188132306911  0.1316544391811  0.5819053640974 1.0
C      1  0.3909821758012  0.4842540213401  0.2480650246280 1.0
C      1  0.3740886914262  0.5232683850141  0.5737476075305 1.0
C      1  0.2930736634738  0.5616878594942  0.8015097019283 1.0
C      1  0.6587901878979  0.6268049055090  0.8217895407506 1.0
C      1  0.8479050408802  0.7256815107671  0.4578034380191 1.0
C      1  0.2574146184643  0.3045332377701  0.6794335364434 1.0
C      1  0.3372229876518  0.1443530341080  0.4188170238524 1.0
C      1  0.7623557362294  0.4811111290747  0.5919852972931 1.0
C      1  0.4567894288330  0.9242332349064  0.5798474067368 1.0
C      1  0.8071037788919  0.7375508618683  0.7569557117793 1.0
C      1  0.5973830122595  0.8290977942364  0.4980451227994 1.0
C      1  0.3358490307013  0.8040174270904  0.6926909117504 1.0
C      1  0.3701957599966  0.4975428593673  0.8392233948146 1.0
C      1  0.5792572729695  0.8031213630167  0.1850813390346 1.0
C      1  0.5641833812228  0.2516300881245  0.7925171395689 1.0
C      1  0.2954543210400  0.7759125715514  0.3004001808028 1.0
C      1  0.1971486826699  0.6367464061507  0.2666125348706 1.0
C      1  0.1944753554704  0.2375195891704  0.6332945280134 1.0
C      1  0.5704923852827  0.8468577530244  0.2555984414728 1.0
C      1  0.2992826983072  0.4071784818055  0.1499344651279 1.0
C      1  0.3017102217774  0.8177673501914  0.6060422659530 1.0
C      1  0.5001690954557  0.2820589139519  0.1213876263325 1.0
C      1  0.8126711016685  0.2610765014754  0.5171716558431 1.0
C      1  0.4311765903176  0.8667320285637  0.4950212743630 1.0
C      1  0.4421446085569  0.3741087355034  0.3677396738770 1.0
C      1  0.7697483047615  0.7739505782096  0.6919319925913 1.0
C      1  0.2129642233018  0.7549461409275  0.4898445902077 1.0
C      1  0.6412564447300  0.2968789614253  0.2319726592990 1.0
C      1  0.4219488369098  0.1196964088525  0.7065217887464 1.0
C      1  0.2370755386298  0.2844252057075  0.2818771937018 1.0
C      1  0.1943513902124  0.6680284670506  0.4423950965484 1.0
C      1  0.4520070715472  0.7841855644577  0.7973126405559 1.0
C      1  0.6937362447568  0.5625184550145  0.0780870164749 1.0
C      1  0.5825530914173  0.1801864127024  0.6469728661583 1.0
C      1  0.6436912493706  0.8078480309262  0.5828435745809 1.0
C      1  0.7852901318540  0.2337432822864  0.6764149779806 1.0
C      1  0.4584014820887  0.7167700823329  0.8449999537917 1.0
C      1  0.5633168034524  0.3278624608341  0.8565785173254 1.0
C      1  0.4727540717111  0.3537796155391  0.0674089343467 1.0
C      1  0.5971351497883  0.6771022866153  0.3439040478948 1.0
C      1  0.7280778243872  0.3070263245215  0.8118447665222 1.0
C      1  0.3016557119953  0.5231702325163  0.7073762880961 1.0
C      1  0.7387402476527  0.3217756728691  0.4876422703897 1.0
C      1  0.1535500804377  0.3989253473073  0.7808499339253 1.0
C      1  0.6253428720201  0.2180706121886  0.7293799167363 1.0
C      1  0.5772987349462  0.0804090739058  0.6412627482588 1.0
C      1  0.3359370843725  0.2710161461859  0.7335286292002 1.0
C      1  0.5077914747004  0.5362265469017  0.4604987402792 1.0
C      1  0.2851085935038  0.3553522591904  0.4398947529377 1.0
C      1  0.4724562632850  0.1652741007494  0.5136317560510 1.0
C      1  0.7939015433590  0.4922449079294  0.6760831385081 1.0
C      1  0.3375927041876  0.8357144524382  0.5137454787073 1.0
C      1  0.4840731372846  0.6229568796074  0.8343938568923 1.0
C      1  0.5886935524799  0.5355682831530  0.9280113658023 1.0
C      1  0.3826497114966  0.4669015399667  0.1482677601960 1.0
C      1  0.2486486926526  0.7138519340682  0.2336242842302 1.0
C      1  0.8751449331276  0.5365006576594  0.6956876997016 1.0
C      1  0.8956270306890  0.6390835446768  0.4464349965762 1.0
C      1  0.5537490837352  0.6315494734644  0.4297289645266 1.0
C      1  0.8291241877105  0.5077897790966  0.3428377197682 1.0
C      1  0.8352752890028  0.2676662211029  0.3571330690744 1.0
C      1  0.6928480183950  0.5579668105719  0.4037739493789 1.0
C      1  0.5933835397464  0.6398718780215  0.6300499458876 1.0
C      1  0.2561134295211  0.8426373940718  0.4479995754713 1.0
C      1  0.5327019806560  0.4867958930769  0.6410149518616 1.0
C      1  0.3404362636314  0.5758368041830  0.6382668895326 1.0
C      1  0.7975780688846  0.7226433198526  0.5371615968043 1.0
C      1  0.5686487900457  0.3551120816832  0.2682760770420 1.0
C      1  0.4264074191222  0.6628220438447  0.5203817826841 1.0
C      1  0.6476449256583  0.3629807604615  0.8300439388361 1.0
C      1  0.7358468746224  0.7699629039662  0.6013624039848 1.0
C      1  0.7277353664348  0.5483863660699  0.3135238477302 1.0
C      1  0.4400889321910  0.6521911320544  0.3128471738221 1.0
C      1  0.4329095238981  0.0015826777572  0.6237490961502 1.0
C      1  0.4874652846538  0.5051108890084  0.2834930066193 1.0
C      1  0.5008353784319  0.6017472496847  0.2707865643785 1.0
C      1  0.7842551113517  0.7490099804254  0.2273541788051 1.0
C      1  0.2331048332205  0.3574458401914  0.5175676769874 1.0
C      1  0.6050191761568  0.0855263004173  0.4744487497675 1.0
C      1  0.1378334785427  0.5705453678601  0.4254368542450 1.0
C      1  0.5923039813973  0.8318903402731  0.6677192029105 1.0
C      1  0.7109329549289  0.4877374260793  0.4619957198334 1.0
C      1  0.5507573855364  0.2698999411132  0.2046685732048 1.0
C      1  0.0203515068875  0.2524153242575  0.6054799719090 1.0
C      1  0.6736770660047  0.5905747907351  0.2330103038515 1.0
C      1  0.3885538108129  0.3956677015622  0.8529344923833 1.0
C      1  0.4130632327246  0.5698386015039  0.4990537556532 1.0
C      1  0.5287437334195  0.1325370158270  0.4406272875990 1.0
C      1  0.4852062312602  0.7077321093899  0.4564308202395 1.0
C      1  0.5002044979018  0.3141912548116  0.5919337800218 1.0
C      1  0.2114719041106  0.6991399987677  0.6538711176253 1.0
C      1  0.7101552739384  0.7984220449376  0.3808266360704 1.0
C      1  0.2289055869858  0.5740144303277  0.4763145190440 1.0
C      1  0.4108454808910  0.2128001187548  0.7327299143988 1.0
C      1  0.6686198355640  0.5023476365610  0.5504020328668 1.0
C      1  0.5646009006669  0.4736901341409  0.5444792180694 1.0
C      1  0.2113983361670  0.2108579935602  0.3378379845059 1.0
C      1  0.4013250432993  0.5034713964012  0.7393820186254 1.0
C      1  0.4840437502539  0.3893516327687  0.8782772514753 1.0
C      1  0.4434763167709  0.4382275967673  0.6745411604865 1.0
C      1  0.3596283717022  0.6706638106868  0.1118042685321 1.0
C      1  0.5089725511591  0.4815294083346  0.9066344732136 1.0
C      1  0.1008189868092  0.5768680645226  0.5718553963460 1.0
C      1  0.6494624180022  0.4368880669677  0.7638559592226 1.0
C      1  0.2285205916727  0.4722804596936  0.6450440058300 1.0
C      1  0.3214761842072  0.5557337211201  0.2705805437633 1.0
C      1  0.3782451656602  0.4258770534518  0.5965291666080 1.0
C      1  0.5495900064915  0.8633507468417  0.3439912180265 1.0
C      1  0.6588051626533  0.5000921763125  0.2594070448705 1.0
C      1  0.4919907300849  0.7675054568528  0.6029747033926 1.0
C      1  0.8102064402985  0.7856836229359  0.3950025533812 1.0
C      1  0.3367942427207  0.7171377600829  0.3731639946218 1.0
C      1  0.3707152538765  0.0748665944456  0.6413911608172 1.0
C      1  0.5708999734002  0.4533759351195  0.2419382133595 1.0
C      1  0.4730256082862  0.4772735171003  0.3820549730873 1.0
C      1  0.4829917860246  0.2718664406946  0.7471027078035 1.0
C      1  0.4083466163848  0.2948770050949  0.1035497969766 1.0
C      1  0.5210938352894  0.2165180548510  0.5872350159322 1.0
C      1  0.6629676492738  0.7129057567543  0.3939750517882 1.0
C      1  0.9403101053019  0.2350435170420  0.6126442843217 1.0
C      1  0.4755327835345  0.4470571895506  0.0976266896519 1.0
C      1  0.2425556899310  0.1703466635351  0.6028114069882 1.0
C      1  0.7435871526994  0.6677844482562  0.5821029475456 1.0
C      1  0.8552864998110  0.2447085501121  0.4354539689916 1.0
C      1  0.7388509771817  0.4947873231459  0.7625290659030 1.0
C      1  0.5872051233765  0.6479435227355  0.2506878247661 1.0
C      1  0.5326701564917  0.5822269766726  0.6680883532587 1.0
C      1  0.1440483219240  0.3314244659561  0.5262797679559 1.0
C      1  0.4367808259061  0.6205396303315  0.0914629023118 1.0
C      1  0.7975457070060  0.3645677253393  0.8272449236688 1.0
C      1  0.8175849272020  0.6484132192393  0.7813429397054 1.0
C      1  0.3079478750078  0.7554781280055  0.4603247414470 1.0
C      1  0.2305561913949  0.4423562179471  0.2044690173587 1.0
C      1  0.4482208814678  0.8441005507802  0.3640673595370 1.0
C      1  0.8093134269936  0.4870571193206  0.5025883702856 1.0
C      1  0.7664104234518  0.6987269505290  0.1630467455578 1.0
C      1  0.3920648243852  0.2163110185871  0.2726526914365 1.0
C      1  0.3515479194247  0.6174837213177  0.3459151216947 1.0
C      1  0.4540753969719  0.5979500694962  0.7315852343096 1.0
C      1  0.1621736959447  0.4469545180158  0.7121128523310 1.0
C      1  0.5203664255275  0.3172970171510  0.3476485688582 1.0
C      1  0.6222224553866  0.8514029360823  0.4092606438277 1.0
C      1  0.7360908688552  0.5950100554354  0.7928090017103 1.0
C      1  0.7198824611027  0.2423935358519  0.7375909970314 1.0
C      1  0.1681945259375  0.6352629044583  0.3561364414294 1.0
C      1  0.2004862082148  0.3768893757875  0.2740151014164 1.0
C      1  0.2922091574495  0.6523552504596  0.8048605730559 1.0
C      1  0.6412358336127  0.5304769044588  0.0023032181087 1.0
C      1  0.2976910297033  0.7016073932883  0.1559977620200 1.0
C      1  0.2482968864973  0.1612104509558  0.3927021336318 1.0
C      1  0.5133466694660  0.6704752128689  0.1050193332051 1.0
C      1  0.4216425856298  0.5260508917283  0.0793027546184 1.0
C      1  0.4910984842713  0.1503453226068  0.3539281300459 1.0
C      1  0.9650017867277  0.5842275936677  0.4555922736164 1.0
C      1  0.2945390893983  0.7069049059540  0.7203200266277 1.0
END
