TITL C-191496-5079-49 -3.227 3375.00 0 0 0 65 (C1) n - 1
REM
REM Run started: at 2020.03.16 20:14:20 in /rds/user/bk393/hpc-work/AIRSS.pl-DENE/CARBON/New-Try
REM VASP from code version vasp.5.4.4.18Apr17-6-g9f103f2a35 (build Oct 11 2019 16:45:47) gamma-only
REM
REM
REM
REM
REM ./C.cell (9f5935e56d41cf50cb14479ce98dda23)
REM AIRSS Version 0.9.1 bugfix July 2018 build 013d7b7c2542+ Fri, 06 Jul 2018 19:26:36 +0100
REM compiler GCC version 4.8.5 20150623 (Red Hat 4.8.5-39)
REM options -cpp -mtune=generic -march=x86-64 -g -O0
REM seed -1171494700 299427379 -1145830462 290931778 -2113606298 1118338089 -1223531197 -169177622 1079925518 -298146275 -906391597 567599806
REM
REM C.POTCAR (d86ddea03c3ceb6dc662c8ad6801f873)
REM 
CELL 1.54180   15.00000   15.00000   15.00000   90.00000   90.00000   90.00000
LATT -1
SFAC C  
C      1  0.6876650897001  0.4445805018918  0.4293657843551 1.0
C      1  0.3675308818739  0.4066180403215  0.5638296143279 1.0
C      1  0.5251817422178  0.4346615328976  0.5062023979224 1.0
C      1  0.6081741203312  0.2809631190618  0.4877871790976 1.0
C      1  0.4435376749105  0.3319999454866  0.3699986379847 1.0
C      1  0.6477149656174  0.3839556418345  0.6617845714620 1.0
C      1  0.5622414851824  0.5189926739565  0.4790466482655 1.0
C      1  0.5897431572367  0.3454416190820  0.3144646523486 1.0
C      1  0.6271401526305  0.6734179491624  0.3625197119266 1.0
C      1  0.6863659640860  0.3082391131447  0.5331712174220 1.0
C      1  0.2622848435236  0.5482857698287  0.3350872959498 1.0
C      1  0.5160391526656  0.7824491129435  0.3605040643043 1.0
C      1  0.4113696044159  0.4231656676029  0.7432466105143 1.0
C      1  0.4585941924565  0.5487311672217  0.5806217375351 1.0
C      1  0.4945363637551  0.2865189768641  0.6825801943312 1.0
C      1  0.4970024007774  0.3817418297566  0.3146396256185 1.0
C      1  0.6898649064183  0.4469950270272  0.6039061027860 1.0
C      1  0.4998598898320  0.4800049199967  0.2910455772132 1.0
C      1  0.2842445956605  0.3913572566031  0.5607973315519 1.0
C      1  0.2865253933612  0.6279951258150  0.4740248698672 1.0
C      1  0.2363982187566  0.5608274169396  0.4261651293698 1.0
C      1  0.6920276077619  0.6151897471704  0.4950375894167 1.0
C      1  0.5380744876042  0.3456024931392  0.4810054728860 1.0
C      1  0.4889504612443  0.3754986742928  0.7208729679303 1.0
C      1  0.6002609105174  0.5025213337179  0.3033828583869 1.0
C      1  0.5817842234012  0.1985209978141  0.3795195060707 1.0
C      1  0.4710317675749  0.2130667513861  0.5100665589189 1.0
C      1  0.3085119921596  0.5516224703630  0.7031267445026 1.0
C      1  0.4438288276317  0.4536215126417  0.5563276576017 1.0
C      1  0.4381373885503  0.6080078268034  0.4123210940978 1.0
C      1  0.5705992514944  0.4252047166263  0.7050578874721 1.0
C      1  0.2918489461792  0.6071466666545  0.6431680474810 1.0
C      1  0.3850818522051  0.7527595209596  0.4604106241101 1.0
C      1  0.3601165027237  0.6705441404133  0.4234373119332 1.0
C      1  0.6105000822672  0.7464667007679  0.5230115549530 1.0
C      1  0.5050508584902  0.5840462374399  0.6559186358578 1.0
C      1  0.6337058626710  0.5798545734467  0.3493658474316 1.0
C      1  0.6563584031956  0.5332865920527  0.6323224489029 1.0
C      1  0.3219561845074  0.5302452495523  0.2797784799522 1.0
C      1  0.6070870119625  0.2558625729573  0.3218217660699 1.0
C      1  0.1885992846726  0.4943343824667  0.4714985826775 1.0
C      1  0.5214038100176  0.7795903963623  0.5182445608989 1.0
C      1  0.4887732722901  0.2314158537622  0.6024015956353 1.0
C      1  0.6579773639682  0.5397065341921  0.4391346363332 1.0
C      1  0.5619024342609  0.1946633617943  0.4694101965626 1.0
C      1  0.4872803793514  0.5795498749929  0.4875359291499 1.0
C      1  0.3063868528936  0.6545286008962  0.5642279595625 1.0
C      1  0.4545455661051  0.5604280780026  0.3351557226360 1.0
C      1  0.6560700365785  0.6931850644665  0.4545791167419 1.0
C      1  0.6690725236188  0.6145492545949  0.5871833648803 1.0
C      1  0.4552310815929  0.2953490677488  0.4510196986246 1.0
C      1  0.7042581344603  0.4026720778696  0.5163931935776 1.0
C      1  0.4694434666250  0.7937026902871  0.4400008190383 1.0
C      1  0.5790157435570  0.7443507512610  0.3215742189410 1.0
C      1  0.5264161200054  0.6767787534754  0.6375492580792 1.0
C      1  0.3773065782065  0.7257309591576  0.5555230926742 1.0
C      1  0.4657847470331  0.7357894977236  0.5883991718978 1.0
C      1  0.4143703751593  0.5324572625978  0.2593715894973 1.0
C      1  0.6424454190185  0.4228207191442  0.3445409115530 1.0
C      1  0.5716352451477  0.2483616521022  0.6462892474285 1.0
C      1  0.6145449424178  0.6915694207163  0.6037209993209 1.0
C      1  0.5764742141969  0.5200137140216  0.6858634706702 1.0
C      1  0.6511482938620  0.2966092002222  0.6247018431128 1.0
C      1  0.2177715106749  0.4312913359691  0.5185026896140 1.0
C      1  0.3552151867349  0.4845403105357  0.7404361227635 1.0
END
