TITL C-191496-5079-27 -6.699 3375.00 0 0 0 143 (C1) n - 1
REM
REM Run started: at 2020.03.16 13:24:21 in /rds/user/bk393/hpc-work/AIRSS.pl-DENE/CARBON/New-Try
REM VASP from code version vasp.5.4.4.18Apr17-6-g9f103f2a35 (build Oct 11 2019 16:45:47) gamma-only
REM
REM
REM
REM
REM ./C.cell (9f5935e56d41cf50cb14479ce98dda23)
REM AIRSS Version 0.9.1 bugfix July 2018 build 013d7b7c2542+ Fri, 06 Jul 2018 19:26:36 +0100
REM compiler GCC version 4.8.5 20150623 (Red Hat 4.8.5-39)
REM options -cpp -mtune=generic -march=x86-64 -g -O0
REM seed -268719138 1050507642 -618583879 975151670 -710026530 1946233456 410332107 -1768087197 -312554954 -2067185107 547182294 2034255722
REM
REM C.POTCAR (d86ddea03c3ceb6dc662c8ad6801f873)
REM 
CELL 1.54180   15.00000   15.00000   15.00000   90.00000   90.00000   90.00000
LATT -1
SFAC C  
C      1  0.5407410661655  0.6596333958164  0.5440869706294 1.0
C      1  0.4562089944805  0.2975286466767  0.5633476585364 1.0
C      1  0.5381993565354  0.4102124598120  0.8877297686970 1.0
C      1  0.4980633847966  0.5770963350207  0.1019415127801 1.0
C      1  0.3562598665292  0.5644439601223  0.2263842647306 1.0
C      1  0.1801640069412  0.5069813482546  0.6599244524690 1.0
C      1  0.3026364954357  0.7036429114284  0.7046172557693 1.0
C      1  0.8554743072952  0.5600291483596  0.6246569559574 1.0
C      1  0.1810705803287  0.2913318393612  0.5259839564636 1.0
C      1  0.7205357811773  0.7522221300356  0.5599673478597 1.0
C      1  0.6352383609645  0.8102518873426  0.6874730377506 1.0
C      1  0.6368389554783  0.4422421112124  0.1940802467680 1.0
C      1  0.3732870160536  0.7527456064697  0.6867112431068 1.0
C      1  0.3862159609854  0.2307571464538  0.5805020675828 1.0
C      1  0.5233061948476  0.7978338597769  0.2973727893139 1.0
C      1  0.6671022076452  0.4864175363504  0.8010754589543 1.0
C      1  0.5982652818928  0.2295819181067  0.3266461287119 1.0
C      1  0.3898554420436  0.3302250774136  0.7083621380815 1.0
C      1  0.3987860826246  0.3854425159049  0.2195357583778 1.0
C      1  0.0974325957281  0.4982595515332  0.4409923585816 1.0
C      1  0.3845823486079  0.3009908157690  0.2795160572605 1.0
C      1  0.3893190002426  0.6554764571078  0.6704121653547 1.0
C      1  0.6382529563284  0.7938966518890  0.5354884681923 1.0
C      1  0.2199627106418  0.6689204495305  0.6696721030527 1.0
C      1  0.2304185992675  0.4952831524173  0.5801494491020 1.0
C      1  0.2733358460152  0.6506555770965  0.3429226510282 1.0
C      1  0.3831934164855  0.4702583243145  0.6267495023716 1.0
C      1  0.4532491464510  0.6186649174506  0.5045570214162 1.0
C      1  0.5281453777481  0.5015409043410  0.0850361247032 1.0
C      1  0.7593838444621  0.6888492597981  0.2980074515356 1.0
C      1  0.6373929292446  0.2087671615694  0.5791433906614 1.0
C      1  0.4713728787669  0.3452166670765  0.6475419030759 1.0
C      1  0.5890863130657  0.6780365181062  0.1867352906120 1.0
C      1  0.5031944377933  0.4483813027305  0.5235022803558 1.0
C      1  0.2887187208267  0.4736580378498  0.3087004404352 1.0
C      1  0.7983228238591  0.6304613366645  0.6224330772449 1.0
C      1  0.5004935860547  0.6397461154330  0.1696489549969 1.0
C      1  0.2422764445636  0.3208752206838  0.3695268945326 1.0
C      1  0.4474212071691  0.5970852259671  0.7234759326480 1.0
C      1  0.4352390632576  0.4767074998833  0.3938136295849 1.0
C      1  0.8570491339977  0.4694963901117  0.6225166516179 1.0
C      1  0.5414488723566  0.5646682674844  0.8544784369551 1.0
C      1  0.6125594481587  0.3097455531452  0.5924468746460 1.0
C      1  0.7900483047209  0.6239323668040  0.3641958353352 1.0
C      1  0.3295042131070  0.4286996848869  0.7927963656412 1.0
C      1  0.6086269920694  0.6111093312300  0.5901416668493 1.0
C      1  0.4977047452153  0.8284207848286  0.5815509842025 1.0
C      1  0.1779087532863  0.3316417544702  0.4448083444970 1.0
C      1  0.4357250638268  0.6246101675862  0.2378646309261 1.0
C      1  0.6839737519517  0.7462728639382  0.3162427375412 1.0
C      1  0.3267504615559  0.5336097935667  0.5661138235539 1.0
C      1  0.7630928657526  0.4292581790488  0.6482983908783 1.0
C      1  0.7687541995732  0.4668834373624  0.3777807799034 1.0
C      1  0.3015300002195  0.5340945283113  0.4617864476780 1.0
C      1  0.2832594563305  0.5792907186594  0.2869268755158 1.0
C      1  0.4016422015837  0.8408243763641  0.5536569058302 1.0
C      1  0.7026461521621  0.3903921720901  0.3569068295669 1.0
C      1  0.5938806978377  0.2201614258830  0.4812355371125 1.0
C      1  0.5475516721006  0.3035794030688  0.5136214396799 1.0
C      1  0.2135488137097  0.6808329340776  0.5722483745473 1.0
C      1  0.4583832625618  0.5135447895485  0.6876182935650 1.0
C      1  0.7675149284462  0.3034687803430  0.4930208131560 1.0
C      1  0.4309606220911  0.4001722687647  0.5712278421251 1.0
C      1  0.7123345260598  0.7592583079246  0.6570296671278 1.0
C      1  0.2421164833755  0.2168398566186  0.5461228848741 1.0
C      1  0.5786228191448  0.1347802919252  0.5490690675043 1.0
C      1  0.3643706019915  0.2080842517984  0.4180268738552 1.0
C      1  0.3055972848682  0.6935508381146  0.5209884398230 1.0
C      1  0.6348015218005  0.5287791412667  0.7171469896890 1.0
C      1  0.5390714102926  0.7173211391452  0.7966807243520 1.0
C      1  0.6091888804729  0.2938859201257  0.2542496628689 1.0
C      1  0.2814486276700  0.4995877190351  0.8313482286132 1.0
C      1  0.5194121319095  0.1509394059616  0.4829028339344 1.0
C      1  0.6590715343662  0.3744899817152  0.2617113831790 1.0
C      1  0.7682621645438  0.6703570806031  0.5353098482736 1.0
C      1  0.8445131053801  0.3517634448878  0.5147462533871 1.0
C      1  0.4561374460103  0.1741461456129  0.4098222066385 1.0
C      1  0.5517941164071  0.7539092001704  0.5361876258608 1.0
C      1  0.3266945977756  0.2034377222395  0.5090414760765 1.0
C      1  0.7590944967599  0.3235858411823  0.6561130768740 1.0
C      1  0.5896361583867  0.4880169034650  0.8636910947811 1.0
C      1  0.4608378013830  0.6317168576299  0.3294591246127 1.0
C      1  0.3572487628119  0.7818226819147  0.4914699972671 1.0
C      1  0.7130183329829  0.2791899877289  0.5771941181859 1.0
C      1  0.3954178916803  0.3642794047187  0.8053853747834 1.0
C      1  0.4159956905598  0.8236986479159  0.6421318630045 1.0
C      1  0.3079639743400  0.6357265947719  0.4325294180008 1.0
C      1  0.5242000876355  0.2953756319364  0.2110765639893 1.0
C      1  0.5677133344636  0.4582328084952  0.5929893852067 1.0
C      1  0.5513889875992  0.4769426737239  0.6875755252275 1.0
C      1  0.5831332089225  0.7752693193048  0.7577962344693 1.0
C      1  0.1960532977247  0.5837589006013  0.7122985165534 1.0
C      1  0.3441926345182  0.4858922763678  0.3891114081555 1.0
C      1  0.5045186263502  0.1993980729156  0.3313048686020 1.0
C      1  0.5439404189971  0.3836672641111  0.4521644093143 1.0
C      1  0.5061420974127  0.6278305781594  0.8001396334464 1.0
C      1  0.3225836294092  0.4152404587472  0.6925750111182 1.0
C      1  0.7825036759232  0.2646223328136  0.7168824654049 1.0
C      1  0.4607852655432  0.2467112357618  0.2634853050151 1.0
C      1  0.7656204051963  0.5482171527625  0.2281133238648 1.0
C      1  0.6455471272551  0.5132955282498  0.4599264751122 1.0
C      1  0.3450964144806  0.2520094902234  0.6630557479392 1.0
C      1  0.5562234745513  0.6261487355418  0.3581452576771 1.0
C      1  0.6272914260620  0.4232711484780  0.4199251633214 1.0
C      1  0.4630905504622  0.8073073487476  0.3543486224760 1.0
C      1  0.1316902112288  0.5768491316405  0.4713583366470 1.0
C      1  0.6127017468191  0.6963439311489  0.3404576979532 1.0
C      1  0.2523539578589  0.2501804945986  0.6393676117376 1.0
C      1  0.7774761276965  0.6141778026243  0.4571925293486 1.0
C      1  0.6492919774981  0.2368500893002  0.4027395679181 1.0
C      1  0.7906627293296  0.5343985598037  0.3199439225938 1.0
C      1  0.2229134088152  0.4088410791501  0.3406548021096 1.0
C      1  0.5655261174866  0.3761187269784  0.6561416689340 1.0
C      1  0.4094699425543  0.6594392243988  0.4118366660878 1.0
C      1  0.7186372088974  0.3036568386697  0.4121456894638 1.0
C      1  0.4062942274959  0.7614752765519  0.4147510568207 1.0
C      1  0.4789151117668  0.3961171462222  0.3760672539094 1.0
C      1  0.7502063300226  0.5138714066554  0.4670977132790 1.0
C      1  0.5704371411819  0.5616510735228  0.4217884253280 1.0
C      1  0.4697104163287  0.3708130430674  0.8624531153384 1.0
C      1  0.7146251619083  0.4669553787183  0.7280936678825 1.0
C      1  0.2063732760402  0.4994642634677  0.4832180415097 1.0
C      1  0.2301016823900  0.4169989108469  0.6477014532909 1.0
C      1  0.5989753453219  0.7516356162391  0.2565360449960 1.0
C      1  0.1655708070534  0.4286069610945  0.4205560942514 1.0
C      1  0.4867241684482  0.3729596497875  0.1777309443177 1.0
C      1  0.3255492463337  0.2710764919277  0.3524857608527 1.0
C      1  0.1438715884066  0.6475802929158  0.5235326923181 1.0
C      1  0.5527873839958  0.4348810755672  0.1454137379879 1.0
C      1  0.6862093961217  0.5242355355226  0.1834433890451 1.0
C      1  0.3518004284530  0.4654638955108  0.2313499413463 1.0
C      1  0.7355166555984  0.6715221497182  0.6903825956752 1.0
C      1  0.2335671376946  0.5574549132567  0.7956156047836 1.0
C      1  0.4842333229789  0.5278602525970  0.4663387887858 1.0
C      1  0.6653569088037  0.6261599138470  0.1718684144377 1.0
C      1  0.6379697193195  0.5148810774317  0.5596878642175 1.0
C      1  0.8914427214425  0.4026934249409  0.5629814636187 1.0
C      1  0.6545499939347  0.6148373169521  0.6766725605328 1.0
C      1  0.2005716037357  0.3262387964093  0.6176847681735 1.0
C      1  0.3712492787730  0.6275613049728  0.5729046809618 1.0
C      1  0.7506350509416  0.6432400840625  0.2158127152497 1.0
C      1  0.5934237386840  0.8447941511923  0.6081675849241 1.0
C      1  0.7268251037449  0.4746946425715  0.5626440423019 1.0
END
