TITL C-191355-4848-9 -3.06 3375.00 -503.78683202 0 0 63 (C1) n - 1
REM
REM Run started: at 2020.12.23 22:51:51 in /rds/project/t2_vol4/rds-t2-cs072/BORA/CARBON/AIRSS/Generating-Clusters/Str-Search/Only-C1/C10-100
REM VASP from code version vasp.5.4.4.18Apr17-6-g9f103f2a35 (build Oct 11 2019 16:45:47) gamma-only
REM
REM
REM
REM
REM ./C.cell (67c5d0192afd7a3ce4a0888e5fe73b87)
REM AIRSS Version 0.9.1 bugfix July 2018 build 013d7b7c2542+ Fri, 06 Jul 2018 19:26:36 +0100
REM compiler GCC version 4.8.5 20150623 (Red Hat 4.8.5-39)
REM options -cpp -mtune=generic -march=x86-64 -g -O0
REM seed 2014434938 1123962938 -1142763327 -1377493436 -623112207 -560055524 1701851262 2086856962 1435358298 2141014325 -1979647657 665113080
REM
REM C.POTCAR (d86ddea03c3ceb6dc662c8ad6801f873)
REM 
CELL 1.54180   15.00000   15.00000   15.00000   90.00000   90.00000   90.00000
LATT -1
SFAC C  
C      1  0.3447258698503  0.2654034693731  0.3944445027445 1.0
C      1  0.5734711717901  0.6679851643248  0.2881899659814 1.0
C      1  0.7525868691540  0.5282579746557  0.5806827799181 1.0
C      1  0.4488198297183  0.2441327353744  0.5724474121367 1.0
C      1  0.7631056255810  0.3791952307697  0.4877410588369 1.0
C      1  0.4836365311598  0.5233337395437  0.2748823590986 1.0
C      1  0.4236580638426  0.3071503329086  0.3829852540065 1.0
C      1  0.1861839903113  0.5680468575616  0.5115629006113 1.0
C      1  0.3710771760674  0.2293626507151  0.5419970736398 1.0
C      1  0.6761256684728  0.3762338881922  0.3433286226211 1.0
C      1  0.3975671571950  0.6492462840667  0.5718878379822 1.0
C      1  0.4038847080132  0.6407233965487  0.6771782883843 1.0
C      1  0.2825948342700  0.3656561755804  0.4906976272817 1.0
C      1  0.3989396206112  0.4612056772897  0.4109623029167 1.0
C      1  0.2506831599079  0.4100362099738  0.4042991775338 1.0
C      1  0.6265606434743  0.3447797552947  0.6680928871145 1.0
C      1  0.6622083314426  0.5337578139402  0.3410370942369 1.0
C      1  0.2933274463907  0.5157795900475  0.7015447808515 1.0
C      1  0.3786817948852  0.4677256484507  0.5728682555132 1.0
C      1  0.6513324584083  0.6311100366946  0.3202811374992 1.0
C      1  0.6053232799621  0.5396510106594  0.7267812724583 1.0
C      1  0.7329574759140  0.3577631867187  0.4020692490311 1.0
C      1  0.7190436084807  0.6234954521271  0.4616193227047 1.0
C      1  0.6708861457312  0.6781877032868  0.4047442374976 1.0
C      1  0.5865181050595  0.6234245444559  0.6731579494456 1.0
C      1  0.2365328523226  0.4135672021695  0.5700173877419 1.0
C      1  0.5453439577991  0.5143772756925  0.4802995574645 1.0
C      1  0.3897520299044  0.6245441961423  0.4108018074563 1.0
C      1  0.4475207973360  0.6693957447906  0.3463135178406 1.0
C      1  0.7530049177579  0.3177442394770  0.5591598866133 1.0
C      1  0.5093845996487  0.3147285218360  0.5451519501156 1.0
C      1  0.7190808546558  0.5296930032258  0.4287274021035 1.0
C      1  0.3015012458267  0.5765450976519  0.3885643738236 1.0
C      1  0.3824470859547  0.4063794199842  0.4955086049139 1.0
C      1  0.7609838521914  0.4750221056902  0.5026878205497 1.0
C      1  0.6297299767641  0.3903676216193  0.7470624170409 1.0
C      1  0.2581231698665  0.6123314560951  0.4685487542257 1.0
C      1  0.4101433081240  0.5497327930650  0.5466670522485 1.0
C      1  0.4957789900679  0.6662486560356  0.6683303508482 1.0
C      1  0.7140197760142  0.6151407314427  0.5569908587143 1.0
C      1  0.5611271701294  0.3737128934675  0.5948153743247 1.0
C      1  0.6234876553842  0.4435131638820  0.3083939542747 1.0
C      1  0.4912043032991  0.6141732916998  0.2775129151663 1.0
C      1  0.3011418176855  0.4539977958692  0.6294483298959 1.0
C      1  0.4633696044801  0.3944665631042  0.3640729398777 1.0
C      1  0.7030067466559  0.3111681683145  0.6245970524941 1.0
C      1  0.5730313028474  0.7038271616159  0.5345163918538 1.0
C      1  0.5718804211655  0.5269920283364  0.6435737115420 1.0
C      1  0.4475164996986  0.5405448983811  0.4553536597521 1.0
C      1  0.4617621365093  0.3505172811534  0.4670735117840 1.0
C      1  0.1887139697203  0.4898808742237  0.5432212838926 1.0
C      1  0.3366318407497  0.6618189907809  0.4922936172565 1.0
C      1  0.4888772895737  0.6974118558405  0.5794051467313 1.0
C      1  0.6237656880858  0.4677988430029  0.7818434755473 1.0
C      1  0.5893161416888  0.7186834725698  0.4398257471390 1.0
C      1  0.3038188169061  0.4824360717019  0.3814495760963 1.0
C      1  0.5594098555180  0.4707240431252  0.5727142529126 1.0
C      1  0.6194739763775  0.5239687230417  0.4316799791515 1.0
C      1  0.5297221920180  0.7159390297223  0.3648104930995 1.0
C      1  0.3498290837630  0.5773899488149  0.7144486381014 1.0
C      1  0.5263869428407  0.4458386443093  0.3024441131973 1.0
C      1  0.3097125668294  0.2659893800366  0.4817103852987 1.0
C      1  0.6395670981465  0.6617444835345  0.5944802588641 1.0
END
