TITL C-191355-4848-1 -1.795 3375.00 -286.99914286 0 0 36 (C1) n - 1
REM
REM Run started: at 2020.12.23 20:48:22 in /rds/project/t2_vol4/rds-t2-cs072/BORA/CARBON/AIRSS/Generating-Clusters/Str-Search/Only-C1/C10-100
REM VASP from code version vasp.5.4.4.18Apr17-6-g9f103f2a35 (build Oct 11 2019 16:45:47) gamma-only
REM
REM
REM
REM
REM ./C.cell (67c5d0192afd7a3ce4a0888e5fe73b87)
REM AIRSS Version 0.9.1 bugfix July 2018 build 013d7b7c2542+ Fri, 06 Jul 2018 19:26:36 +0100
REM compiler GCC version 4.8.5 20150623 (Red Hat 4.8.5-39)
REM options -cpp -mtune=generic -march=x86-64 -g -O0
REM seed 1827037435 -1713327139 754797030 -396222863 1791521176 1131581705 560514335 1009375265 -356707442 1663963398 -2031567664 889153411
REM
REM C.POTCAR (d86ddea03c3ceb6dc662c8ad6801f873)
REM 
CELL 1.54180   15.00000   15.00000   15.00000   90.00000   90.00000   90.00000
LATT -1
SFAC C  
C      1  0.5586136703843  0.5023374311851  0.3471560748393 1.0
C      1  0.3502817333201  0.3273375365247  0.4885562673573 1.0
C      1  0.4934227853999  0.5582641169824  0.7172810221023 1.0
C      1  0.6844966080318  0.5706781290550  0.5687934245287 1.0
C      1  0.5309896878608  0.6157489695016  0.6458041783567 1.0
C      1  0.5459472715642  0.4049410184855  0.3521947736327 1.0
C      1  0.6455078973246  0.4516626048976  0.4643292408112 1.0
C      1  0.5229596910356  0.3475773251330  0.5043246540402 1.0
C      1  0.5439268767766  0.6489864848840  0.5543911992013 1.0
C      1  0.3906004447913  0.4046516878701  0.3218829774346 1.0
C      1  0.4214152048501  0.5032881109906  0.7296420471891 1.0
C      1  0.3865849251088  0.5301020820647  0.5490021550080 1.0
C      1  0.6804401223559  0.4791891750909  0.5483109002160 1.0
C      1  0.5129434738686  0.4164243641556  0.5658428968039 1.0
C      1  0.6805941326947  0.6952237798809  0.3580417414108 1.0
C      1  0.4663088140750  0.4856988549453  0.5685715547190 1.0
C      1  0.3215800141112  0.4564568311563  0.5516996618035 1.0
C      1  0.4035063209637  0.5897009268151  0.4780814272984 1.0
C      1  0.4833627516712  0.5650193191693  0.3512111418769 1.0
C      1  0.3949932424601  0.5447077229059  0.3913015833752 1.0
C      1  0.5121681174577  0.6506386571888  0.3901363062835 1.0
C      1  0.3723706923552  0.4393067751615  0.7049800475493 1.0
C      1  0.3653100395184  0.3152149905469  0.5822997522386 1.0
C      1  0.3398037256418  0.3966063629566  0.6292159028323 1.0
C      1  0.6360112694283  0.6341484722227  0.5218727740290 1.0
C      1  0.6511102701203  0.6204309508287  0.4254455262088 1.0
C      1  0.6341844994627  0.5252086119749  0.4032155668906 1.0
C      1  0.3512407906145  0.4592460065759  0.3868180036806 1.0
C      1  0.4363629959119  0.2986257081993  0.5147931092484 1.0
C      1  0.5847516452644  0.3771529460462  0.4366464845491 1.0
C      1  0.4673693725107  0.3745896341189  0.3134514797276 1.0
C      1  0.6573398997944  0.5130101161163  0.6390281944039 1.0
C      1  0.5942885538181  0.6863727632166  0.3650285946742 1.0
C      1  0.3174990145268  0.4138722204186  0.4651581031606 1.0
C      1  0.4789458263031  0.6499425900680  0.4812511564529 1.0
C      1  0.5827675186234  0.5476367226666  0.6842399760654 1.0
END
