TITL C-191496-5079-23 -0.307 3375.00 0 0 0 6 (D(inf)h) n - 1
REM
REM Run started: at 2020.03.16 09:55:25 in /rds/user/bk393/hpc-work/AIRSS.pl-DENE/CARBON/New-Try
REM VASP from code version vasp.5.4.4.18Apr17-6-g9f103f2a35 (build Oct 11 2019 16:45:47) gamma-only
REM
REM
REM
REM
REM ./C.cell (9f5935e56d41cf50cb14479ce98dda23)
REM AIRSS Version 0.9.1 bugfix July 2018 build 013d7b7c2542+ Fri, 06 Jul 2018 19:26:36 +0100
REM compiler GCC version 4.8.5 20150623 (Red Hat 4.8.5-39)
REM options -cpp -mtune=generic -march=x86-64 -g -O0
REM seed 1639139333 1951255123 -780588798 242233620 667117663 -1509289961 1384938933 -1032210051 1046140549 1024075566 -940637694 1206846748
REM
REM C.POTCAR (d86ddea03c3ceb6dc662c8ad6801f873)
REM 
CELL 1.54180   15.00000   15.00000   15.00000   90.00000   90.00000   90.00000
LATT -1
SFAC C  
C      1  0.5794279336957  0.4624209632122  0.4052901325442 1.0
C      1  0.4217480471154  0.5372161002616  0.5958563758291 1.0
C      1  0.4750557730470  0.5119547422682  0.5325917324802 1.0
C      1  0.5271000761072  0.4867678682206  0.4697310716330 1.0
C      1  0.3660548862075  0.5646910368924  0.6575174667574 1.0
C      1  0.6306132838273  0.4369492891450  0.3390133207562 1.0
END
