TITL C-191355-4848-36 -1.344 3375.00 -208.72226191 0 0 27 (C1) n - 1
REM
REM Run started: at 2020.12.24 07:12:43 in /rds/project/t2_vol4/rds-t2-cs072/BORA/CARBON/AIRSS/Generating-Clusters/Str-Search/Only-C1/C10-100
REM VASP from code version vasp.5.4.4.18Apr17-6-g9f103f2a35 (build Oct 11 2019 16:45:47) gamma-only
REM
REM
REM
REM
REM ./C.cell (67c5d0192afd7a3ce4a0888e5fe73b87)
REM AIRSS Version 0.9.1 bugfix July 2018 build 013d7b7c2542+ Fri, 06 Jul 2018 19:26:36 +0100
REM compiler GCC version 4.8.5 20150623 (Red Hat 4.8.5-39)
REM options -cpp -mtune=generic -march=x86-64 -g -O0
REM seed -420192307 -770875180 604821253 1889912976 -1534436044 570349021 1607174556 -1545933903 -1605760290 -1933056367 -528910018 -222084798
REM
REM C.POTCAR (d86ddea03c3ceb6dc662c8ad6801f873)
REM 
CELL 1.54180   15.00000   15.00000   15.00000   90.00000   90.00000   90.00000
LATT -1
SFAC C  
C      1  0.3988901805218  0.4405766277591  0.5934597855168 1.0
C      1  0.5380576517032  0.3690676707241  0.6450072834016 1.0
C      1  0.4761878564343  0.5970065853327  0.4993350683877 1.0
C      1  0.4420277153231  0.5529232868686  0.3654711524362 1.0
C      1  0.6589355392942  0.4601731340587  0.6175777973697 1.0
C      1  0.5117245527230  0.5259983796126  0.4337905772831 1.0
C      1  0.3942648090780  0.3748492029079  0.3532977720860 1.0
C      1  0.4584233733932  0.3927198890314  0.6492974625791 1.0
C      1  0.5539619916299  0.6207194563445  0.3093671943905 1.0
C      1  0.5041329470575  0.4300819747725  0.4739923064953 1.0
C      1  0.4686084692775  0.6045713503278  0.2936769520238 1.0
C      1  0.3608126827708  0.4342001924986  0.4245921986988 1.0
C      1  0.5881353381693  0.6043053148148  0.6213728996169 1.0
C      1  0.5631265550159  0.6184938048938  0.5292541561437 1.0
C      1  0.5105321441694  0.6100344530252  0.6765444487655 1.0
C      1  0.6224367198485  0.6327458511181  0.3633676100681 1.0
C      1  0.5524162831519  0.3495115472594  0.4193405703725 1.0
C      1  0.3611188845446  0.5311497592789  0.4253381623786 1.0
C      1  0.3808186615724  0.5773551659398  0.5081173699779 1.0
C      1  0.4798585183524  0.3602167597640  0.3660579124441 1.0
C      1  0.6166188996898  0.3813575575563  0.5927939777414 1.0
C      1  0.3813810199329  0.5350436555493  0.5986349369582 1.0
C      1  0.4333691019242  0.5827879843917  0.6618959002274 1.0
C      1  0.4099212947033  0.4093305724265  0.5032067467773 1.0
C      1  0.6567344081733  0.5420303341452  0.6361636998201 1.0
C      1  0.5947883985177  0.5854451256974  0.4394958769660 1.0
C      1  0.5827161030280  0.3773043639011  0.4995499810736 1.0
END
