TITL C-191355-4848-29 -2.531 3375.00 -435.00212086 0 0 53 (C1) n - 1
REM
REM Run started: at 2020.12.24 04:37:07 in /rds/project/t2_vol4/rds-t2-cs072/BORA/CARBON/AIRSS/Generating-Clusters/Str-Search/Only-C1/C10-100
REM VASP from code version vasp.5.4.4.18Apr17-6-g9f103f2a35 (build Oct 11 2019 16:45:47) gamma-only
REM
REM
REM
REM
REM ./C.cell (67c5d0192afd7a3ce4a0888e5fe73b87)
REM AIRSS Version 0.9.1 bugfix July 2018 build 013d7b7c2542+ Fri, 06 Jul 2018 19:26:36 +0100
REM compiler GCC version 4.8.5 20150623 (Red Hat 4.8.5-39)
REM options -cpp -mtune=generic -march=x86-64 -g -O0
REM seed -416418565 -1963254061 32564986 1421476426 -1876787740 2094691353 -1356500131 2108924106 1602626919 712260911 360063908 1549994717
REM
REM C.POTCAR (d86ddea03c3ceb6dc662c8ad6801f873)
REM 
CELL 1.54180   15.00000   15.00000   15.00000   90.00000   90.00000   90.00000
LATT -1
SFAC C  
C      1  0.5305329390846  0.6012298568987  0.3330969525002 1.0
C      1  0.5975274523922  0.5332276518550  0.3525666530810 1.0
C      1  0.5819586873893  0.2993926077640  0.4149349004826 1.0
C      1  0.2928915451119  0.4450656088564  0.5460686177609 1.0
C      1  0.6835888192731  0.3208981651455  0.4210815203022 1.0
C      1  0.3199401119950  0.5421026579199  0.5419148454892 1.0
C      1  0.5582237749787  0.4454155201098  0.3850709050389 1.0
C      1  0.4064580990008  0.5215281629475  0.3944917434212 1.0
C      1  0.4069699803199  0.5456305611534  0.5937753163352 1.0
C      1  0.6306571290986  0.3952501408345  0.4287107438149 1.0
C      1  0.4338904233818  0.6426979691854  0.6045708125482 1.0
C      1  0.5272509939077  0.6516572932298  0.6231834561237 1.0
C      1  0.4420258971073  0.2935381798638  0.5130735642642 1.0
C      1  0.7267086728722  0.5273763751931  0.4835716315293 1.0
C      1  0.6855042750381  0.4823304405468  0.6359635982787 1.0
C      1  0.6020945803707  0.3227196385740  0.5649283755212 1.0
C      1  0.5244321997564  0.6773312092018  0.3929345968065 1.0
C      1  0.5698321689783  0.5796226164922  0.6764774184441 1.0
C      1  0.6744457315710  0.5599467603321  0.3997510929142 1.0
C      1  0.3469753442107  0.7031192857726  0.4042063682287 1.0
C      1  0.6619292344730  0.5752003957072  0.6508162957085 1.0
C      1  0.4402165343441  0.3275276123579  0.3456774848866 1.0
C      1  0.5765412669476  0.3516575193725  0.6496077495791 1.0
C      1  0.5947028139511  0.6859753162087  0.5611887403905 1.0
C      1  0.7126696044525  0.4556307594429  0.5476205898814 1.0
C      1  0.3711626618918  0.3889654646591  0.3173245576708 1.0
C      1  0.3474957520502  0.4021466408964  0.6085216641691 1.0
C      1  0.4453996747266  0.5572565792413  0.3108757860757 1.0
C      1  0.2960505013689  0.6381333497014  0.5280186360545 1.0
C      1  0.3173847853704  0.5342917837662  0.4357670881058 1.0
C      1  0.6772293220315  0.6493555056488  0.4355779095376 1.0
C      1  0.4817434891423  0.3521951144243  0.6663402756450 1.0
C      1  0.3941704714931  0.3056728736726  0.4304538861401 1.0
C      1  0.4834692943966  0.5034650953720  0.5363432148325 1.0
C      1  0.4805437485262  0.4828646614029  0.4502776549878 1.0
C      1  0.5462750627892  0.4910366513074  0.7096838441676 1.0
C      1  0.6797767223919  0.6431375851594  0.5884658761399 1.0
C      1  0.4019447257407  0.4784645424425  0.3022473682722 1.0
C      1  0.3704228875855  0.6944096534994  0.5572181126092 1.0
C      1  0.3907885122433  0.4724196860459  0.6614181999785 1.0
C      1  0.5302941398284  0.3481420303155  0.3471939165536 1.0
C      1  0.4408223472812  0.7192692229490  0.4052300951090 1.0
C      1  0.7283798283803  0.6183176917120  0.5125192682746 1.0
C      1  0.4156418320841  0.3307835938341  0.6001444254429 1.0
C      1  0.3217204851119  0.3691174514679  0.4009554638093 1.0
C      1  0.2822982866861  0.4360107230154  0.4508750471011 1.0
C      1  0.5948937296761  0.6879583283995  0.4614642710575 1.0
C      1  0.5397324359837  0.2863518325519  0.5013783096577 1.0
C      1  0.3896487178722  0.7477585006877  0.4790621405281 1.0
C      1  0.4653263756070  0.4405724444989  0.7064534201715 1.0
C      1  0.6733606613981  0.3705319933932  0.5161396005064 1.0
C      1  0.6179582527553  0.4313424667403  0.6827305408027 1.0
C      1  0.2880970155813  0.6339564282297  0.4320354532688 1.0
END
