TITL C-196705-8927-3 -5.085 3375.00 -889.69345919 0 0 107 (C1) n - 1
REM
REM Run started: at 2021.01.18 11:01:41 in /rds/project/t2_vol4/rds-t2-cs072/BORA/CARBON/AIRSS/Generating-Clusters/Str-Search/Only-C1/C100-200
REM VASP from code version vasp.5.4.4.18Apr17-6-g9f103f2a35 (build Oct 11 2019 16:45:47) gamma-only
REM
REM
REM
REM
REM ./C.cell (efaf0b2bf1589a83377268d7ebe2c73f)
REM AIRSS Version 0.9.1 bugfix July 2018 build 013d7b7c2542+ Fri, 06 Jul 2018 19:26:36 +0100
REM compiler GCC version 4.8.5 20150623 (Red Hat 4.8.5-39)
REM options -cpp -mtune=generic -march=x86-64 -g -O0
REM seed -94307759 -1737448255 1383090732 -1482105279 1728823042 1804026644 1914245424 1577569476 -657681699 111925504 2052837160 1779403663
REM
REM C.POTCAR (d86ddea03c3ceb6dc662c8ad6801f873)
REM 
CELL 1.54180   15.00000   15.00000   15.00000   90.00000   90.00000   90.00000
LATT -1
SFAC C  
C      1  0.3345296640589  0.2892183589056  0.5986749486921 1.0
C      1  0.2171537576333  0.5872682866830  0.5487647123466 1.0
C      1  0.7611489094990  0.5404013141267  0.5909288954522 1.0
C      1  0.6625610671856  0.6907762068056  0.6449122992782 1.0
C      1  0.5372277608400  0.6421032424492  0.2279926014318 1.0
C      1  0.7458488442811  0.4834580698612  0.5083977288833 1.0
C      1  0.3695414772081  0.6181949571601  0.2571609392686 1.0
C      1  0.5885053632926  0.3693789985978  0.1673233455793 1.0
C      1  0.4489885477487  0.7635285845152  0.2732295679451 1.0
C      1  0.6535001985851  0.7271229226817  0.4886475238115 1.0
C      1  0.5111366069290  0.3144628316123  0.6195285606649 1.0
C      1  0.3322184679704  0.5099858570006  0.4898779896872 1.0
C      1  0.6785067160382  0.6239962779424  0.7111762147044 1.0
C      1  0.4464629852124  0.4636993665319  0.3015266045722 1.0
C      1  0.7037635590071  0.6065498755452  0.3880377009975 1.0
C      1  0.7810259585973  0.3588656680862  0.3144920030938 1.0
C      1  0.5740350325124  0.4034269687230  0.4672580657455 1.0
C      1  0.5464462708038  0.7370163393278  0.4690672383921 1.0
C      1  0.3897822656729  0.4505751625468  0.7858785515301 1.0
C      1  0.2684823229026  0.3335747001950  0.3921305291861 1.0
C      1  0.5282392942791  0.1659266708563  0.5059639355033 1.0
C      1  0.7408568166875  0.3309487104452  0.5357868013017 1.0
C      1  0.3731464468164  0.7563989934999  0.5039532789053 1.0
C      1  0.2281057457394  0.4103431244315  0.5494803549769 1.0
C      1  0.2490319793014  0.4170125812270  0.6540566815486 1.0
C      1  0.3944509793336  0.3714347783009  0.7341803867960 1.0
C      1  0.5250747374210  0.3763661331197  0.5549771278846 1.0
C      1  0.3809556013074  0.2178084425855  0.5584443640057 1.0
C      1  0.6087122075493  0.1982205627274  0.5553644920197 1.0
C      1  0.3193235695738  0.3466345260998  0.6766807374513 1.0
C      1  0.5794371645400  0.7312196171582  0.3679325356430 1.0
C      1  0.2307497528764  0.5018694981616  0.5042068538576 1.0
C      1  0.3429345833461  0.2721296447103  0.3980726710864 1.0
C      1  0.4863387984492  0.7666456913455  0.6164787384696 1.0
C      1  0.5366623383101  0.6204160189210  0.5844156639473 1.0
C      1  0.3039101211263  0.5787171775334  0.3365806590186 1.0
C      1  0.4397236822177  0.7368261538412  0.6996413656210 1.0
C      1  0.3736468324383  0.7701882597396  0.3319493586520 1.0
C      1  0.4659587355141  0.7765044683175  0.5274170387452 1.0
C      1  0.7483759024050  0.5614711039890  0.3102687162325 1.0
C      1  0.7053236256115  0.6909767195891  0.5596327226143 1.0
C      1  0.2513023782684  0.4891715007653  0.3417675374803 1.0
C      1  0.5354052351308  0.5659874339938  0.4258332654200 1.0
C      1  0.5196328154134  0.7050730477017  0.7350879802366 1.0
C      1  0.6208178029827  0.6013896420216  0.2143705480125 1.0
C      1  0.5356584724500  0.6374258731653  0.7972350625375 1.0
C      1  0.6433871970873  0.3961328273743  0.6864104532066 1.0
C      1  0.3662660182680  0.5609400061600  0.4164239503520 1.0
C      1  0.5004679651588  0.2683691801989  0.3627514874111 1.0
C      1  0.5318866273531  0.7222529536423  0.2862862013935 1.0
C      1  0.5272096875080  0.6388215489407  0.4945977412227 1.0
C      1  0.2498677282104  0.6591383785711  0.4992227112511 1.0
C      1  0.5646171160699  0.7080722201800  0.6461083478552 1.0
C      1  0.6210652843743  0.4872318630204  0.6426137047865 1.0
C      1  0.2466494331578  0.5905528543708  0.6388872474668 1.0
C      1  0.3864548543973  0.3875856197487  0.3073402130345 1.0
C      1  0.5851395887581  0.2998143175224  0.3174939496360 1.0
C      1  0.4586624872628  0.5856879170155  0.8176248034967 1.0
C      1  0.3050007695434  0.7135340393820  0.5575849714493 1.0
C      1  0.3806153487959  0.4574279288826  0.5466192818468 1.0
C      1  0.4756344692373  0.4920279161413  0.2188150423288 1.0
C      1  0.2093494379910  0.3774887738837  0.4506949732637 1.0
C      1  0.5344857675228  0.2218937570864  0.6125315017982 1.0
C      1  0.2995302213222  0.6715013551667  0.6463879967317 1.0
C      1  0.3292102401643  0.5213364373113  0.7585374784999 1.0
C      1  0.4798544591912  0.2006284631081  0.4335955262053 1.0
C      1  0.4683362026257  0.4892240791192  0.8240526628747 1.0
C      1  0.3625120284048  0.6812184761429  0.7154984088633 1.0
C      1  0.7099366249533  0.5385942884348  0.6726666196673 1.0
C      1  0.6928492580151  0.4667055205131  0.7398256253086 1.0
C      1  0.6519423840845  0.4744477034860  0.4714913228888 1.0
C      1  0.5034967852523  0.4787230879271  0.4597438268100 1.0
C      1  0.3882814266203  0.2191334689250  0.4618474327621 1.0
C      1  0.6328614286526  0.5049068012386  0.8032872445267 1.0
C      1  0.6776312512885  0.2612024792322  0.5595194898772 1.0
C      1  0.6300901520144  0.5443887268320  0.4163890545414 1.0
C      1  0.4788857608609  0.4647355064485  0.5570812259052 1.0
C      1  0.3726030650253  0.7106054899932  0.2573875469240 1.0
C      1  0.3739694995202  0.6058559548590  0.7755527861156 1.0
C      1  0.5705816897260  0.4087829552095  0.0819846869438 1.0
C      1  0.4119364290128  0.3032424565088  0.3401530455978 1.0
C      1  0.3228044625254  0.3824106250567  0.5678533758503 1.0
C      1  0.4528561378729  0.5217185662293  0.3843617967631 1.0
C      1  0.7757815322383  0.5660957226933  0.4511040038607 1.0
C      1  0.5600566337970  0.3793597261487  0.7468178740779 1.0
C      1  0.5223499709401  0.4358215322082  0.1583764685851 1.0
C      1  0.3486625097627  0.7370717165713  0.4124292462598 1.0
C      1  0.4824719604184  0.3445169939049  0.7088320022911 1.0
C      1  0.7830992806895  0.3956466770205  0.4780033407067 1.0
C      1  0.6230215425552  0.5987365349000  0.7866328405927 1.0
C      1  0.2952412441224  0.6531713901230  0.4106292186576 1.0
C      1  0.6630262189482  0.6982898918329  0.3989616967010 1.0
C      1  0.2650421242261  0.5097085612118  0.6892919237757 1.0
C      1  0.4629036082389  0.1677066057204  0.5851318791559 1.0
C      1  0.1961666284679  0.4698903595311  0.4167523073377 1.0
C      1  0.4569456787621  0.5888092623057  0.2213744571853 1.0
C      1  0.6349571450309  0.3234449728277  0.2351907334840 1.0
C      1  0.8054773188855  0.4141821888641  0.3849171037595 1.0
C      1  0.8071058457426  0.5136438140884  0.3682400059987 1.0
C      1  0.7698493625468  0.6174443510183  0.5402044231658 1.0
C      1  0.7243736788323  0.3377224342093  0.2568792725486 1.0
C      1  0.2951843125264  0.4033062571711  0.3258494809098 1.0
C      1  0.5538523105945  0.4501559332348  0.8113815467348 1.0
C      1  0.6918776416798  0.3347924329049  0.6178041372667 1.0
C      1  0.6954367116791  0.5701697908798  0.2337737550910 1.0
C      1  0.5421199451361  0.5273887659810  0.6112208542672 1.0
C      1  0.5734262112829  0.3358787772409  0.3961931929005 1.0
END
