TITL C-196705-8927-1 -5.91 3375.00 -978.53679332 0 0 121 (C1) n - 1
REM
REM Run started: at 2021.01.18 08:03:35 in /rds/project/t2_vol4/rds-t2-cs072/BORA/CARBON/AIRSS/Generating-Clusters/Str-Search/Only-C1/C100-200
REM VASP from code version vasp.5.4.4.18Apr17-6-g9f103f2a35 (build Oct 11 2019 16:45:47) gamma-only
REM
REM
REM
REM
REM ./C.cell (efaf0b2bf1589a83377268d7ebe2c73f)
REM AIRSS Version 0.9.1 bugfix July 2018 build 013d7b7c2542+ Fri, 06 Jul 2018 19:26:36 +0100
REM compiler GCC version 4.8.5 20150623 (Red Hat 4.8.5-39)
REM options -cpp -mtune=generic -march=x86-64 -g -O0
REM seed 893563817 -1662403746 -51215874 -470914429 -583102275 1876731865 816842863 2060143039 -1161026011 39694422 776183265 -1585138809
REM
REM C.POTCAR (d86ddea03c3ceb6dc662c8ad6801f873)
REM 
CELL 1.54180   15.00000   15.00000   15.00000   90.00000   90.00000   90.00000
LATT -1
SFAC C  
C      1  0.6456403070004  0.4975592364928  0.2198702400692 1.0
C      1  0.5531992577846  0.3555109732513  0.1960731775477 1.0
C      1  0.5699025328760  0.4621730632366  0.3549684996283 1.0
C      1  0.2359725062233  0.2220032746166  0.4757091934866 1.0
C      1  0.6985336988199  0.2127992482876  0.3350095722783 1.0
C      1  0.7354680565051  0.8011599722420  0.5385328179233 1.0
C      1  0.4017501039549  0.3104367121821  0.7363044297340 1.0
C      1  0.7436374818579  0.2817033857164  0.3461595373115 1.0
C      1  0.3029673428089  0.6264013218592  0.2223181212753 1.0
C      1  0.4466166778844  0.5502405199816  0.7072004923921 1.0
C      1  0.5627515211190  0.2944486007990  0.2839925762445 1.0
C      1  0.4234103038830  0.3349083724080  0.5967239035101 1.0
C      1  0.3329907883863  0.4628069918848  0.2406116747191 1.0
C      1  0.6523562638746  0.8437816969650  0.5247083553432 1.0
C      1  0.4924389807214  0.7207979144999  0.6762589529939 1.0
C      1  0.5472715195562  0.1754865215676  0.3961805713683 1.0
C      1  0.5058516414892  0.6381130535963  0.7248482450399 1.0
C      1  0.2851008003679  0.5411165330398  0.2606154582615 1.0
C      1  0.4577400610906  0.3736646140528  0.1867863475166 1.0
C      1  0.6484061789471  0.7112489306678  0.7054893814240 1.0
C      1  0.4197211902556  0.4640158964145  0.1911752579216 1.0
C      1  0.3392215844466  0.7725175303815  0.6104809401704 1.0
C      1  0.1811438237108  0.4686158814696  0.4812585635268 1.0
C      1  0.7221382542432  0.3118736029146  0.5581358382427 1.0
C      1  0.3800623709081  0.5925041102626  0.6449240006830 1.0
C      1  0.7058656510816  0.6802648317250  0.2646945539816 1.0
C      1  0.3530234411533  0.3012428891652  0.6519016770048 1.0
C      1  0.2628106922709  0.3363493559073  0.6593077820844 1.0
C      1  0.3010988018509  0.7067472941779  0.2442786405464 1.0
C      1  0.5650334410007  0.4548266523049  0.4480391094050 1.0
C      1  0.5706919789367  0.3402330990049  0.8722318815711 1.0
C      1  0.3813543653515  0.8471670775660  0.4193167139279 1.0
C      1  0.1813130042863  0.6276072137467  0.3525772543921 1.0
C      1  0.5633788744132  0.5245606806183  0.2782828186784 1.0
C      1  0.1988892107102  0.7098920584058  0.3456886300212 1.0
C      1  0.5233497424766  0.2848080690445  0.8299604207317 1.0
C      1  0.3763015479560  0.1698239358395  0.3999666653540 1.0
C      1  0.7824278902517  0.3903975241512  0.6605822349760 1.0
C      1  0.4651309490748  0.6467943836775  0.3577952968804 1.0
C      1  0.5809908764033  0.7553969656488  0.6552853985306 1.0
C      1  0.3322326195485  0.4536552812803  0.4438224935800 1.0
C      1  0.5310288712760  0.6486104870083  0.4321018370549 1.0
C      1  0.6472509608960  0.7527530454003  0.2483258052625 1.0
C      1  0.5792567703814  0.5070764067891  0.6069039051780 1.0
C      1  0.6426341612911  0.1668804355865  0.5615011034924 1.0
C      1  0.6058770633252  0.2079297958565  0.3289824516253 1.0
C      1  0.4747047775433  0.5284083774299  0.2265653424789 1.0
C      1  0.2005618396458  0.3485463229662  0.5861461212351 1.0
C      1  0.7661472099021  0.7445635858127  0.6084319982590 1.0
C      1  0.6140461542092  0.4222546612869  0.1823959991031 1.0
C      1  0.2982346010111  0.1833717037334  0.4270250668693 1.0
C      1  0.7033580677461  0.6176114051669  0.4387351092909 1.0
C      1  0.6255281399037  0.4782063276167  0.6869164188970 1.0
C      1  0.6425881750653  0.2632397823130  0.6873060625481 1.0
C      1  0.4653088417493  0.2815004248095  0.3134479048720 1.0
C      1  0.3885888363049  0.5817569603261  0.5465554997409 1.0
C      1  0.2254457685652  0.5959740514860  0.6186625723442 1.0
C      1  0.5380509232810  0.9006853054974  0.4331197031421 1.0
C      1  0.3206175479554  0.6322990873383  0.4864580179107 1.0
C      1  0.2924277570297  0.5367636844889  0.7524814687432 1.0
C      1  0.4571109735844  0.1962071080399  0.3681225474687 1.0
C      1  0.6185917159391  0.8948104249700  0.4534473178541 1.0
C      1  0.4848558852356  0.8240553326091  0.5550204747294 1.0
C      1  0.4265152734596  0.4299886138928  0.5817440309173 1.0
C      1  0.6122128621042  0.3903468740865  0.7976278764177 1.0
C      1  0.3581358438317  0.3962263756417  0.7692528392525 1.0
C      1  0.4051360941361  0.3243565002671  0.2480436847705 1.0
C      1  0.3235211859018  0.8212505059493  0.3661405646499 1.0
C      1  0.5597910321945  0.1520161944645  0.5960224460336 1.0
C      1  0.6012121291607  0.3655048818387  0.3515677159958 1.0
C      1  0.3777386448155  0.4902513953800  0.7669790295554 1.0
C      1  0.7333071821804  0.5193187594710  0.2673358894081 1.0
C      1  0.5574088711543  0.4211055754715  0.7095070537061 1.0
C      1  0.5497446338472  0.2870178315000  0.5112330286828 1.0
C      1  0.6127145954367  0.4891674952195  0.5256442229672 1.0
C      1  0.2973941339875  0.6030382273703  0.6835658246449 1.0
C      1  0.6242667202258  0.6576497170600  0.4114205869851 1.0
C      1  0.4808092650669  0.2605196309491  0.7521765972007 1.0
C      1  0.7531689323794  0.5533543243802  0.4973131692388 1.0
C      1  0.3895630235745  0.6515561633975  0.4253245702086 1.0
C      1  0.2674650035471  0.7449588503074  0.5764902631170 1.0
C      1  0.4596852658600  0.8630391068917  0.4693165967500 1.0
C      1  0.7413320519716  0.7162391893090  0.6915720801158 1.0
C      1  0.3795163582903  0.4822487433962  0.5235655273331 1.0
C      1  0.7132391560737  0.4794709943254  0.5290915004585 1.0
C      1  0.2468183993213  0.6594132060514  0.5437960946860 1.0
C      1  0.5780835995923  0.8143941429111  0.5807106352498 1.0
C      1  0.2643086002302  0.3923779459881  0.7335372534797 1.0
C      1  0.5409477365083  0.3559637864766  0.4402212374056 1.0
C      1  0.6469816366950  0.4880487352187  0.7828469867183 1.0
C      1  0.7502490735377  0.4452455511131  0.3181446284196 1.0
C      1  0.6399181845041  0.7047506304340  0.3283233235406 1.0
C      1  0.4304698571845  0.7731749875411  0.6187157462703 1.0
C      1  0.5425980567403  0.2336195203511  0.6693286329875 1.0
C      1  0.7506662222636  0.3981111346578  0.5725506660179 1.0
C      1  0.5105649553818  0.2952951087928  0.5958439163993 1.0
C      1  0.2416102141855  0.4902258022054  0.4191631841182 1.0
C      1  0.6414041011627  0.5741701309292  0.8011780871213 1.0
C      1  0.4917814145042  0.4756624915110  0.6487996921254 1.0
C      1  0.8390355986786  0.6789075700664  0.4558886156265 1.0
C      1  0.8035396162556  0.7395082086045  0.5194827653342 1.0
C      1  0.4594907731977  0.6266763427143  0.4879581714046 1.0
C      1  0.3680964708656  0.3881139003757  0.3864987207189 1.0
C      1  0.5709139897782  0.1899877694681  0.4958245460108 1.0
C      1  0.6003812316585  0.6420628621545  0.7570749393150 1.0
C      1  0.1902542217664  0.5096463670156  0.6363913268722 1.0
C      1  0.1747731303061  0.4418800132660  0.5677727209538 1.0
C      1  0.2031190147825  0.2836812642052  0.5215568632601 1.0
C      1  0.2240251001541  0.4786190928020  0.7240229005662 1.0
C      1  0.6766662598689  0.3271999907526  0.7470221342294 1.0
C      1  0.4911213868538  0.5978117527460  0.2837025690074 1.0
C      1  0.2268465895166  0.5479433066702  0.3405836603646 1.0
C      1  0.2704895056445  0.7627197922282  0.3154951755101 1.0
C      1  0.7662007677722  0.3600420060775  0.7381448718913 1.0
C      1  0.7618835319128  0.6089627416306  0.2894109512733 1.0
C      1  0.6907370198797  0.2403846930758  0.6051731093734 1.0
C      1  0.8420302674920  0.5835724115588  0.4619733823597 1.0
C      1  0.7873271527793  0.6290198087515  0.3856722138687 1.0
C      1  0.3410534111404  0.3810473660628  0.2913791109565 1.0
C      1  0.7096147923988  0.3706384432316  0.3455557928450 1.0
C      1  0.4517180789642  0.3433351842058  0.3925993269319 1.0
END
