TITL C-19544-864-2 -5.66 3375.00 -952.85372354 0 0 117 (C1) n - 1
REM
REM Run started: at 2021.01.17 22:02:43 in /rds/project/t2_vol4/rds-t2-cs072/BORA/CARBON/AIRSS/Generating-Clusters/Str-Search/Only-C1/C100-200
REM VASP from code version vasp.5.4.4.18Apr17-6-g9f103f2a35 (build Oct 11 2019 16:45:47) gamma-only
REM
REM
REM
REM
REM ./C.cell (efaf0b2bf1589a83377268d7ebe2c73f)
REM AIRSS Version 0.9.1 bugfix July 2018 build 013d7b7c2542+ Fri, 06 Jul 2018 19:26:36 +0100
REM compiler GCC version 4.8.5 20150623 (Red Hat 4.8.5-39)
REM options -cpp -mtune=generic -march=x86-64 -g -O0
REM seed -561474444 -236970267 681237503 -1244741469 -1650153643 -389219758 -2127542127 -1273253774 1771726829 -1683308685 -1583725638 -1907144671
REM
REM C.POTCAR (d86ddea03c3ceb6dc662c8ad6801f873)
REM 
CELL 1.54180   15.00000   15.00000   15.00000   90.00000   90.00000   90.00000
LATT -1
SFAC C  
C      1  0.6598120297527  0.5068183710004  0.2148539626263 1.0
C      1  0.7082128001362  0.3689438478780  0.2823528349236 1.0
C      1  0.4515674495088  0.2238336866847  0.5926559721660 1.0
C      1  0.6911615303551  0.8477931335163  0.5918089701229 1.0
C      1  0.6223572449512  0.6659269129200  0.2528102150602 1.0
C      1  0.5996216868293  0.5811014994704  0.2063811333750 1.0
C      1  0.3964379801037  0.7288512405469  0.6938227274601 1.0
C      1  0.2502056697655  0.3353316084290  0.6338578705626 1.0
C      1  0.8624285698273  0.2592310822694  0.5950569224227 1.0
C      1  0.5445133629823  0.7206995283978  0.2467746583923 1.0
C      1  0.5392598025905  0.1703550818710  0.3891112209587 1.0
C      1  0.3175073510308  0.7813612600790  0.5469557076551 1.0
C      1  0.5190897536372  0.8174561075336  0.6178687592563 1.0
C      1  0.7911101803922  0.5450644478890  0.5157254943245 1.0
C      1  0.6375433303863  0.4107753856367  0.2269221879686 1.0
C      1  0.4592426234731  0.5289015946071  0.8277139311248 1.0
C      1  0.3730568862587  0.4679906588399  0.2310237769961 1.0
C      1  0.8482693682899  0.5750238510947  0.3592607656081 1.0
C      1  0.7063191683009  0.3379175169688  0.5287146524958 1.0
C      1  0.6138130730469  0.3165637146585  0.6541660656392 1.0
C      1  0.6212022715423  0.2308244399755  0.6021831309430 1.0
C      1  0.2571541241570  0.6734955782851  0.6400730463199 1.0
C      1  0.5435359154649  0.4643486551525  0.8449278097574 1.0
C      1  0.3790870180678  0.4288355223194  0.3200336708892 1.0
C      1  0.7695788091786  0.4345193148004  0.3035798164773 1.0
C      1  0.5472776305463  0.6654503618513  0.5649008103716 1.0
C      1  0.3145207431818  0.3883613556559  0.3719896949762 1.0
C      1  0.7970574133398  0.4347853398365  0.3986088687949 1.0
C      1  0.5128970585164  0.1890571172384  0.4723809177808 1.0
C      1  0.7030493202582  0.2433934580181  0.5489194098376 1.0
C      1  0.3794033057384  0.2481845824823  0.6463731836615 1.0
C      1  0.3393216666423  0.1964653468590  0.3464587252652 1.0
C      1  0.3825570781340  0.4815012796341  0.6880826581847 1.0
C      1  0.3041470216320  0.2681231136467  0.5907157643614 1.0
C      1  0.5638941961327  0.3566008973867  0.2293911703528 1.0
C      1  0.6405083688499  0.5135570921223  0.5095381626735 1.0
C      1  0.6801501797663  0.6398609123021  0.4180058567493 1.0
C      1  0.2282641267567  0.5516563068703  0.3265388263262 1.0
C      1  0.6405189939844  0.5825248169889  0.7679492893818 1.0
C      1  0.6579526953023  0.6798282519700  0.3411365596508 1.0
C      1  0.6819278067398  0.3363203796204  0.3695192512961 1.0
C      1  0.6203184753308  0.5392844074302  0.6727306025043 1.0
C      1  0.7489085415179  0.5163821770803  0.2540820912609 1.0
C      1  0.5489788489463  0.7413081855565  0.7601443889935 1.0
C      1  0.7391960092620  0.3706182308330  0.4411385626155 1.0
C      1  0.4685606257831  0.5078879926990  0.9115384050375 1.0
C      1  0.5103089749241  0.6393412151854  0.3901313607542 1.0
C      1  0.8364036100437  0.4247050712929  0.6191032327031 1.0
C      1  0.4855709261317  0.7735172711786  0.6977628362897 1.0
C      1  0.8127780421488  0.5785446895209  0.2826097550886 1.0
C      1  0.2920329535918  0.6861838907288  0.3988910699873 1.0
C      1  0.5939752104925  0.6926600915022  0.4208452803684 1.0
C      1  0.3934263100381  0.4034818275421  0.5259845421764 1.0
C      1  0.8653716893524  0.3466682392962  0.6219938946880 1.0
C      1  0.3110995357969  0.6809532046488  0.2936913245063 1.0
C      1  0.3789825152856  0.6413914793672  0.7278085053839 1.0
C      1  0.8359966272543  0.5179834044200  0.4323637273637 1.0
C      1  0.5522842240094  0.3303610082195  0.7246620670182 1.0
C      1  0.7779396243111  0.4932266991178  0.5915800423116 1.0
C      1  0.5197396617102  0.5544159690182  0.6698242995568 1.0
C      1  0.4348450310481  0.2515918239062  0.4990765338754 1.0
C      1  0.3024906880036  0.1962084825082  0.4250339262793 1.0
C      1  0.3312890040244  0.5472701336923  0.2047737598661 1.0
C      1  0.2534072121865  0.5284940666429  0.7297032844346 1.0
C      1  0.3021019565002  0.4521179430819  0.7328760791798 1.0
C      1  0.5423266167193  0.3030748048561  0.2981986350485 1.0
C      1  0.4386570493838  0.5559499821192  0.7360567708967 1.0
C      1  0.4716841951860  0.5359167777394  0.5875099709587 1.0
C      1  0.5221802250560  0.5317409391208  0.3861267143309 1.0
C      1  0.5000968742831  0.2165629861917  0.3146520520331 1.0
C      1  0.5701190140395  0.7458436115740  0.5083121468105 1.0
C      1  0.3745930624943  0.5558466532064  0.4161816037072 1.0
C      1  0.4704671381836  0.6785274012497  0.2025847579013 1.0
C      1  0.5692513608164  0.4818533594220  0.4518703262207 1.0
C      1  0.6714198761180  0.4804224485892  0.6033346249505 1.0
C      1  0.5908096109198  0.3308778687823  0.3841271891989 1.0
C      1  0.3273547204958  0.2629722068754  0.4915069027914 1.0
C      1  0.4759049684455  0.6118703504620  0.5374062537679 1.0
C      1  0.3758129169542  0.7103078669360  0.4453504261239 1.0
C      1  0.4793998399529  0.7019752095496  0.3141212389476 1.0
C      1  0.4666714741016  0.3512439331058  0.4928507856039 1.0
C      1  0.4827870531532  0.7977261044587  0.5300341926929 1.0
C      1  0.6021639518432  0.6723576830342  0.7388362256415 1.0
C      1  0.4636296468193  0.3259575272880  0.7594746327153 1.0
C      1  0.3968446189021  0.7064621139903  0.2668146030801 1.0
C      1  0.5018848426519  0.5879672839232  0.1815441456238 1.0
C      1  0.6106937384682  0.8109345618760  0.5795878721171 1.0
C      1  0.4249942403665  0.5329949210022  0.1857478952237 1.0
C      1  0.2237840092126  0.3948506354590  0.4817137742991 1.0
C      1  0.6178932671962  0.5171043840934  0.8235555928599 1.0
C      1  0.2586878948928  0.7216568617273  0.4912365309576 1.0
C      1  0.4065884989507  0.4675312635700  0.5980049016290 1.0
C      1  0.3988398781645  0.7897034956286  0.4953941501316 1.0
C      1  0.2282985581476  0.5657912258538  0.5059715734219 1.0
C      1  0.2306131669693  0.6502125325442  0.5507931033671 1.0
C      1  0.7910560344469  0.2218409881201  0.5683205353209 1.0
C      1  0.4292384844168  0.4975490163983  0.3721438095280 1.0
C      1  0.1876594675369  0.4721409853044  0.3310663871842 1.0
C      1  0.4148831671444  0.1866680252835  0.3053346609587 1.0
C      1  0.6620249028430  0.3806051264539  0.6038301830548 1.0
C      1  0.1999402600430  0.3954956901003  0.5777563926602 1.0
C      1  0.5288144125710  0.3807072541562  0.8002330551409 1.0
C      1  0.4307121126079  0.6300812062600  0.4538219615838 1.0
C      1  0.3197094597243  0.3649611444615  0.4699573804152 1.0
C      1  0.2871094279413  0.6133605065412  0.7075941918319 1.0
C      1  0.3183581123906  0.7494083703857  0.6358880037099 1.0
C      1  0.2123119816728  0.4787954914123  0.5349350737354 1.0
C      1  0.2747295064274  0.5818634142017  0.4133754059278 1.0
C      1  0.3766009303483  0.3017845931858  0.7270719962939 1.0
C      1  0.7656197557085  0.8902738280498  0.5957615598523 1.0
C      1  0.7043254067507  0.5757980583569  0.4813857039226 1.0
C      1  0.2703427712039  0.6033545209951  0.2546976226521 1.0
C      1  0.2971181629981  0.3565437536551  0.7183497934749 1.0
C      1  0.5417379985191  0.1955242893369  0.5692132847350 1.0
C      1  0.5444099886171  0.3814362069357  0.4538114109286 1.0
C      1  0.5807735320809  0.6314850662990  0.6493702498530 1.0
C      1  0.2165298118752  0.4018533121019  0.3796873187504 1.0
END
