TITL C-191355-4848-17 -2.07 3375.00 -346.62436552 0 0 43 (C1) n - 1
REM
REM Run started: at 2020.12.24 01:30:54 in /rds/project/t2_vol4/rds-t2-cs072/BORA/CARBON/AIRSS/Generating-Clusters/Str-Search/Only-C1/C10-100
REM VASP from code version vasp.5.4.4.18Apr17-6-g9f103f2a35 (build Oct 11 2019 16:45:47) gamma-only
REM
REM
REM
REM
REM ./C.cell (67c5d0192afd7a3ce4a0888e5fe73b87)
REM AIRSS Version 0.9.1 bugfix July 2018 build 013d7b7c2542+ Fri, 06 Jul 2018 19:26:36 +0100
REM compiler GCC version 4.8.5 20150623 (Red Hat 4.8.5-39)
REM options -cpp -mtune=generic -march=x86-64 -g -O0
REM seed -280841237 -559230593 1859607753 -2140107685 -1261184344 -1220728592 88930982 1482112214 -1992699203 2074575890 -510190209 -1715901184
REM
REM C.POTCAR (d86ddea03c3ceb6dc662c8ad6801f873)
REM 
CELL 1.54180   15.00000   15.00000   15.00000   90.00000   90.00000   90.00000
LATT -1
SFAC C  
C      1  0.2746993311635  0.5935889020248  0.5495992074998 1.0
C      1  0.4542979853159  0.5545890916091  0.3644826469447 1.0
C      1  0.3212506917058  0.6656825831111  0.5795135662231 1.0
C      1  0.5810215485263  0.4752064132312  0.6879596371175 1.0
C      1  0.4066602487816  0.3996393374797  0.4322998069673 1.0
C      1  0.5600028509440  0.3137583074685  0.5871550834686 1.0
C      1  0.5989592494817  0.4664697849602  0.2781138228838 1.0
C      1  0.6363875061538  0.3996701837366  0.3336014180639 1.0
C      1  0.5382025599540  0.6393260747317  0.4470356147828 1.0
C      1  0.4409161171648  0.6499329199254  0.4730079964778 1.0
C      1  0.4398182676641  0.5592838371483  0.6841551836980 1.0
C      1  0.5449764658091  0.5963431748365  0.3573983031937 1.0
C      1  0.4906103314985  0.4742326815782  0.6994382838557 1.0
C      1  0.6204388181377  0.5493188103571  0.3281903004885 1.0
C      1  0.7032867303196  0.5157011039103  0.6235507369541 1.0
C      1  0.7465796843391  0.5416680158509  0.5475872762295 1.0
C      1  0.4540291798190  0.4143627775238  0.2996971693659 1.0
C      1  0.4783781521181  0.3044352633909  0.5924451967109 1.0
C      1  0.6223971617146  0.5582741653258  0.6587880887543 1.0
C      1  0.3886515027035  0.4710253741836  0.3575591003308 1.0
C      1  0.4833351027806  0.3664994017783  0.3837729484491 1.0
C      1  0.4816846869418  0.5508824420427  0.4649282910798 1.0
C      1  0.3587191768847  0.5074991972552  0.6665954112859 1.0
C      1  0.5139590573924  0.4530398088944  0.2420422365263 1.0
C      1  0.4136590521833  0.6675609314920  0.5662823193428 1.0
C      1  0.2884971259460  0.5145744146325  0.6068897119237 1.0
C      1  0.6421550340069  0.3791894185604  0.4717061629249 1.0
C      1  0.6069115512076  0.6290660411392  0.5162715225589 1.0
C      1  0.4105882643106  0.4256862854478  0.6668215152170 1.0
C      1  0.3168285902179  0.5465077380862  0.3910550198324 1.0
C      1  0.6557265629196  0.4321471236542  0.6363526643285 1.0
C      1  0.3859006928380  0.6137020713158  0.3990360891468 1.0
C      1  0.3600333769621  0.3940097251516  0.5143852379948 1.0
C      1  0.4053078673827  0.3622012298265  0.5968528645593 1.0
C      1  0.2692574592735  0.5314758009811  0.4705108154843 1.0
C      1  0.5732765183565  0.6201913839809  0.6067392646001 1.0
C      1  0.6859684047690  0.5816196118603  0.4868676985483 1.0
C      1  0.6829373166966  0.5326492630686  0.4022359646213 1.0
C      1  0.6321582266495  0.3683487930088  0.5648189621774 1.0
C      1  0.4765856316221  0.6298538956346  0.6300155528878 1.0
C      1  0.5777117019212  0.3556537791055  0.3970554344253 1.0
C      1  0.6879209563675  0.4384839641458  0.4087086109229 1.0
C      1  0.2893130590554  0.4566488765536  0.5284771611519 1.0
END
