TITL C-191355-4848-38 -2.568 3375.00 -424.58335828 0 0 52 (C1) n - 1
REM
REM Run started: at 2020.12.24 08:06:50 in /rds/project/t2_vol4/rds-t2-cs072/BORA/CARBON/AIRSS/Generating-Clusters/Str-Search/Only-C1/C10-100
REM VASP from code version vasp.5.4.4.18Apr17-6-g9f103f2a35 (build Oct 11 2019 16:45:47) gamma-only
REM
REM
REM
REM
REM ./C.cell (67c5d0192afd7a3ce4a0888e5fe73b87)
REM AIRSS Version 0.9.1 bugfix July 2018 build 013d7b7c2542+ Fri, 06 Jul 2018 19:26:36 +0100
REM compiler GCC version 4.8.5 20150623 (Red Hat 4.8.5-39)
REM options -cpp -mtune=generic -march=x86-64 -g -O0
REM seed -833176591 -340973135 -215945647 645737227 -69561996 -1189464972 -337899854 -1100817407 1750194930 2040406106 -1745071710 -1014687306
REM
REM C.POTCAR (d86ddea03c3ceb6dc662c8ad6801f873)
REM 
CELL 1.54180   15.00000   15.00000   15.00000   90.00000   90.00000   90.00000
LATT -1
SFAC C  
C      1  0.6385622166959  0.5701884827042  0.6888158693879 1.0
C      1  0.6658068513286  0.5341838379127  0.5312978595464 1.0
C      1  0.6078975852710  0.6862887091009  0.5705291489502 1.0
C      1  0.4419181653008  0.3468341293403  0.6657925204331 1.0
C      1  0.4750796300509  0.4770447471394  0.4112165900942 1.0
C      1  0.2493373730586  0.4507692083577  0.4361361619717 1.0
C      1  0.4244552017534  0.4391765847790  0.3352656995438 1.0
C      1  0.3952847473849  0.2878770654465  0.5195377122091 1.0
C      1  0.5264597922025  0.4614982984107  0.7317974860977 1.0
C      1  0.3207176358384  0.5765455614043  0.3646417766448 1.0
C      1  0.3747828291362  0.5211501053072  0.3064058540416 1.0
C      1  0.6033872232520  0.5129603060360  0.7386193209271 1.0
C      1  0.5192846786423  0.7122894427372  0.6062583159844 1.0
C      1  0.5285087848177  0.3704070020031  0.7001097014676 1.0
C      1  0.5786460790241  0.3711549953500  0.3810822596780 1.0
C      1  0.5833712419078  0.7431687121820  0.4042962275582 1.0
C      1  0.6330723240605  0.7128591025310  0.4829160664658 1.0
C      1  0.3827794513490  0.3573905271427  0.3773323959338 1.0
C      1  0.5774908549180  0.4884467686093  0.5308914737888 1.0
C      1  0.4435964319712  0.7667984894985  0.4669918771326 1.0
C      1  0.2532885787882  0.4945678638482  0.5181200679869 1.0
C      1  0.4393133321697  0.2980530895293  0.4333219865395 1.0
C      1  0.5368019434758  0.2566147875198  0.5932672788316 1.0
C      1  0.2665960827322  0.5438391077918  0.4317319006264 1.0
C      1  0.6553648264647  0.4267494883781  0.5209432909206 1.0
C      1  0.4762612476281  0.6615823288224  0.3294924283776 1.0
C      1  0.4895814942211  0.7346683636011  0.3917604620507 1.0
C      1  0.4848812035275  0.4833528408532  0.5036237563421 1.0
C      1  0.5357121601568  0.3027383517009  0.4332307852379 1.0
C      1  0.4675261697692  0.7625577636833  0.5466548804521 1.0
C      1  0.5652580992596  0.6189852734641  0.3126209846574 1.0
C      1  0.4387701129356  0.5920271988019  0.6964741233741 1.0
C      1  0.6937812963675  0.5656609755315  0.4416419462372 1.0
C      1  0.5926977560112  0.3187039167240  0.6500912036359 1.0
C      1  0.6383268088020  0.3430403105037  0.5693622735626 1.0
C      1  0.3921546102173  0.4325886601748  0.6526833838854 1.0
C      1  0.4461385984791  0.2777850119630  0.5997953563937 1.0
C      1  0.3035039764979  0.3739221682439  0.4274988118509 1.0
C      1  0.5819567624591  0.2792338134084  0.5137523457495 1.0
C      1  0.6625052471068  0.5020523464812  0.3767903312131 1.0
C      1  0.3214962834662  0.4360746638612  0.5724789471183 1.0
C      1  0.6522569578584  0.4171626181318  0.4189666673122 1.0
C      1  0.5278192734757  0.4430162351145  0.3332628618104 1.0
C      1  0.6532188928741  0.6039877269908  0.6049718777176 1.0
C      1  0.4755251663625  0.6618334761225  0.6713706239785 1.0
C      1  0.3986464691454  0.6110488452444  0.3243246678051 1.0
C      1  0.4141665791972  0.4646459587690  0.5601935576267 1.0
C      1  0.3232144586871  0.3487960030472  0.5189613904828 1.0
C      1  0.4391846461912  0.5006325143286  0.7112560910924 1.0
C      1  0.6865880538520  0.6542696926282  0.4230692911339 1.0
C      1  0.5873990942177  0.5242375489602  0.3204921178632 1.0
C      1  0.6296247196391  0.6785390797844  0.3478595902771 1.0
END
