TITL C-20747-725-25 -9.849 3375.00 -1725.98879693 0 0 210 (C1) n - 1
REM
REM Run started: at 2020.07.14 19:33:42 in /home/heco/bkarasulu/work/CARBON/AIRSS/Str-Search
REM VASP from code version vasp.5.4.4.18Apr17-6-g9f103f2a35 (build Jul 02 2020 21:03:42) gamma-only
REM
REM
REM
REM
REM ./C.cell (90889e035cd0f9d0e5f9cb6dd9eb5d52)
REM AIRSS Version 0.9.1 bugfix July 2018 build 013d7b7c2542+ Fri, 06 Jul 2018 19:26:36 +0100
REM compiler GCC version 9.2.0
REM options -cpp -mtune=generic -march=x86-64 -g -O0
REM seed 1034580986 -1667997157 -2019869603 -1006478358 1065655056 -1811796576 1004554805 2093382378 -1639242730 1444426590 1364441825 18951127 -563363073 -1860235883 963995586 -1782108772 1393684430 263873802 -1698578989 -270880198 -1243757773 506964496 1216294588 583174503 -1857874852 935358763 -1930618015 992616131 246947312 -1380213682 -1734318384 1612574921 -1245319144
REM
REM C.POTCAR (d86ddea03c3ceb6dc662c8ad6801f873)
REM 
CELL 1.54180   15.00000   15.00000   15.00000   90.00000   90.00000   90.00000
LATT -1
SFAC C  
C      1  0.4725047323351  0.5711089985077  0.8818365215798 1.0
C      1  0.2783566942410  0.4210851104203  0.2548659605398 1.0
C      1  0.9472099586383  0.5581819916755  0.5234690076218 1.0
C      1  0.4006482214396  0.4955308572895  0.8694218640549 1.0
C      1  0.3056253315782  0.6233213521860  0.2216272270574 1.0
C      1  0.8087235190343  0.3444254500619  0.2407076769871 1.0
C      1  0.5490874153437  0.2224835945396  0.7874289250376 1.0
C      1  0.3624071230254  0.6540392995992  0.5233401613359 1.0
C      1  0.6414408557700  0.3767068823123  0.7675056697342 1.0
C      1  0.4990264943175  0.7670247779259  0.1604792213022 1.0
C      1  0.1551747559034  0.3330308819484  0.3809198736585 1.0
C      1  0.6085012359730  0.2601736927134  0.3765782858633 1.0
C      1  0.8151828016684  0.1851601429942  0.5534296837588 1.0
C      1  0.7312682446879  0.1108407920915  0.4295861546300 1.0
C      1  0.2586091959587  0.4203323659261  0.1542639718430 1.0
C      1  0.1621200062604  0.2675677960401  0.7270031334246 1.0
C      1  0.5854658839888  0.7659387477491  0.8470844506173 1.0
C      1  0.7373158730318  0.8252859485717  0.4828740408821 1.0
C      1  0.5461253896163  0.8421373403617  0.7210172800127 1.0
C      1  0.4850847662226  0.4421148196186  0.1278196689853 1.0
C      1  0.5986383950109  0.8964796861009  0.5866879987150 1.0
C      1  0.7391435173046  0.5830742155518  0.5524402765905 1.0
C      1  0.6426103897990  0.5815973780513  0.5117705693567 1.0
C      1  0.5152848387090  0.3322107607740  0.6944779289343 1.0
C      1  0.3684716137105  0.3361117973528  0.8162881032304 1.0
C      1  0.5438023597094  0.4496840971988  0.2020168941232 1.0
C      1  0.3472193444250  0.1655936590651  0.5725198419289 1.0
C      1  0.3504118384660  0.8512209573061  0.5057878439141 1.0
C      1  0.2858730301227  0.2017396123888  0.3510447256603 1.0
C      1  0.4233489975132  0.7428669327777  0.8006436057203 1.0
C      1  0.5809534119016  0.5522339806468  0.5868397919203 1.0
C      1  0.1705666287927  0.7077361609549  0.5803137016531 1.0
C      1  0.4097278224485  0.6633434668433  0.8608841098948 1.0
C      1  0.8534790601860  0.6887325116572  0.4177826986942 1.0
C      1  0.9394785201776  0.4667641877594  0.5506585902354 1.0
C      1  0.1464241894179  0.4890142127530  0.4602673256047 1.0
C      1  0.4634838455526  0.6366069217824  0.3972839602189 1.0
C      1  0.4169189350186  0.4818652719872  0.3475176709754 1.0
C      1  0.6209200651860  0.8105781019417  0.2657436436787 1.0
C      1  0.1900918265521  0.5158882166998  0.3793304584334 1.0
C      1  0.9579871831909  0.6846604090500  0.6169193930930 1.0
C      1  0.6072405887250  0.2153687245930  0.2350744042566 1.0
C      1  0.6019916887231  0.6660114370498  0.4735941796502 1.0
C      1  0.5553685072600  0.3269244172180  0.7863554657155 1.0
C      1  0.6045287009018  0.7990031893046  0.3688594741024 1.0
C      1  0.1940982086695  0.3352670931339  0.5316187080792 1.0
C      1  0.3807480012990  0.2382374207203  0.8125492606651 1.0
C      1  0.3052049158002  0.6084441512830  0.3126836507574 1.0
C      1  0.5158448131113  0.6268025774962  0.0758990023075 1.0
C      1  0.3846894076500  0.2371119816990  0.6355312275078 1.0
C      1  0.6533399147886  0.1586160024958  0.5538041307300 1.0
C      1  0.7819989153077  0.5770736558940  0.7249184023564 1.0
C      1  0.1337689833691  0.3098682769690  0.2176089847905 1.0
C      1  0.4548198238949  0.6633370287950  0.5574139862288 1.0
C      1  0.2456193753302  0.2376645608113  0.7173373198725 1.0
C      1  0.1100774236697  0.5065957275124  0.6921459266699 1.0
C      1  0.7532159835331  0.7149492766928  0.2822716274433 1.0
C      1  0.4337912676246  0.9203827715916  0.6275520746900 1.0
C      1  0.3197632240957  0.3455665101261  0.4091854162253 1.0
C      1  0.5362259266056  0.8224429107580  0.2281016113589 1.0
C      1  0.4340617913607  0.4062490231533  0.5054254226932 1.0
C      1  0.5140805024025  0.2499329961865  0.4132496781193 1.0
C      1  0.1934477628814  0.6383165017356  0.7312946439679 1.0
C      1  0.2669697966504  0.8037311529141  0.4969692302349 1.0
C      1  0.6480270406029  0.6868733325140  0.5598470752152 1.0
C      1  0.6559080798073  0.7813565817524  0.8009081584942 1.0
C      1  0.1309505823588  0.5634278863955  0.5205629322488 1.0
C      1  0.2424074070590  0.2766945876491  0.3984356077398 1.0
C      1  0.2190810793042  0.6025465181190  0.3607796289691 1.0
C      1  0.5007027806601  0.3475266624605  0.5548447347868 1.0
C      1  0.5397492676669  0.5220455825413  0.7295698976025 1.0
C      1  0.1783200913086  0.5479130471768  0.7498381793180 1.0
C      1  0.6283555312289  0.2395164441387  0.5235658325944 1.0
C      1  0.5243228664386  0.5761629066335  0.7958439492245 1.0
C      1  0.1407222087185  0.2768558723972  0.1251262854065 1.0
C      1  0.6698656683587  0.4233687219752  0.8475046782232 1.0
C      1  0.6755134428213  0.8568597391751  0.6334286102063 1.0
C      1  0.5839528212926  0.4462389231696  0.8971207551277 1.0
C      1  0.4700577952627  0.8373264705338  0.2938171358544 1.0
C      1  0.6431999353423  0.8284342750923  0.7193964607442 1.0
C      1  0.7966951443246  0.7415440788241  0.4816657921325 1.0
C      1  0.6540237374748  0.4083909747323  0.6732824135998 1.0
C      1  0.7475310042905  0.8342506403150  0.5783559849745 1.0
C      1  0.4265645377095  0.1083539222370  0.3906549726327 1.0
C      1  0.5101624036407  0.4812592479982  0.2905034330022 1.0
C      1  0.5608511154653  0.5692745174089  0.2876391417907 1.0
C      1  0.3511681959103  0.4235112274875  0.1132216362540 1.0
C      1  0.6450973917161  0.4208878694317  0.3669400103946 1.0
C      1  0.8570448237198  0.2488688068090  0.5875315885072 1.0
C      1  0.5559733749828  0.7053044145787  0.1164651939379 1.0
C      1  0.6058082754449  0.1163600420850  0.6870200108610 1.0
C      1  0.6801847213285  0.2442976825661  0.1929174412826 1.0
C      1  0.8955102861302  0.5964829567110  0.4447653317719 1.0
C      1  0.7459802230071  0.1351250068545  0.5194156739532 1.0
C      1  0.6514549197056  0.5400018568437  0.0889064381959 1.0
C      1  0.2166933334032  0.5103250128137  0.1375432818413 1.0
C      1  0.4841922994963  0.0951770519389  0.4616606405658 1.0
C      1  0.1498103058283  0.3869237926601  0.4663622909229 1.0
C      1  0.3114264745253  0.6208923250771  0.6004905151870 1.0
C      1  0.8253843384675  0.7096847088121  0.3339063472639 1.0
C      1  0.2850488028687  0.4537767717732  0.6189484357667 1.0
C      1  0.2712623425966  0.1825982880015  0.5312220233397 1.0
C      1  0.6860108398263  0.6518972847146  0.3159009129035 1.0
C      1  0.2359441487237  0.7761814837452  0.5850675137007 1.0
C      1  0.0904115757740  0.4195448604093  0.7023763734438 1.0
C      1  0.4401539512283  0.5066451023671  0.5101312430203 1.0
C      1  0.6945260760824  0.3776007039838  0.4392009782736 1.0
C      1  0.3176662205278  0.1862818246757  0.7636281640813 1.0
C      1  0.3846283539952  0.7957895553504  0.2701381097571 1.0
C      1  0.4061688008435  0.0946267548196  0.6151091713022 1.0
C      1  0.4613688533690  0.2953583508602  0.6316956065771 1.0
C      1  0.1946679124992  0.3447018564054  0.1457916679111 1.0
C      1  0.2855433373920  0.6675660410407  0.7606537945413 1.0
C      1  0.7835318008843  0.4126788146042  0.2946963050771 1.0
C      1  0.7463403088682  0.3065752047398  0.1742237136724 1.0
C      1  0.7646708084850  0.4379777061196  0.4650324637284 1.0
C      1  0.7833697172106  0.2558220175308  0.7533467369273 1.0
C      1  0.6205448545725  0.6252751636690  0.6450840076462 1.0
C      1  0.4092510855545  0.7428171564034  0.1883795565292 1.0
C      1  0.6853157119281  0.7566698754809  0.2192687288832 1.0
C      1  0.5240076592359  0.2758876499794  0.2422372913815 1.0
C      1  0.7242442732178  0.3719721738168  0.1093376278148 1.0
C      1  0.2359235915031  0.5823612055343  0.1727890530588 1.0
C      1  0.5359133038544  0.6387740066936  0.3392335716346 1.0
C      1  0.3171327805388  0.5336219665413  0.8456776177119 1.0
C      1  0.6692592945009  0.6033412340404  0.1574456985561 1.0
C      1  0.0897110139473  0.5746905039247  0.6183777949137 1.0
C      1  0.4560310271483  0.6308513215006  0.6532358018193 1.0
C      1  0.3421921437527  0.7424815350999  0.7262831228657 1.0
C      1  0.2239445266248  0.2485196792228  0.4946890157464 1.0
C      1  0.6473228954105  0.6989450093763  0.1486692790635 1.0
C      1  0.5504833156588  0.5299805508116  0.9442692624190 1.0
C      1  0.8934001231557  0.7357729817329  0.6206352992531 1.0
C      1  0.5468243418965  0.4165120501484  0.3627752554541 1.0
C      1  0.3991749407033  0.9997641499114  0.6144507085460 1.0
C      1  0.6872237633924  0.4333120680372  0.2865661154862 1.0
C      1  0.4261256099767  0.3615467503924  0.1358509278098 1.0
C      1  0.5391587423300  0.6247961010924  0.7109392540070 1.0
C      1  0.1570753518037  0.6550028797262  0.4977876243786 1.0
C      1  0.7126230442833  0.5761912647317  0.6532662131232 1.0
C      1  0.3657418667299  0.8569134204076  0.6001232454041 1.0
C      1  0.4969256940692  0.8316899807824  0.3830901767783 1.0
C      1  0.4302583655270  0.5979828277384  0.1084718767274 1.0
C      1  0.1141880577751  0.3300668785944  0.2997942758847 1.0
C      1  0.4735732999595  0.4517689947423  0.4266956197198 1.0
C      1  0.4837908370677  0.5644643384130  0.5758974785815 1.0
C      1  0.5189857514383  0.3884886689703  0.8607657741760 1.0
C      1  0.4245481558807  0.4050780243009  0.8603731275524 1.0
C      1  0.2546526239398  0.5002006732196  0.7817865532095 1.0
C      1  0.6345547501794  0.4372720905790  0.2046409730126 1.0
C      1  0.4580187630321  0.2957097394983  0.1863653123282 1.0
C      1  0.7989898026503  0.4879140227014  0.7154153533409 1.0
C      1  0.5369548649000  0.2729705129037  0.5046014987827 1.0
C      1  0.5800860583614  0.1092116872988  0.6017481651577 1.0
C      1  0.3466494176857  0.3625033436661  0.4952188589625 1.0
C      1  0.5040834399945  0.6664650927111  0.4772509146375 1.0
C      1  0.2958683801344  0.5350251930153  0.5681033625753 1.0
C      1  0.5718123891289  0.4769347361215  0.6535375566068 1.0
C      1  0.3440735082226  0.1446684897848  0.3674680922671 1.0
C      1  0.5932360650889  0.8958686098325  0.4938636504762 1.0
C      1  0.8393104605172  0.3266812780832  0.7272665954663 1.0
C      1  0.6549205134924  0.8465658805569  0.4421286333957 1.0
C      1  0.5645022016010  0.3845348835102  0.6288042885904 1.0
C      1  0.5053429393889  0.7881259156403  0.7956290195163 1.0
C      1  0.3564993275486  0.5591574022088  0.4805478687668 1.0
C      1  0.2412673408880  0.4534856999976  0.3270143700014 1.0
C      1  0.1137516872510  0.3388129392646  0.7184043846840 1.0
C      1  0.6837165436110  0.1146683353137  0.3619169694025 1.0
C      1  0.4009820473704  0.1578986948097  0.7042019804427 1.0
C      1  0.8150780897621  0.4612406289864  0.3795710023450 1.0
C      1  0.3806784652616  0.5758246719998  0.3769242678379 1.0
C      1  0.6774323263835  0.4472368015538  0.1159842795253 1.0
C      1  0.5151411395677  0.1522093269903  0.3848385230349 1.0
C      1  0.2010538593141  0.6752887915405  0.4161773847337 1.0
C      1  0.8657395994962  0.5336103342022  0.3875013264856 1.0
C      1  0.3058934127455  0.8014200501460  0.6488496827649 1.0
C      1  0.3258557110090  0.6282340565582  0.8418722182496 1.0
C      1  0.2638709762653  0.7536969306808  0.4105544348855 1.0
C      1  0.6284027603955  0.1751457507469  0.7531559022628 1.0
C      1  0.4942420308841  0.0970447704941  0.5577935988281 1.0
C      1  0.1432407867674  0.6558382056047  0.6525768505351 1.0
C      1  0.3243661151697  0.3605363796537  0.7380791228946 1.0
C      1  0.3564661767035  0.6485579653053  0.6823623840094 1.0
C      1  0.4608850306872  0.1919632105634  0.7811921427799 1.0
C      1  0.7605561441738  0.4176695957295  0.8452401470098 1.0
C      1  0.7152139489022  0.2098298513385  0.7660761144792 1.0
C      1  0.7480297479620  0.6827402073555  0.5465812172041 1.0
C      1  0.3462789054892  0.7356030920437  0.4681176262392 1.0
C      1  0.2819139713959  0.3615172554774  0.5781991257393 1.0
C      1  0.7280525932417  0.4693305988567  0.6413889991973 1.0
C      1  0.3810880010817  0.6561747683612  0.1680809678914 1.0
C      1  0.8167035941632  0.4102047288428  0.7713770888521 1.0
C      1  0.5228838554380  0.8930917438946  0.6481193607222 1.0
C      1  0.9248970694196  0.3977762731534  0.5954340857018 1.0
C      1  0.6147743672957  0.6924568507947  0.3747438389975 1.0
C      1  0.6533939152336  0.5892494655296  0.2563668347921 1.0
C      1  0.6665184629144  0.2919196001826  0.4503047136305 1.0
C      1  0.3069328143821  0.2979670536602  0.6610161355669 1.0
C      1  0.8098580356175  0.7564315612009  0.5849700216038 1.0
C      1  0.6098473126114  0.1677441214323  0.3286965507308 1.0
C      1  0.8808086279545  0.3239404554603  0.6372731794900 1.0
C      1  0.5328921324218  0.3141258037602  0.3376565469339 1.0
C      1  0.2890907777824  0.4434557083632  0.7133652869533 1.0
C      1  0.4018961522001  0.8169928117555  0.4257545179960 1.0
C      1  0.7628790817605  0.4842474389123  0.5448917834167 1.0
C      1  0.4124156114797  0.4996062951197  0.1063209623990 1.0
C      1  0.3376830333919  0.4136040484128  0.3344308248720 1.0
C      1  0.9967094131772  0.6056854486199  0.5901489507560 1.0
C      1  0.3338031222056  0.7985044693897  0.3479364532962 1.0
C      1  0.5767474876071  0.5639898664336  0.0267778250315 1.0
END
