TITL C-217052-2769-5 -9.621 3375.00 -1645.04603664 0 0 200 (C1) n - 1
REM
REM Run started: at 2020.12.12 15:23:48 in /rds/project/t2_vol4/rds-t2-cs072/BORA/CARBON/AIRSS/Generating-Clusters/Str-Search/Only-C1/C100-200
REM VASP from code version vasp.5.4.4.18Apr17-6-g9f103f2a35 (build Oct 11 2019 16:45:47) gamma-only
REM
REM
REM
REM
REM ./C.cell (efaf0b2bf1589a83377268d7ebe2c73f)
REM AIRSS Version 0.9.1 bugfix July 2018 build 013d7b7c2542+ Fri, 06 Jul 2018 19:26:36 +0100
REM compiler GCC version 4.8.5 20150623 (Red Hat 4.8.5-39)
REM options -cpp -mtune=generic -march=x86-64 -g -O0
REM seed -131541278 -939943932 -474314594 472334786 -1370498816 -1395562184 -437786208 1096061022 -849664632 -507196275 1910341151 -863497828
REM
REM C.POTCAR (d86ddea03c3ceb6dc662c8ad6801f873)
REM 
CELL 1.54180   15.00000   15.00000   15.00000   90.00000   90.00000   90.00000
LATT -1
SFAC C  
C      1  0.4852666628127  0.7937156765035  0.4418832260265 1.0
C      1  0.6876732062582  0.3161018181551  0.7032427036454 1.0
C      1  0.6959531447901  0.7516387238044  0.6693961583083 1.0
C      1  0.1380486217820  0.6292870353253  0.4877761440328 1.0
C      1  0.2298156677471  0.3832135707522  0.2562299604891 1.0
C      1  0.6720052721186  0.6689968290606  0.6095070445906 1.0
C      1  0.7793914383329  0.3604119749654  0.5545381353125 1.0
C      1  0.6618429567050  0.1401549488756  0.5020994125308 1.0
C      1  0.1858749881610  0.5776494698046  0.5605131464677 1.0
C      1  0.4603207829037  0.0709322104514  0.4542882492978 1.0
C      1  0.4352568605435  0.4126165267584  0.3134045088325 1.0
C      1  0.6222261114923  0.3941101769594  0.9356462623552 1.0
C      1  0.2698552697222  0.5912470261404  0.7007793638930 1.0
C      1  0.3660829692944  0.3465239074672  0.5381626605053 1.0
C      1  0.0981331850273  0.5319158202815  0.3922213381328 1.0
C      1  0.4373773744819  0.3604167513030  0.8761366891454 1.0
C      1  0.5382044099382  0.3436904484409  0.4079234763588 1.0
C      1  0.1639709221365  0.7232510119942  0.5152424643967 1.0
C      1  0.7704489343735  0.4735072613539  0.2505369661755 1.0
C      1  0.5091307863699  0.6263070514144  0.3614939290139 1.0
C      1  0.3856695562971  0.8207578444054  0.2617309777772 1.0
C      1  0.6596742325534  0.1257318665538  0.3980966007217 1.0
C      1  0.6854094387933  0.4244242370839  0.7017450654314 1.0
C      1  0.8286487722485  0.7375736787155  0.5801700451985 1.0
C      1  0.5707011899983  0.7821837582932  0.3993876310742 1.0
C      1  0.2147777334120  0.6350245739511  0.3210206782462 1.0
C      1  0.4230134531439  0.1553302872688  0.7785654047545 1.0
C      1  0.2696399397805  0.3411176833479  0.5897267754624 1.0
C      1  0.3195990592308  0.8894020750945  0.4505014376289 1.0
C      1  0.3823243159272  0.7574040249421  0.6424549837729 1.0
C      1  0.8557613299084  0.4614972758294  0.6666169765198 1.0
C      1  0.5771593910526  0.2042255814914  0.5119786274832 1.0
C      1  0.4731625424726  0.9696027279398  0.4336186716059 1.0
C      1  0.3183743254500  0.5199993763836  0.1575453267567 1.0
C      1  0.4175648266551  0.1941110684166  0.3426555836286 1.0
C      1  0.5060202709834  0.9419779091940  0.3360563311066 1.0
C      1  0.5729903998532  0.4699102412979  0.4461074906136 1.0
C      1  0.4426222071061  0.1937129593106  0.8589221273769 1.0
C      1  0.0507099403786  0.5707666905856  0.4694268724727 1.0
C      1  0.5950694869917  0.2754006299545  0.4353053233555 1.0
C      1  0.4993459565737  0.6615003615015  0.5879378584819 1.0
C      1  0.1244590718248  0.4529241561186  0.3607746438742 1.0
C      1  0.5652147523164  0.4168797469277  0.1592600790144 1.0
C      1  0.7426228437807  0.3135429380580  0.7907189615009 1.0
C      1  0.4200526522556  0.9025629579261  0.3087437252317 1.0
C      1  0.3840573523210  0.6369476120698  0.3110434439470 1.0
C      1  0.4691265339767  0.4275386304774  0.1340703925072 1.0
C      1  0.6605771580097  0.2774662673515  0.8336672243126 1.0
C      1  0.4929588502058  0.3684540362718  0.6589646779459 1.0
C      1  0.2847587486846  0.1117899842536  0.7055403258176 1.0
C      1  0.5750800706388  0.1303892791998  0.3396868866520 1.0
C      1  0.7661914328934  0.3889568674486  0.2983531286168 1.0
C      1  0.6510710993894  0.5940625674520  0.6718257243017 1.0
C      1  0.3351308605854  0.4966657250243  0.8576304429317 1.0
C      1  0.3971428123698  0.7489745163117  0.4216017259788 1.0
C      1  0.2262133267471  0.7197081778318  0.5896335432158 1.0
C      1  0.5016637856722  0.4131979932244  0.8212379338047 1.0
C      1  0.7843273536003  0.8357242246610  0.4610817843038 1.0
C      1  0.5952281786004  0.1905917498923  0.2626699155902 1.0
C      1  0.7904975087541  0.6485733791425  0.2754093733428 1.0
C      1  0.7642390258588  0.5566984084835  0.7579423833079 1.0
C      1  0.2391975737400  0.3651842055409  0.7976809824483 1.0
C      1  0.6178743684594  0.4790323669290  0.7704958280001 1.0
C      1  0.4384315780983  0.2726771711708  0.8898848174804 1.0
C      1  0.3714949329295  0.4567805684314  0.6927968456427 1.0
C      1  0.3767682251590  0.1029123681754  0.4999890505389 1.0
C      1  0.4697610713266  0.7255649888762  0.7657012265057 1.0
C      1  0.5928456156326  0.6304996802861  0.5565282515047 1.0
C      1  0.2470716286469  0.3719340252341  0.4330150511088 1.0
C      1  0.7288801882211  0.2087630251868  0.5478090516293 1.0
C      1  0.6190699856879  0.7410687795884  0.7329449946844 1.0
C      1  0.6832821898451  0.2249345325964  0.2768243080111 1.0
C      1  0.2696796548270  0.4526806998864  0.8017637642483 1.0
C      1  0.7291079991440  0.6691088400226  0.2081945419093 1.0
C      1  0.5121424391548  0.6144687839594  0.1884621166107 1.0
C      1  0.6093413588972  0.6621334137817  0.7923544256701 1.0
C      1  0.2752054259659  0.2656832468271  0.6664237541015 1.0
C      1  0.7649582993157  0.6609298025313  0.5751045515732 1.0
C      1  0.4081399813653  0.7674939374787  0.1765727391179 1.0
C      1  0.4408652205816  0.6057624199620  0.1234124751849 1.0
C      1  0.4974560944594  0.7843669592160  0.1601127206584 1.0
C      1  0.3871688955470  0.5831116845136  0.4737808515569 1.0
C      1  0.8523825545796  0.6523293276933  0.5264154210818 1.0
C      1  0.2904324428984  0.1401233656624  0.5370890879433 1.0
C      1  0.6532580197152  0.5986466003042  0.3881564869895 1.0
C      1  0.8708335552435  0.4645578235712  0.4024373218902 1.0
C      1  0.1894982452144  0.1498870399910  0.5082314741868 1.0
C      1  0.5313858627862  0.2729143642590  0.6871031746178 1.0
C      1  0.2392575382985  0.6512578220125  0.2302411766607 1.0
C      1  0.4128336758204  0.5131582065223  0.1255406205716 1.0
C      1  0.6439785980704  0.4486563152418  0.1354658781265 1.0
C      1  0.6843648166372  0.3268862375267  0.2885150978035 1.0
C      1  0.2277152342216  0.2997701872871  0.7472244070381 1.0
C      1  0.2486863809906  0.2967032767552  0.2339679617120 1.0
C      1  0.3745961469086  0.2446595028442  0.4129540956543 1.0
C      1  0.8203355452759  0.6973863652537  0.3569110277031 1.0
C      1  0.3506555590890  0.7642178167932  0.3282229382750 1.0
C      1  0.4825392686961  0.1264541362134  0.3691236889323 1.0
C      1  0.2402817505133  0.4359335839670  0.6230723521905 1.0
C      1  0.4449358659416  0.2236377192644  0.7095536225636 1.0
C      1  0.1571507488809  0.1737674266048  0.5928895217592 1.0
C      1  0.4503509142627  0.5125548347780  0.6917994238915 1.0
C      1  0.3994859741407  0.3687264515750  0.6914732721054 1.0
C      1  0.5863313035497  0.6873203210543  0.3856977259312 1.0
C      1  0.3697507884479  0.5830876267946  0.8294068838304 1.0
C      1  0.5887757480925  0.2381183962604  0.6077174989699 1.0
C      1  0.2512451347064  0.1669067391555  0.6344434898556 1.0
C      1  0.1625839587482  0.6046135809798  0.3888474305716 1.0
C      1  0.8040671373044  0.5535900432216  0.2925218375487 1.0
C      1  0.6549717328191  0.9079995484908  0.5992418463632 1.0
C      1  0.3827308475280  0.7135542804599  0.7297963860590 1.0
C      1  0.9052669689768  0.3836226307330  0.5182167228498 1.0
C      1  0.9753386070547  0.5412859768849  0.5102338024014 1.0
C      1  0.4975156013009  0.8334526710937  0.5306742352910 1.0
C      1  0.2227298472159  0.6308866336395  0.6290037784528 1.0
C      1  0.5981103774898  0.6294659787576  0.4629748633434 1.0
C      1  0.3916390976646  0.2167069918204  0.2503191772732 1.0
C      1  0.1716152240556  0.7932562290915  0.4574952550274 1.0
C      1  0.9167242211827  0.5881906184062  0.5731081100272 1.0
C      1  0.4164707546408  0.6462550006092  0.4039106101506 1.0
C      1  0.6431566939539  0.7186710932653  0.1860269173270 1.0
C      1  0.2652849203818  0.4639920454355  0.4704277647491 1.0
C      1  0.5313572525033  0.1104353720509  0.5136974709603 1.0
C      1  0.8243746620039  0.3836067732460  0.3767052557071 1.0
C      1  0.6055450250772  0.6303365611999  0.1699310656406 1.0
C      1  0.5844335797043  0.3502852066568  0.2432463421200 1.0
C      1  0.5311597432673  0.7700542824287  0.7072012447739 1.0
C      1  0.3803433980826  0.4033532942602  0.2371727026663 1.0
C      1  0.4220866095258  0.3506804113367  0.1665324541982 1.0
C      1  0.5213814556752  0.4516712231553  0.7285290475028 1.0
C      1  0.2095497123301  0.3176734621511  0.5098275165391 1.0
C      1  0.4216141094629  0.6068131228391  0.5538568797297 1.0
C      1  0.8388549309473  0.3286033663207  0.4573773201010 1.0
C      1  0.4923231837334  0.5056179216078  0.8871064119502 1.0
C      1  0.4709529903472  0.6235444381625  0.2719706395254 1.0
C      1  0.7074651755257  0.8370759276605  0.6110747703316 1.0
C      1  0.4545072001868  0.2646554039120  0.1948820594566 1.0
C      1  0.4084598830545  0.4496434869636  0.8997735569555 1.0
C      1  0.5915138545296  0.9197530736250  0.3274883689303 1.0
C      1  0.6039056715840  0.0638684828597  0.5441750044058 1.0
C      1  0.3295308764404  0.6373363570535  0.7599221692235 1.0
C      1  0.3323258326673  0.7967083337187  0.4890662469638 1.0
C      1  0.3894859616857  0.9228397855700  0.3974605661696 1.0
C      1  0.6871104877822  0.5871755485977  0.1712818393032 1.0
C      1  0.2982833330521  0.6846527956260  0.3023267676129 1.0
C      1  0.4538447464362  0.5865343162598  0.6375455404407 1.0
C      1  0.1622107115541  0.2406125300428  0.5144374424455 1.0
C      1  0.6167320715836  0.5419300257454  0.6061939582113 1.0
C      1  0.6334552548997  0.8529583900972  0.3698465377159 1.0
C      1  0.5450608561391  0.2578646642898  0.2189957714538 1.0
C      1  0.6370678461361  0.3138745401262  0.9186220607117 1.0
C      1  0.6719271496907  0.2746933558328  0.3787982676987 1.0
C      1  0.3027690206296  0.2329056800848  0.2359177048868 1.0
C      1  0.5995533161231  0.9664875039269  0.5575767406907 1.0
C      1  0.8436452226290  0.6391166586079  0.4255419909811 1.0
C      1  0.2930500523249  0.6175887569027  0.1617819206782 1.0
C      1  0.6778700881520  0.2502460010091  0.6231454908357 1.0
C      1  0.2449312151375  0.8379301885712  0.4421073513878 1.0
C      1  0.7993945881226  0.7875357449187  0.3788538054720 1.0
C      1  0.2956132345838  0.4483228476409  0.2151688790736 1.0
C      1  0.7012762148063  0.4174165025779  0.5377305121441 1.0
C      1  0.4920407281830  0.4079922145890  0.4677026966217 1.0
C      1  0.2172629838293  0.4902818775696  0.5512476690799 1.0
C      1  0.3506684240936  0.1000153724581  0.7536197949637 1.0
C      1  0.6087358405453  0.2813444393524  0.7544506529713 1.0
C      1  0.8810914794299  0.5537321861088  0.6528142645074 1.0
C      1  0.4831868479446  0.7687769680328  0.6151306881952 1.0
C      1  0.7284656211428  0.8435777782708  0.3841726585034 1.0
C      1  0.5212371242827  0.9229528909720  0.5145304094052 1.0
C      1  0.5221366695821  0.3725651977288  0.3182825122845 1.0
C      1  0.3479313060476  0.3407930964910  0.4358556171450 1.0
C      1  0.7172631276755  0.1897346815848  0.3592030504310 1.0
C      1  0.6595196080225  0.4559256334014  0.6102455812139 1.0
C      1  0.6697765967890  0.4612840340613  0.4558643147040 1.0
C      1  0.9329359406193  0.4601336997843  0.4721825755403 1.0
C      1  0.6626060203859  0.5753360513898  0.7660992771446 1.0
C      1  0.5786287566360  0.4533452822004  0.8704279619258 1.0
C      1  0.2754533160503  0.4883713646017  0.7043162721595 1.0
C      1  0.3123874278331  0.7644731047145  0.5814902103881 1.0
C      1  0.1911498377121  0.3967315916268  0.3464766829037 1.0
C      1  0.5818517076314  0.7856825022862  0.1721020519556 1.0
C      1  0.3733103785681  0.6729109884060  0.1418804135381 1.0
C      1  0.7815362572305  0.4574896774449  0.7354416637855 1.0
C      1  0.8186084549042  0.5468875726735  0.3908074809620 1.0
C      1  0.7952428453975  0.7006239156969  0.6680199526895 1.0
C      1  0.5632178661784  0.5550323400004  0.4043521322779 1.0
C      1  0.7098085412009  0.4953023355461  0.1787100281263 1.0
C      1  0.4635498291680  0.5896448831411  0.8507284341262 1.0
C      1  0.8603678571835  0.3944274089770  0.6014159029248 1.0
C      1  0.3711693544829  0.2785396265775  0.6904862610741 1.0
C      1  0.7193628411945  0.5337368558879  0.4158404055637 1.0
C      1  0.5165933165775  0.6593105546453  0.8173798135357 1.0
C      1  0.8197430297334  0.6112924380037  0.7069057833627 1.0
C      1  0.4542844654956  0.3741513388960  0.5572816076929 1.0
C      1  0.3574874580925  0.1888061283670  0.4867096170990 1.0
C      1  0.7922430109703  0.3863375477645  0.8095334852621 1.0
C      1  0.3457707601125  0.4986344077434  0.4465186626492 1.0
C      1  0.4047001387814  0.4243645289587  0.4080530252332 1.0
C      1  0.7865633795982  0.2706846480200  0.5142884485804 1.0
C      1  0.7834025899872  0.8190819784213  0.5498080827959 1.0
END
