TITL C-217052-2769-8 -4.813 3375.00 -832.25529840 0 0 102 (C1) n - 1
REM
REM Run started: at 2020.12.12 17:46:46 in /rds/project/t2_vol4/rds-t2-cs072/BORA/CARBON/AIRSS/Generating-Clusters/Str-Search/Only-C1/C100-200
REM VASP from code version vasp.5.4.4.18Apr17-6-g9f103f2a35 (build Oct 11 2019 16:45:47) gamma-only
REM
REM
REM
REM
REM ./C.cell (efaf0b2bf1589a83377268d7ebe2c73f)
REM AIRSS Version 0.9.1 bugfix July 2018 build 013d7b7c2542+ Fri, 06 Jul 2018 19:26:36 +0100
REM compiler GCC version 4.8.5 20150623 (Red Hat 4.8.5-39)
REM options -cpp -mtune=generic -march=x86-64 -g -O0
REM seed -2078594546 -2074384802 1567812153 -907207845 1192757979 -620190772 -1140497321 -404697327 1815869438 1041068536 -1785361334 -1108068516
REM
REM C.POTCAR (d86ddea03c3ceb6dc662c8ad6801f873)
REM 
CELL 1.54180   15.00000   15.00000   15.00000   90.00000   90.00000   90.00000
LATT -1
SFAC C  
C      1  0.2871745600346  0.4036763508546  0.6509891095699 1.0
C      1  0.6068303171164  0.7711750481321  0.4852842591631 1.0
C      1  0.3353874877034  0.6110008570921  0.4960774992998 1.0
C      1  0.6255167583964  0.2532409378779  0.4107464401715 1.0
C      1  0.6211196978964  0.5395980069452  0.3982934964716 1.0
C      1  0.5437738402144  0.7543725968761  0.6344932057280 1.0
C      1  0.6363570124641  0.3820355392342  0.6268981926063 1.0
C      1  0.6305962595665  0.2197494742629  0.6382063430623 1.0
C      1  0.6949733637286  0.6546816505629  0.3178545520680 1.0
C      1  0.3360819962103  0.7100913228805  0.6928052374972 1.0
C      1  0.4622661215811  0.2401427919797  0.6018228753109 1.0
C      1  0.7130451543200  0.5882543163751  0.2537226626124 1.0
C      1  0.6803183595909  0.7028152173147  0.4636822726400 1.0
C      1  0.3971461597030  0.4686109339928  0.2321121993092 1.0
C      1  0.5277840295627  0.6652910682009  0.4039625367821 1.0
C      1  0.6810528815239  0.2918762154832  0.4858019550125 1.0
C      1  0.4123680792273  0.4248451227762  0.7125501924858 1.0
C      1  0.3604838965958  0.7966608493002  0.3916954523261 1.0
C      1  0.2546128377467  0.5735985566972  0.4723526872749 1.0
C      1  0.4541370421447  0.4596020461315  0.6303358677586 1.0
C      1  0.7796039951732  0.5159607238684  0.2886826726690 1.0
C      1  0.2524044741892  0.7746307738868  0.5429873175281 1.0
C      1  0.7632559842054  0.5812807388820  0.5187861074807 1.0
C      1  0.3247526442680  0.4614831071698  0.7212617768510 1.0
C      1  0.6227760963517  0.6397714301792  0.3919002934540 1.0
C      1  0.5764406597792  0.4793453493446  0.7353113616401 1.0
C      1  0.3450134229987  0.5196481770239  0.2919362397990 1.0
C      1  0.5310928129154  0.6561736347699  0.6145933426411 1.0
C      1  0.3644284245171  0.7500750685572  0.3154461148608 1.0
C      1  0.6978237810238  0.4845471929390  0.3757574329676 1.0
C      1  0.3019632323953  0.8193161606554  0.4759818386739 1.0
C      1  0.5309524675853  0.3056606169576  0.7304218433939 1.0
C      1  0.3364199965701  0.7575144988124  0.5998972773131 1.0
C      1  0.5619362565856  0.6359240233232  0.7444029049377 1.0
C      1  0.3956304292033  0.2190902539728  0.5213760325179 1.0
C      1  0.4339922540936  0.2221436407872  0.4334365497639 1.0
C      1  0.6283983085220  0.5202794775579  0.6584091159641 1.0
C      1  0.2515708602639  0.4854511376456  0.4261234753995 1.0
C      1  0.5061834451436  0.7130134269718  0.7160152728672 1.0
C      1  0.6304004383272  0.2970726369203  0.5715043680448 1.0
C      1  0.2775895714266  0.6307905931461  0.6931997763377 1.0
C      1  0.7112761343272  0.6566491581794  0.5454732480060 1.0
C      1  0.2816844069647  0.4661776561645  0.3385140162040 1.0
C      1  0.3983391235694  0.4791052667096  0.5568263082192 1.0
C      1  0.8007694324059  0.5153273356504  0.3843822564183 1.0
C      1  0.4224173359046  0.5611360247315  0.4978891281770 1.0
C      1  0.6147572531785  0.6173858792008  0.6622467056628 1.0
C      1  0.6515195518371  0.5189629327891  0.2253690032802 1.0
C      1  0.4267108187278  0.3095310140471  0.2906532387969 1.0
C      1  0.4062566613376  0.6804301040213  0.2763912698307 1.0
C      1  0.3289580369418  0.5551053270857  0.7332673447241 1.0
C      1  0.4550470841211  0.6306089445994  0.5648988702790 1.0
C      1  0.4404996250911  0.3332861470308  0.7309731942731 1.0
C      1  0.3831203902939  0.8232191106664  0.5304420081818 1.0
C      1  0.4032316363689  0.5918386871403  0.3239565742655 1.0
C      1  0.2594258235365  0.4140821482528  0.4863432888928 1.0
C      1  0.7565556998208  0.4387370948874  0.4447119650863 1.0
C      1  0.6935414152486  0.4603600210708  0.6087972389209 1.0
C      1  0.7056790312380  0.1815675423211  0.6700147862915 1.0
C      1  0.7518248833923  0.6748704900456  0.3923428155566 1.0
C      1  0.3731583949628  0.6751026996844  0.5566407553307 1.0
C      1  0.5501956880638  0.4587196708660  0.6337588752858 1.0
C      1  0.7348223920325  0.3426078647028  0.4307604228077 1.0
C      1  0.5306163241301  0.2487675749382  0.4428649400839 1.0
C      1  0.5335482508432  0.2908928556151  0.5374414068670 1.0
C      1  0.7765452958835  0.1195100021665  0.6744043536139 1.0
C      1  0.4606783750458  0.6136726781124  0.2414919885371 1.0
C      1  0.3694018228228  0.3742298904433  0.2468077681302 1.0
C      1  0.7815546236066  0.1913178621501  0.7306453688229 1.0
C      1  0.6554920885327  0.3636964887968  0.2764719336898 1.0
C      1  0.6747617893643  0.3079715963853  0.3503657275468 1.0
C      1  0.2754143926709  0.3220370702356  0.4644279734581 1.0
C      1  0.5028709020938  0.3631482721946  0.3074565275410 1.0
C      1  0.1902430406190  0.6132500193331  0.5360750410881 1.0
C      1  0.3836994001522  0.2576326999522  0.3606731125856 1.0
C      1  0.3163915389586  0.3112517472417  0.6259817163167 1.0
C      1  0.5157012775180  0.3465770934894  0.4608878159873 1.0
C      1  0.4767717974393  0.5227948761505  0.2064165684745 1.0
C      1  0.5903361200363  0.3817610922874  0.7176390269703 1.0
C      1  0.4155534246429  0.6866391784417  0.7376666647283 1.0
C      1  0.5125951947610  0.5595655983174  0.7692959250973 1.0
C      1  0.3976012367821  0.2841823694864  0.6630648934506 1.0
C      1  0.3009874565976  0.3049650705899  0.3748879138763 1.0
C      1  0.7431196041856  0.4871588052954  0.5356334914608 1.0
C      1  0.5640122129399  0.4836471055295  0.2081519612371 1.0
C      1  0.1926916005750  0.7029159279012  0.5605850448667 1.0
C      1  0.3179288592739  0.2736970313817  0.5362054691412 1.0
C      1  0.5201229511433  0.7504459365874  0.4396653263038 1.0
C      1  0.4680840428655  0.5790883590476  0.4042404694952 1.0
C      1  0.5921459724715  0.7960263582626  0.5722215008790 1.0
C      1  0.6883237260145  0.6754478799549  0.6315273169686 1.0
C      1  0.5414298279683  0.2256236222090  0.6754432814999 1.0
C      1  0.2950877157347  0.3756231497571  0.3090844417092 1.0
C      1  0.2095882713294  0.6354486201024  0.6276204999053 1.0
C      1  0.7026570804775  0.4510031576074  0.2756221599512 1.0
C      1  0.4367730576934  0.7963304905746  0.4547613239651 1.0
C      1  0.3080808052292  0.4439626754000  0.5657199684911 1.0
C      1  0.5700094474489  0.3914742053339  0.2430540156915 1.0
C      1  0.5370157003309  0.5051054311882  0.3968547940948 1.0
C      1  0.4169014626984  0.5909855470563  0.7611441977554 1.0
C      1  0.7970892127147  0.5993887253790  0.4319657662632 1.0
C      1  0.5147278661747  0.4074603489160  0.3937610367091 1.0
END
