TITL C-21774-2346-8 -5.407 3375.00 -932.76235437 0 0 114 (C1) n - 1
REM
REM Run started: at 2020.12.09 14:42:12 in /rds/project/t2_vol4/rds-t2-cs072/BORA/CARBON/AIRSS/Generating-Clusters/Str-Search/Only-C1/C100-200
REM VASP from code version vasp.5.4.4.18Apr17-6-g9f103f2a35 (build Oct 11 2019 16:45:47) gamma-only
REM
REM
REM
REM
REM ./C.cell (efaf0b2bf1589a83377268d7ebe2c73f)
REM AIRSS Version 0.9.1 bugfix July 2018 build 013d7b7c2542+ Fri, 06 Jul 2018 19:26:36 +0100
REM compiler GCC version 4.8.5 20150623 (Red Hat 4.8.5-39)
REM options -cpp -mtune=generic -march=x86-64 -g -O0
REM seed -1883574238 -1554970192 1811409776 1429160636 -265284450 -1148893117 -1871296552 1448998555 -317198715 269348714 -1657731015 -1599066538
REM
REM C.POTCAR (d86ddea03c3ceb6dc662c8ad6801f873)
REM 
CELL 1.54180   15.00000   15.00000   15.00000   90.00000   90.00000   90.00000
LATT -1
SFAC C  
C      1  0.4903844515858  0.2996799095758  0.2959494016692 1.0
C      1  0.3498822214016  0.5031108163994  0.4217114763841 1.0
C      1  0.6475095091170  0.3590996005655  0.6011623088689 1.0
C      1  0.2455989554188  0.6740688299835  0.3941622205344 1.0
C      1  0.7349940015101  0.5785838249157  0.3808670935505 1.0
C      1  0.2739085267867  0.2850895899787  0.4433125821506 1.0
C      1  0.3385186807377  0.3461708433941  0.6972806882724 1.0
C      1  0.3708061449848  0.8246923220922  0.3609085803843 1.0
C      1  0.6533348550469  0.7377477147545  0.6305610429560 1.0
C      1  0.2986703196986  0.5314931617457  0.8057033262707 1.0
C      1  0.6336712408602  0.4901119337570  0.5020247409122 1.0
C      1  0.2967609215813  0.6919419416303  0.5546507060309 1.0
C      1  0.7402596678677  0.3918790678858  0.7281489795563 1.0
C      1  0.5680109439721  0.2687336479112  0.7472540725722 1.0
C      1  0.5642630336395  0.5344948725480  0.5627687560431 1.0
C      1  0.4986700350546  0.7746594343994  0.6817492838364 1.0
C      1  0.6248560830262  0.6437090481434  0.2338181996711 1.0
C      1  0.3111751893060  0.4355880485122  0.8368143987010 1.0
C      1  0.5635869343553  0.4030841726941  0.6598490079875 1.0
C      1  0.4588614251812  0.6718900445841  0.5292753405650 1.0
C      1  0.4041168851509  0.4311434994393  0.8594909201268 1.0
C      1  0.6697075246529  0.7234996098285  0.5384438520313 1.0
C      1  0.3460050961402  0.5882114451007  0.2746812216383 1.0
C      1  0.7006541588338  0.3217305183974  0.6790127112784 1.0
C      1  0.7208679467113  0.3097428229651  0.4304636907189 1.0
C      1  0.4844365450458  0.6322332334856  0.7304229157560 1.0
C      1  0.6060430508269  0.4841574467548  0.1965455240612 1.0
C      1  0.2656332035081  0.5000611634199  0.7203349024870 1.0
C      1  0.4821749950288  0.3843257892238  0.6056342915040 1.0
C      1  0.3467337099207  0.2421352908286  0.3936197115542 1.0
C      1  0.5583178417982  0.5040664778363  0.6525446609890 1.0
C      1  0.6951536433859  0.6816488300773  0.6940229318754 1.0
C      1  0.2854758765410  0.4062997188271  0.7514191786440 1.0
C      1  0.7697901086565  0.4747486239251  0.6901234273928 1.0
C      1  0.5292784778817  0.5507286777877  0.7271186034263 1.0
C      1  0.1951895000437  0.5070917937166  0.3901179718590 1.0
C      1  0.5744632692642  0.3163768336678  0.2470298799898 1.0
C      1  0.6962559753424  0.4493637832734  0.7991613288037 1.0
C      1  0.4878535926997  0.7306346172077  0.1844993109279 1.0
C      1  0.4715428987260  0.3895251406852  0.3488255002278 1.0
C      1  0.5254460795206  0.6077811402325  0.5163536303706 1.0
C      1  0.6502578286769  0.2470896586233  0.7093014865524 1.0
C      1  0.6605366348867  0.5511247284072  0.2395714669038 1.0
C      1  0.4140492175800  0.6601633125459  0.7790878546582 1.0
C      1  0.6301655457908  0.7158458851180  0.3008555270593 1.0
C      1  0.2947826279690  0.6244259269078  0.6125699038703 1.0
C      1  0.4086436480445  0.8375492577088  0.2881211399557 1.0
C      1  0.2661377471385  0.6358297422464  0.3081189723980 1.0
C      1  0.7432998696301  0.3956668052849  0.4593026556953 1.0
C      1  0.6408364707457  0.2810412091699  0.3036518505017 1.0
C      1  0.4747986592386  0.4111313936660  0.8039435165559 1.0
C      1  0.1961150292841  0.5986818914271  0.3576210278677 1.0
C      1  0.3927792205113  0.3940081480390  0.6275127394052 1.0
C      1  0.2617793783154  0.5353759603904  0.6330143069774 1.0
C      1  0.4557905292937  0.6448277795459  0.1646389814729 1.0
C      1  0.2039162138605  0.4230712089456  0.3583356814944 1.0
C      1  0.5726178976752  0.5970199525412  0.4290613252840 1.0
C      1  0.7036418796377  0.4298673715691  0.3630710166660 1.0
C      1  0.5414417195831  0.7744253664795  0.4218224513047 1.0
C      1  0.6725653935355  0.5729989264201  0.4573367875492 1.0
C      1  0.5786230073616  0.3993681376780  0.2065578022906 1.0
C      1  0.3873844725602  0.5318716434184  0.3368386952323 1.0
C      1  0.5569959525896  0.2187699100274  0.6692325217492 1.0
C      1  0.4327299477557  0.2178367644583  0.4319403309948 1.0
C      1  0.3883302784033  0.5813591978491  0.1839670771628 1.0
C      1  0.7021589618307  0.4317053152898  0.5438595023684 1.0
C      1  0.4039054370846  0.3428963402433  0.2734085531875 1.0
C      1  0.2632003299403  0.5167742082383  0.4625143134771 1.0
C      1  0.5125266432400  0.3593467814669  0.5162299018690 1.0
C      1  0.5255462589283  0.2279940201506  0.5807722858655 1.0
C      1  0.3849683802123  0.6768022155291  0.6009113029928 1.0
C      1  0.5527197514113  0.5249103074070  0.3729543093525 1.0
C      1  0.6140147399898  0.4572673963039  0.4058353147616 1.0
C      1  0.3401938675608  0.2614848976699  0.6662100763177 1.0
C      1  0.2651587584513  0.4826559105374  0.5539059575229 1.0
C      1  0.7201387545579  0.5200497646673  0.3102980954186 1.0
C      1  0.5923957663109  0.2949357885408  0.5346765372084 1.0
C      1  0.7117198275232  0.3317518441878  0.3362713851644 1.0
C      1  0.7698036236687  0.5866142636618  0.5714924703371 1.0
C      1  0.5521809160296  0.3664055283427  0.7620531047840 1.0
C      1  0.5985751079666  0.2330122209479  0.3798367862440 1.0
C      1  0.7544964555937  0.6674264212131  0.4117905724302 1.0
C      1  0.2907170145996  0.7191020872926  0.4631752617173 1.0
C      1  0.5260605515614  0.5003095446776  0.8145250070485 1.0
C      1  0.4379310240586  0.5249124242276  0.8642060760624 1.0
C      1  0.7156510319828  0.6186569081537  0.7454294070223 1.0
C      1  0.6296368685763  0.7553377326700  0.4555447183590 1.0
C      1  0.5048870059328  0.4699378526782  0.2198110513038 1.0
C      1  0.4099859604066  0.4061098447465  0.1967446908101 1.0
C      1  0.3606774823783  0.2440796788399  0.5774333198646 1.0
C      1  0.3017962564294  0.3086451745326  0.5268578354295 1.0
C      1  0.3737885196185  0.5865429775166  0.8273855521932 1.0
C      1  0.7605752219901  0.5015219181983  0.5986029491518 1.0
C      1  0.4164438982974  0.4907697127075  0.1728340431775 1.0
C      1  0.3688279164112  0.7721542668879  0.4362353921451 1.0
C      1  0.7409030348236  0.5316942758326  0.7634870914414 1.0
C      1  0.6453123295268  0.2581725903194  0.4588790719783 1.0
C      1  0.4796603279054  0.4871302847049  0.3191253183999 1.0
C      1  0.4834426567257  0.7893900934545  0.2587986691030 1.0
C      1  0.3276987333912  0.3028608854777  0.3205044479762 1.0
C      1  0.5502734032949  0.7689720991781  0.3223705216316 1.0
C      1  0.2499992641818  0.3449906650402  0.3660128286472 1.0
C      1  0.4400111830956  0.2115472925004  0.5313259380911 1.0
C      1  0.4571409909960  0.7463812229102  0.4662854352378 1.0
C      1  0.3309634441207  0.4054648831329  0.5495680770241 1.0
C      1  0.6082356235245  0.4357079708560  0.8190877275392 1.0
C      1  0.3858199179780  0.4348251603561  0.4708626614153 1.0
C      1  0.6840659927763  0.7239567110162  0.3801558169125 1.0
C      1  0.4292726649176  0.7056309715222  0.6880783600547 1.0
C      1  0.5764519808455  0.7870482685077  0.6575121140457 1.0
C      1  0.4603103435265  0.3853679801484  0.4452863104892 1.0
C      1  0.5041607980067  0.2310009349719  0.3689715811619 1.0
C      1  0.5491621651717  0.6595708608062  0.1783652490017 1.0
C      1  0.7293499217695  0.6494880411189  0.5102039140815 1.0
END
