TITL C-21341-1065-1 -8.335 3375.00 -3383.37039898 0 0 409 (C1) n - 1
REM
REM Run started: at 2020.10.17 05:01:34 in /rds/project/t2_vol4/rds-t2-cs072/BORA/CARBON/AIRSS/Generating-Clusters/Str-Search
REM VASP from code version vasp.5.4.4.18Apr17-6-g9f103f2a35 (build Oct 11 2019 16:45:47) gamma-only
REM
REM
REM
REM
REM ./C.cell (8c8f32957ea4b25f9ffc41644e092d35)
REM AIRSS Version 0.9.1 bugfix July 2018 build 013d7b7c2542+ Fri, 06 Jul 2018 19:26:36 +0100
REM compiler GCC version 4.8.5 20150623 (Red Hat 4.8.5-39)
REM options -cpp -mtune=generic -march=x86-64 -g -O0
REM seed 810643770 716996941 17428381 -1984691058 -533476524 -1693095359 1038819085 2008662605 807315147 1949659050 -1332669160 -1717876899
REM
REM C.POTCAR (d86ddea03c3ceb6dc662c8ad6801f873)
REM 
CELL 1.54180   15.00000   15.00000   15.00000   90.00000   90.00000   90.00000
LATT -1
SFAC C  
C      1  0.2188206187421  0.5851282251776  0.1884959338700 1.0
C      1  0.7160919617439  0.1372204487623  0.1782443604989 1.0
C      1  0.4953343593515  0.7463013003722  0.7340670907028 1.0
C      1  0.5524068651884  0.3652458357417  0.6372854472447 1.0
C      1  0.3295660559402  0.9854022537023  0.2322797271307 1.0
C      1  0.3889015488873  0.7653462069101  0.2022207576054 1.0
C      1  0.6540193268892  0.6875238695583  0.0285860903156 1.0
C      1  0.4875939693291  0.3360668137675  0.2865718055497 1.0
C      1  0.2012868947024  0.9105491494716  0.5040992809670 1.0
C      1  0.0677857042501  0.5867176848405  0.3953135908926 1.0
C      1  0.0435030665307  0.4228569575691  0.2057998011166 1.0
C      1  0.5741458329880  0.1115536337692  0.3799069984205 1.0
C      1  0.7746197388461  0.7364691593126  0.1662884601118 1.0
C      1  0.8984151077385  0.4115595183837  0.6193935098407 1.0
C      1  0.6710510610571  0.2610475183755  0.0720947395577 1.0
C      1  0.0455939139715  0.2649014507985  0.6921396711387 1.0
C      1  0.8638242784781  0.5152663843630  0.6322773331226 1.0
C      1  0.3104999873889  0.3367277262055  0.4984081795703 1.0
C      1  0.3839862377453  0.0692966005077  0.4544320969413 1.0
C      1  0.0061819928850  0.3291249117373  0.5091221417160 1.0
C      1  0.3020195521085  0.5298905722505  0.9684048286160 1.0
C      1  0.6539054950030  0.1104645310412  0.2386301520538 1.0
C      1  0.8586372565931  0.2490872679545  0.5351503349043 1.0
C      1  0.6702934000909  0.4388427435060  0.4257677007300 1.0
C      1  0.8513111744436  0.4960235655911  0.4769725801706 1.0
C      1  0.0716630435177  0.4625402856587  0.7555889784416 1.0
C      1  0.3473433431520  0.2591250442200  0.8058916704317 1.0
C      1  0.9675227652271  0.4538412701318  0.7689878038319 1.0
C      1  0.9648281036100  0.5591708172781  0.7387854092248 1.0
C      1  0.1944264483561  0.7609036786997  0.8230304227857 1.0
C      1  0.6827409508198  0.1799957804146  0.0078540749980 1.0
C      1  0.2997303729814  0.4697078508106  0.3036490394915 1.0
C      1  0.5170408691817  0.8860646212714  0.4115387752674 1.0
C      1  0.1681069240332  0.5916354452993  0.8764741543775 1.0
C      1  0.3716208028410  0.9576366302827  0.3273426727757 1.0
C      1  0.1031497348840  0.3196982230326  0.5340771119241 1.0
C      1  0.8072207217757  0.5400273290868  0.5547091499545 1.0
C      1  0.4453220845978  0.9928596469529  0.5955534485708 1.0
C      1  0.7597315303205  0.0886721193374  0.3550703507178 1.0
C      1  0.6340532655920  0.4958211040635  0.7298663425489 1.0
C      1  0.3802838641913  0.7547726321138  0.2935611104391 1.0
C      1  0.4626642730251  0.4004063077147  0.0200677271852 1.0
C      1  0.1272965749753  0.8986872944838  0.6473557944744 1.0
C      1  0.2458918301781  0.3638841712586  0.1080777066646 1.0
C      1  0.3869050854227  0.3981568825646  0.5049479095696 1.0
C      1  0.6319270140798  0.4147604186291  0.6640666830248 1.0
C      1  0.4338756454950  0.1254104906966  0.7142501001910 1.0
C      1  0.3057407732108  0.5376061960487  0.7939343691066 1.0
C      1  0.7932813306557  0.1816000546099  0.2134606805784 1.0
C      1  0.3980607161378  0.6326620786842  0.4418202903107 1.0
C      1  0.1429105176234  0.8126410290892  0.2812210066847 1.0
C      1  0.4229419556305  0.3928225002175  0.2500268332711 1.0
C      1  0.2639092118271  0.3085554192813  0.5764483077540 1.0
C      1  0.6810154697290  0.7294650757754  0.9558305544937 1.0
C      1  0.6232580311901  0.2890961598795  0.7824854891765 1.0
C      1  0.4315536692197  0.6888990972016  0.6784705824803 1.0
C      1  0.9249253877756  0.4823528208550  0.8576935660183 1.0
C      1  0.6707028087680  0.1314352615044  0.3388828220086 1.0
C      1  0.7728338175774  0.1068999617918  0.5404471612180 1.0
C      1  0.1157792247628  0.2967719311315  0.3764815901001 1.0
C      1  0.1121365837006  0.2727101820715  0.7702590651543 1.0
C      1  0.6693926426763  0.8000585980696  0.3379851229179 1.0
C      1  0.2137865876216  0.6056268604639  0.3532951207278 1.0
C      1  0.6276507032668  0.5160612896037  0.8941858445807 1.0
C      1  0.2264021367802  0.4662148158819  0.7916611647988 1.0
C      1  0.7135147265523  0.3095680307092  0.8309245294783 1.0
C      1  0.0343273349610  0.5905268050473  0.2257616436230 1.0
C      1  0.6503684787900  0.4481482610416  0.8177020293480 1.0
C      1  0.3527261721467  0.3265159322068  0.3477136707968 1.0
C      1  0.4827865320684  0.7696778945693  0.1739304065783 1.0
C      1  0.6307758540045  0.1049991522992  0.6272480792975 1.0
C      1  0.1982521363997  0.7773316732395  0.0531740394502 1.0
C      1  0.3086364390554  0.5684702229437  0.1877775404522 1.0
C      1  0.3714152941247  0.2429833844113  0.2121543012408 1.0
C      1  0.4488504159047  0.2239093593636  0.4904389558088 1.0
C      1  0.7289189442049  0.5095013975374  0.6032107556979 1.0
C      1  0.9660377456350  0.3810366693955  0.3468585597325 1.0
C      1  0.4021901635712  0.4345269899696  0.5980148882298 1.0
C      1  0.2444495810932  0.3764089307883  0.8442392441320 1.0
C      1  0.8985445575147  0.7376779219527  0.6670830818183 1.0
C      1  0.5442881051354  0.8873732568270  0.2743137131373 1.0
C      1  0.8306282259450  0.5466542827929  0.3906435164003 1.0
C      1  0.6908095825251  0.8146223860186  0.6676611297333 1.0
C      1  0.4371215348858  0.2800405147072  0.3486786581445 1.0
C      1  0.6929627999128  0.4259419350465  0.5989730208851 1.0
C      1  0.4724754365731  0.0331211224131  0.6844236791574 1.0
C      1  0.5871168940560  0.3937930985857  0.4291524618906 1.0
C      1  0.6060616510161  0.8823600703007  0.3514244028707 1.0
C      1  0.4782520593418  0.3601735954765  0.8073290174130 1.0
C      1  0.4641621531021  0.6441752775351  0.5232948873081 1.0
C      1  0.3094097373197  0.8826796301486  0.3754784178852 1.0
C      1  0.6193663788100  0.3005311923896  0.8771822418140 1.0
C      1  0.0745768774323  0.8313548745906  0.3503888482783 1.0
C      1  0.1941879175168  0.3013092515419  0.7972807463696 1.0
C      1  0.7499217572935  0.6551468819878  0.6804101778485 1.0
C      1  0.3275312396679  0.9578760720832  0.7173252171517 1.0
C      1  0.3768663033749  0.5239150599881  0.6403553732519 1.0
C      1  0.7906518317305  0.9204799876861  0.4537686278240 1.0
C      1  0.5805003535486  0.3084359229369  0.0979770544528 1.0
C      1  0.8733782075479  0.8005733519702  0.2834707729965 1.0
C      1  0.9377432022912  0.6818264932745  0.5937771645512 1.0
C      1  0.6218894283025  0.8916443800571  0.7993998287787 1.0
C      1  0.9073660084715  0.6827308617794  0.4192565969247 1.0
C      1  0.7748836719385  0.4347858602858  0.2520626380298 1.0
C      1  0.8364855058182  0.3521745947537  0.5523393976347 1.0
C      1  0.5734996343696  0.3042146997861  0.4584158194217 1.0
C      1  0.4214969934196  0.2618094622712  0.1248436230546 1.0
C      1  0.2863658119252  0.8083390731799  0.6637552301492 1.0
C      1  0.8736172054510  0.3871175189534  0.3733326576035 1.0
C      1  0.3060244919573  0.2506157004559  0.0152934419224 1.0
C      1  0.0811166412067  0.2173514526261  0.3213819374830 1.0
C      1  0.6733504379033  0.8328048742361  0.5020927473296 1.0
C      1  0.5973635918281  0.5787580451209  0.4526654888660 1.0
C      1  0.5669207485913  0.0851982615163  0.4776909756210 1.0
C      1  0.5806991730884  0.3716460570978  0.8153959598389 1.0
C      1  0.4272611707168  0.7243212851267  0.0029359902331 1.0
C      1  0.4888300008218  0.7949761607052  0.4317177797430 1.0
C      1  0.6177797266169  0.4344620821259  0.0534966059619 1.0
C      1  0.5338443259530  0.5350201054079  0.8612431930871 1.0
C      1  0.7971504636780  0.5026892410334  0.7054235204293 1.0
C      1  0.8262026939117  0.2141884939690  0.4407969697590 1.0
C      1  0.2305285435942  0.3121721108850  0.0213600395366 1.0
C      1  0.6592002797459  0.1746969043811  0.6908341640337 1.0
C      1  0.7018274435814  0.9594918149436  0.6054791714133 1.0
C      1  0.7647674696632  0.7547692576576  0.3597029642485 1.0
C      1  0.6194579712861  0.2457317172206  0.5174086735619 1.0
C      1  0.9391936974189  0.5855279515259  0.2642644787213 1.0
C      1  0.8880862783028  0.6192983035748  0.1116634942052 1.0
C      1  0.6075102700575  0.6405157215407  0.6142325707396 1.0
C      1  0.2150636821248  0.5414289627375  0.6548774353999 1.0
C      1  0.3735501773490  0.4206321296956  0.3405292576791 1.0
C      1  0.3555674154192  0.5620943995802  0.2707134399911 1.0
C      1  0.2984794891812  0.1744657261048  0.1792338385764 1.0
C      1  0.8082166235570  0.1830980049862  0.5960519076862 1.0
C      1  0.5106180350998  0.4547568885010  0.3997994759088 1.0
C      1  0.8024636188560  0.2618674677543  0.8381821078296 1.0
C      1  0.5071744459308  0.8346997458075  0.5900477214162 1.0
C      1  0.1682900411556  0.4465895504463  0.4164622623916 1.0
C      1  0.2264238321281  0.3859187793553  0.9473228271854 1.0
C      1  0.6038821322972  0.9308762694921  0.2042388413603 1.0
C      1  0.8930202644569  0.3816674231761  0.7258523271432 1.0
C      1  0.1347985503005  0.2354953085409  0.6815378612714 1.0
C      1  0.8562619469177  0.7324047441929  0.2152851880608 1.0
C      1  0.7032287043324  0.1127344196593  0.7697309837479 1.0
C      1  0.5025346026325  0.0619455566364  0.2518665800809 1.0
C      1  0.3573570995903  0.5185670282579  0.1221199943860 1.0
C      1  0.9542439460508  0.2559420292731  0.5596209968808 1.0
C      1  0.7122936199208  0.5475108236050  0.0111511143178 1.0
C      1  0.8687517185355  0.2808343910087  0.7588674026140 1.0
C      1  0.5771063101875  0.2260274616981  0.7222532220724 1.0
C      1  0.2123000319667  0.4434521734060  0.6899744338150 1.0
C      1  0.8818381232863  0.8264624657027  0.6805225449482 1.0
C      1  0.3330171963949  0.1498169327236  0.5647222279396 1.0
C      1  0.3435711453103  0.8163012308187  0.4890071346757 1.0
C      1  0.6474073028858  0.8252699733736  0.1004528137836 1.0
C      1  0.2276860142111  0.6683396830020  0.8462928586088 1.0
C      1  0.5433192485676  0.6938035191413  0.1373482514246 1.0
C      1  0.6802393982825  0.7732783141707  0.5790281258840 1.0
C      1  0.5506165132073  0.2881343254449  0.9433384350863 1.0
C      1  0.2164003371868  0.7476207421930  0.3071836038491 1.0
C      1  0.7812191928652  0.6334191957300  0.5227490538817 1.0
C      1  0.1495408885812  0.1674565378429  0.2676095847067 1.0
C      1  0.8899790839610  0.7939452392411  0.4718954571300 1.0
C      1  0.5776732765221  0.0344016301503  0.6855505486264 1.0
C      1  0.6607507167689  0.7278664782148  0.8125226884254 1.0
C      1  0.5727983747330  0.4068435712641  0.1496729810487 1.0
C      1  0.4680267592504  0.2494463506166  0.9223860803663 1.0
C      1  0.1413194906698  0.7708524507567  0.1195163874338 1.0
C      1  0.3695667121609  0.1680017002467  0.4723925065344 1.0
C      1  0.8636724886899  0.6563130021783  0.8087989521742 1.0
C      1  0.1066468818259  0.7625096459377  0.1995842466594 1.0
C      1  0.1066532206150  0.3599057809985  0.1939878659867 1.0
C      1  0.8042798940043  0.4248579361977  0.7526147567614 1.0
C      1  0.8518439862934  0.8733595985159  0.5131601014133 1.0
C      1  0.1450531958391  0.5414502075987  0.3858166237881 1.0
C      1  0.4373437844027  0.1985927580421  0.2898801738811 1.0
C      1  0.0761737674896  0.4598825784215  0.5857234760963 1.0
C      1  0.3357213380415  0.3298921908011  0.2496117056425 1.0
C      1  0.1098498750040  0.8556338122643  0.7283562095498 1.0
C      1  0.8359069811775  0.4698234790399  0.3231469313688 1.0
C      1  0.2208550008956  0.4657505073724  0.4959223362650 1.0
C      1  0.4639853697487  0.7486644797124  0.3432441678943 1.0
C      1  0.2654110296291  0.7691091682491  0.0031016600456 1.0
C      1  0.8334730078282  0.4005990210315  0.4621382580926 1.0
C      1  0.6850975952598  0.2311789122723  0.3484302794669 1.0
C      1  0.9813792245221  0.7441319397269  0.4610956404088 1.0
C      1  0.6921125472462  0.4856382110404  0.2442611708309 1.0
C      1  0.4701050316728  0.0336997220295  0.4988202787170 1.0
C      1  0.4531189926926  0.5489234855895  0.2547677118933 1.0
C      1  0.6145965681734  0.5164410478167  0.9952742292246 1.0
C      1  0.1921148666589  0.0496473484509  0.5882496481588 1.0
C      1  0.2039491628823  0.2036283061012  0.2028798112531 1.0
C      1  0.3499679671305  0.5460023193552  0.4361791920523 1.0
C      1  0.8501558400856  0.6629895431310  0.7078445410731 1.0
C      1  0.5380950921507  0.8762602145001  0.8469544477918 1.0
C      1  0.6109374420384  0.8704474977198  0.7020269280475 1.0
C      1  0.3407672319873  0.2044068175777  0.0908835202430 1.0
C      1  0.1471874921914  0.8862408291618  0.3472837828844 1.0
C      1  0.4532712684374  0.2542547765855  0.8197614446816 1.0
C      1  0.4987550437467  0.4286618416799  0.6045272154330 1.0
C      1  0.3725280866627  0.5593193883212  0.0332927656638 1.0
C      1  0.3138916069222  0.9187123895074  0.1757501036620 1.0
C      1  0.8441379783341  0.8747735328371  0.6049408433654 1.0
C      1  0.1599163949677  0.4610954259286  0.9345957571800 1.0
C      1  0.0912602676731  0.6689754644951  0.2515832189804 1.0
C      1  0.6320452982364  0.9762473313539  0.3652180706773 1.0
C      1  0.5649409478249  0.0968166249751  0.1979468928752 1.0
C      1  0.4976667752115  0.1937321253241  0.5753048835319 1.0
C      1  0.2094864035314  0.0875936393883  0.6695213325306 1.0
C      1  0.6159786765585  0.0495784882735  0.7820387279945 1.0
C      1  0.2733708250949  0.3516435302008  0.6635342045105 1.0
C      1  0.7174533299218  0.1560521448479  0.9321963743151 1.0
C      1  0.8013713516518  0.3399140342225  0.2437106836560 1.0
C      1  0.9669021451668  0.2353831853169  0.6480391025096 1.0
C      1  0.8824062777601  0.2161646870226  0.3523582284647 1.0
C      1  0.3413427914311  0.9457424921021  0.6131511767365 1.0
C      1  0.1383299064612  0.8627624725121  0.5622675987579 1.0
C      1  0.7246126090197  0.2278749693065  0.6386191548322 1.0
C      1  0.4554660922721  0.5043668795712  0.9961370724381 1.0
C      1  0.3110428415427  0.4292635647142  0.9875573626342 1.0
C      1  0.1817956312233  0.9275220084047  0.7281589398729 1.0
C      1  0.7392787298715  0.3715884705211  0.4465835672244 1.0
C      1  0.4266283930391  0.9686247238707  0.7596660791865 1.0
C      1  0.3241731429392  0.0902792821361  0.2362635295049 1.0
C      1  0.2017599795254  0.5434762788384  0.9512470503522 1.0
C      1  0.3175354562747  0.1671423887830  0.8369054500249 1.0
C      1  0.2606710323794  0.9799240525185  0.5580839544000 1.0
C      1  0.3172751466038  0.7114041835111  0.4464992586790 1.0
C      1  0.3274612132974  0.4179865665218  0.0907486360218 1.0
C      1  0.5006010931350  0.6070309163214  0.1016287324989 1.0
C      1  0.2838063199803  0.0872302119918  0.8099558300087 1.0
C      1  0.2802495187784  0.0999722122424  0.3304461894626 1.0
C      1  0.4412473887536  0.5055360870149  0.8961790144938 1.0
C      1  0.7006452192645  0.6202593678740  0.0729230139839 1.0
C      1  0.5316702128760  0.9505491062130  0.4831260787995 1.0
C      1  0.1903465928493  0.4061937201536  0.1764460098400 1.0
C      1  0.5547839460889  0.3577520333410  0.0155068575799 1.0
C      1  0.5654697368701  0.1578247692689  0.1258206127236 1.0
C      1  0.7341666818673  0.8187639030177  0.1453243568527 1.0
C      1  0.4184687474020  0.7811672947477  0.7855834182475 1.0
C      1  0.8948451088048  0.6472512098250  0.1997937680300 1.0
C      1  0.8806543593929  0.6093929779771  0.0277894105314 1.0
C      1  0.8182741374485  0.8582816317560  0.7461492544838 1.0
C      1  0.4638281876574  0.8757261052328  0.7761460072357 1.0
C      1  0.9705378789624  0.4199363253467  0.2636974538032 1.0
C      1  0.7083820773960  0.6730974477122  0.5834181175513 1.0
C      1  0.1950894324760  0.0929248896615  0.4947126922773 1.0
C      1  0.5892921046906  0.7918663042133  0.5470660747678 1.0
C      1  0.2437907683761  0.0260361062743  0.7398166713830 1.0
C      1  0.6217810398461  0.9916204881737  0.4640516275919 1.0
C      1  0.0627588281653  0.6760379007904  0.3470707106456 1.0
C      1  0.7343567126126  0.3999142941217  0.8056763331636 1.0
C      1  0.6756213065320  0.5375979631590  0.4316365730143 1.0
C      1  0.9163820596085  0.5969037688787  0.3706606481303 1.0
C      1  0.8284156496739  0.8823766123721  0.2771428692648 1.0
C      1  0.5077188278211  0.7923029012455  0.0144198554647 1.0
C      1  0.6023706631800  0.4369476805964  0.2478363532840 1.0
C      1  0.2652685038005  0.2679071796616  0.7321800498967 1.0
C      1  0.0199885505316  0.7148976803459  0.5459771350041 1.0
C      1  0.3375927652355  0.7298708609409  0.9577423630671 1.0
C      1  0.2823334649531  0.5291680994526  0.5102478076544 1.0
C      1  0.4090702963235  0.1750278550454  0.6301613992264 1.0
C      1  0.4767532208259  0.9387205374540  0.3352199160297 1.0
C      1  0.7622465278455  0.8922498056839  0.6602422875512 1.0
C      1  0.2223190616086  0.7019126689967  0.3974743945835 1.0
C      1  0.2092571914864  0.1913268861808  0.4887581748620 1.0
C      1  0.6882054029222  0.2744758930712  0.5691934441094 1.0
C      1  0.5841249047295  0.1519296753314  0.5484367751932 1.0
C      1  0.1797618960964  0.7134763473912  0.4935135178990 1.0
C      1  0.1643942404993  0.5110300620736  0.1671958251257 1.0
C      1  0.2965596021429  0.0597312946845  0.5109844056183 1.0
C      1  0.1144112802778  0.7488984382326  0.5647396735609 1.0
C      1  0.9856964246985  0.5499184550039  0.4251878974618 1.0
C      1  0.6472061610099  0.8141189756675  0.9324238952918 1.0
C      1  0.7514462160571  0.6002764940064  0.4262484927256 1.0
C      1  0.8592120013473  0.3247806627760  0.9008236488501 1.0
C      1  0.2609094030664  0.6908494619781  0.5206645842486 1.0
C      1  0.3716487867500  0.3642834164300  0.6625661476008 1.0
C      1  0.7230461604441  0.0568063926152  0.6120945639676 1.0
C      1  0.5694909194347  0.7462996932097  0.4631550585841 1.0
C      1  0.5261497467146  0.7861221966720  0.2658260066315 1.0
C      1  0.7213827910211  0.6780892787039  0.8847838906790 1.0
C      1  0.4169059666693  0.4056789290379  0.8738963302450 1.0
C      1  0.6158044256543  0.7406140237590  0.2741821267190 1.0
C      1  0.5241929013337  0.9291747203615  0.5783745054017 1.0
C      1  0.1387829847597  0.4940927090537  0.8356746929014 1.0
C      1  0.1832094284619  0.0994898889867  0.3332269387537 1.0
C      1  0.4783495540329  0.6519543136273  0.3754251947035 1.0
C      1  0.0391566732095  0.7566819747304  0.3864487587417 1.0
C      1  0.5050195823228  0.1764503386288  0.7732061765413 1.0
C      1  0.5015564533429  0.2536448790461  0.4161186077576 1.0
C      1  0.6051108262578  0.9493996830431  0.6404740982063 1.0
C      1  0.9128651191969  0.5738729822444  0.8262468417117 1.0
C      1  0.7198670026573  0.4524620344133  0.0455122301832 1.0
C      1  0.3650276296282  0.0514754065757  0.3615267168989 1.0
C      1  0.4140986877149  0.1009928408965  0.2834284903381 1.0
C      1  0.4714028718690  0.4252879764309  0.1644058231397 1.0
C      1  0.2168111275811  0.1889556685181  0.6691278467255 1.0
C      1  0.6109073749993  0.2608910580884  0.3077986052308 1.0
C      1  0.5658686208075  0.6918086684651  0.7785083084425 1.0
C      1  0.1085649772239  0.3193177182436  0.6368615580953 1.0
C      1  0.5326459563545  0.5030942697202  0.5598486434902 1.0
C      1  0.5195302600956  0.2738268016450  0.6457464826947 1.0
C      1  0.8410649755017  0.1380845410122  0.6807441481169 1.0
C      1  0.7722470428201  0.0811893255898  0.7015861052936 1.0
C      1  0.2832249223157  0.6577286486539  0.7602935600651 1.0
C      1  0.5196478115594  0.6115316115869  0.8064626412543 1.0
C      1  0.8243684051816  0.1510136720135  0.2960347499010 1.0
C      1  0.4344983056130  0.7946379087795  0.5233715210155 1.0
C      1  0.0726358184347  0.5543385703183  0.6109710112227 1.0
C      1  0.7170984974704  0.5547293570849  0.6923556642093 1.0
C      1  0.3961747722753  0.3993060619171  0.7485241452923 1.0
C      1  0.5187336335454  0.8310681906188  0.6930836191883 1.0
C      1  0.3804275469451  0.1013722617473  0.8025614655702 1.0
C      1  0.2956308495353  0.5662079784594  0.6018867977617 1.0
C      1  0.2563012685427  0.8267375296558  0.8224963468089 1.0
C      1  0.1364240718866  0.4205649910687  0.5140476098386 1.0
C      1  0.4518443984826  0.0403664575799  0.8321528229615 1.0
C      1  0.4638902583316  0.5565934341409  0.7436048247353 1.0
C      1  0.1284190174521  0.2447573658066  0.4663547400358 1.0
C      1  0.1299837065528  0.7673837383558  0.7467458309109 1.0
C      1  0.8982635789412  0.2085726777826  0.7121853253278 1.0
C      1  0.5396484247262  0.5083290469182  0.4725858431241 1.0
C      1  0.6098001962264  0.6340378461281  0.2767998793247 1.0
C      1  0.1343873105062  0.0921617418764  0.4118027168313 1.0
C      1  0.2534317165503  0.2121817332440  0.5779957578344 1.0
C      1  0.6579767974454  0.7604914341908  0.4268977018953 1.0
C      1  0.2984832954900  0.5553339720816  0.3504606611307 1.0
C      1  0.4179641901426  0.3706934888980  0.1021310729073 1.0
C      1  0.3395064747951  0.3613803680785  0.8227808336129 1.0
C      1  0.7635443954588  0.8931643495534  0.2029147439889 1.0
C      1  0.5334874072332  0.0869094233400  0.8250429658139 1.0
C      1  0.7560797127038  0.3034517102809  0.0962910490169 1.0
C      1  0.0673582493523  0.1709213333828  0.4156720172599 1.0
C      1  0.1522404529283  0.7075526926063  0.6617721563577 1.0
C      1  0.6635474759203  0.1658620732248  0.1011034981707 1.0
C      1  0.4520158463096  0.5931790493032  0.6590226743775 1.0
C      1  0.7867395972790  0.1203215207408  0.4515580039572 1.0
C      1  0.5176508482155  0.2353670118894  0.1191040643344 1.0
C      1  0.9826758102035  0.4246854771344  0.5546427549030 1.0
C      1  0.3074120962451  0.6679610661467  0.5976666998533 1.0
C      1  0.2159067278543  0.9033765790672  0.4100638091915 1.0
C      1  0.2551131608453  0.7118165612863  0.6714048574338 1.0
C      1  0.9508599789341  0.4946934096328  0.4877038181112 1.0
C      1  0.5534471420805  0.8355289057655  0.9322636110017 1.0
C      1  0.6223708967852  0.6872457152783  0.1940098556200 1.0
C      1  0.8656034717781  0.6905620222292  0.5128580873523 1.0
C      1  0.9884507314202  0.2208137640438  0.3670054714070 1.0
C      1  0.5485205642229  0.5261139858431  0.7643167578755 1.0
C      1  0.3476060585512  0.5635144019464  0.8835624695663 1.0
C      1  0.3825230544999  0.2785933778086  0.9637278474383 1.0
C      1  0.7075568778565  0.5794911966021  0.9112900798469 1.0
C      1  0.5395861356844  0.6577638471165  0.4561233100641 1.0
C      1  0.8617280334889  0.7641886325804  0.3768171187568 1.0
C      1  0.5897217047660  0.7467480831658  0.0659497465704 1.0
C      1  0.2978687700483  0.8060111008059  0.3023222192499 1.0
C      1  0.7565755171665  0.2813209299739  0.3939788629624 1.0
C      1  0.8340481914056  0.3066991881033  0.3306339258174 1.0
C      1  0.5232331916562  0.5968605928259  0.3045174877950 1.0
C      1  0.4168211262299  0.2818321806703  0.6311405148101 1.0
C      1  0.7229888514048  0.9892844337790  0.3247046442204 1.0
C      1  0.4107551968673  0.4545571501056  0.4233466430142 1.0
C      1  0.7923990671458  0.9269750578303  0.3596808631190 1.0
C      1  0.9140552644555  0.5975093953287  0.6615203351957 1.0
C      1  0.5439767051150  0.0245025275437  0.3325102348116 1.0
C      1  0.2811816071210  0.3035793724917  0.4063698463548 1.0
C      1  0.1162909406818  0.4133345922717  0.6731924523673 1.0
C      1  0.7848637113922  0.8116582060835  0.8208726818365 1.0
C      1  0.2716241650204  0.8747780051747  0.7375752338720 1.0
C      1  0.7000421876537  0.9324711997986  0.5055949339020 1.0
C      1  0.4078578750068  0.3033559397825  0.5292941674791 1.0
C      1  0.3214933870446  0.8335420845100  0.2047022793476 1.0
C      1  0.5833071873533  0.8888431390422  0.1239305222906 1.0
C      1  0.7206946029879  0.6877191962218  0.3988761345253 1.0
C      1  0.4104273122347  0.7083710264370  0.5812800584133 1.0
C      1  0.4960549762919  0.8466622037297  0.1035180877125 1.0
C      1  0.4253436268608  0.6437116054394  0.0448499671563 1.0
C      1  0.5776035941967  0.3449805828314  0.2839312488585 1.0
C      1  0.7957985904295  0.2751339155751  0.1795687628463 1.0
C      1  0.1907253826601  0.6491530815524  0.2619893159846 1.0
C      1  0.8075368104328  0.7203741278669  0.8504355311213 1.0
C      1  0.3138018807105  0.6618616251284  0.8990768948090 1.0
C      1  0.2855339542174  0.2015769713260  0.4203376388980 1.0
C      1  0.4534411562960  0.5258555159226  0.1591190686298 1.0
C      1  0.2461119524241  0.3928510453146  0.2641715741889 1.0
C      1  0.3804592196591  0.5006114614311  0.7405378315681 1.0
C      1  0.5334405726652  0.5571769352111  0.0243388916289 1.0
C      1  0.7337121971077  0.3552639984323  0.5464955224980 1.0
C      1  0.5373274703474  0.1965095977616  0.3394221968231 1.0
C      1  0.8862974716142  0.4053125606458  0.9008532807411 1.0
C      1  0.6972080815638  0.9530903463675  0.2297828463335 1.0
C      1  0.6860715640899  0.8291383531773  0.8433366803028 1.0
C      1  0.0730186148899  0.5148608094952  0.1889757492594 1.0
C      1  0.5216151025159  0.5930159081001  0.5917932253255 1.0
C      1  0.9061039746224  0.4906823884986  0.2593482977582 1.0
C      1  0.1392640389774  0.6032241244233  0.6683874296542 1.0
C      1  0.6111221464998  0.6795764530115  0.6931279521727 1.0
C      1  0.3695392225717  0.7070642583615  0.7575885086883 1.0
C      1  0.3918633176468  0.3742184195801  0.9589354398351 1.0
C      1  0.6929762889943  0.7255670619201  0.7192096782893 1.0
C      1  0.7507228973743  0.1629215083926  0.8502225189158 1.0
C      1  0.1959447224822  0.3594054058393  0.3606902320206 1.0
C      1  0.3198686905985  0.8483229666525  0.5883545232268 1.0
C      1  0.0158030228430  0.3181107003001  0.4015653781890 1.0
C      1  0.7734654345905  0.3852701237319  0.0629106178497 1.0
C      1  0.5273753867984  0.4970780512694  0.3084077992394 1.0
C      1  0.6890714883359  0.5799582123827  0.2450826353043 1.0
C      1  0.7127015900748  0.6504255067243  0.1665159031836 1.0
C      1  0.0612829336648  0.5536618738212  0.7108917307366 1.0
END
