TITL C-21352-6420-21 -7.483 3375.00 -1265.13883816 0 0 152 (C1) n - 1
REM
REM Run started: at 2020.07.12 16:27:51 in /home/heco/bkarasulu/work/CARBON/AIRSS/Str-Search
REM VASP from code version vasp.5.4.4.18Apr17-6-g9f103f2a35 (build Jul 02 2020 21:03:42) gamma-only
REM
REM
REM
REM
REM ./C.cell (90889e035cd0f9d0e5f9cb6dd9eb5d52)
REM AIRSS Version 0.9.1 bugfix July 2018 build 013d7b7c2542+ Fri, 06 Jul 2018 19:26:36 +0100
REM compiler GCC version 9.2.0
REM options -cpp -mtune=generic -march=x86-64 -g -O0
REM seed 1482862069 486718608 -1896976679 389121892 -2096689336 963893857 819257065 1861581334 986133893 -1068545852 1167286980 -106494066 1124031911 146463817 455782865 2132900756 1520430075 -824424265 -2024622286 -966562582 1048038285 758242204 1061946274 262081186 -745265491 310863527 -495505417 -716830581 89254901 1660555125 -184409964 846021889 1410286544
REM
REM C.POTCAR (d86ddea03c3ceb6dc662c8ad6801f873)
REM 
CELL 1.54180   15.00000   15.00000   15.00000   90.00000   90.00000   90.00000
LATT -1
SFAC C  
C      1  0.6107105405278  0.3801440078477  0.6718382062660 1.0
C      1  0.2631937432622  0.3718540226012  0.3155907497068 1.0
C      1  0.7672799818597  0.6486875327842  0.5689072667986 1.0
C      1  0.2523523856003  0.6049301643295  0.2063580332397 1.0
C      1  0.5134676767496  0.3647263585318  0.4582791067393 1.0
C      1  0.7724154820771  0.4009755691752  0.7817635173311 1.0
C      1  0.4750024777078  0.6931678452609  0.4669907258376 1.0
C      1  0.5156613213374  0.5496676521740  0.7524651017453 1.0
C      1  0.7995615910809  0.3427445088865  0.4142670092031 1.0
C      1  0.5676251078322  0.3847790340999  0.7569180363435 1.0
C      1  0.2882747020656  0.3673561920141  0.6564665421332 1.0
C      1  0.6582105105854  0.5509988950866  0.1690309412516 1.0
C      1  0.6194270390898  0.3985091345812  0.8536889289922 1.0
C      1  0.3183830947731  0.6826834182367  0.3958769927460 1.0
C      1  0.3535682827614  0.4424501625848  0.2015097376001 1.0
C      1  0.6241439608838  0.4915044957047  0.4891621015154 1.0
C      1  0.6165050402760  0.2282660616481  0.7802932865525 1.0
C      1  0.4078201793779  0.2977819539060  0.8585026593852 1.0
C      1  0.0856871429142  0.6298093181532  0.6165143676910 1.0
C      1  0.4877412858887  0.2601916592184  0.8414428405809 1.0
C      1  0.5206029379177  0.6046190635598  0.3462784810302 1.0
C      1  0.5398982383680  0.6259757717835  0.4357365632085 1.0
C      1  0.6760191101074  0.7783652714205  0.4818601522722 1.0
C      1  0.1193924914213  0.6928584395031  0.3610543025047 1.0
C      1  0.6887001234020  0.6720430714067  0.7106277951460 1.0
C      1  0.6894711457975  0.2494665140482  0.3652551253662 1.0
C      1  0.8362878841092  0.5528055152638  0.3491017344996 1.0
C      1  0.4122914220216  0.8438179538627  0.5599812873855 1.0
C      1  0.7831041856927  0.2544769165286  0.3794479945785 1.0
C      1  0.6458564436761  0.1677095793746  0.6089080241412 1.0
C      1  0.5102780258865  0.5254555253188  0.2970613562069 1.0
C      1  0.5673725707558  0.4123237928348  0.2094764744766 1.0
C      1  0.2850612612019  0.5261110519581  0.7785920104735 1.0
C      1  0.2482642782996  0.6985230574803  0.2471547955289 1.0
C      1  0.2563262707348  0.7635473743288  0.3908690678013 1.0
C      1  0.7182412405488  0.3982819526214  0.4022319206666 1.0
C      1  0.2799440375436  0.5983507116142  0.3649250171869 1.0
C      1  0.8357877282422  0.4015052304105  0.6414172270320 1.0
C      1  0.6095716304944  0.8090205451681  0.4208280071606 1.0
C      1  0.3587142368232  0.2998071192155  0.4737969667455 1.0
C      1  0.3382146791062  0.6239247971812  0.4824277032399 1.0
C      1  0.3326163210936  0.4516743808882  0.8165482194406 1.0
C      1  0.4847835507047  0.6850166071761  0.2974254461898 1.0
C      1  0.6248733099565  0.1426190076372  0.4724879521059 1.0
C      1  0.6280090163984  0.7737927259574  0.3329948823478 1.0
C      1  0.5695178245296  0.7918664989973  0.6109368994025 1.0
C      1  0.7764955770501  0.5730309109108  0.2724408095118 1.0
C      1  0.4505910223533  0.3681370433498  0.6037028770376 1.0
C      1  0.0116525063417  0.5596390059409  0.3430836670265 1.0
C      1  0.7105076458485  0.7023922151098  0.6213182150902 1.0
C      1  0.5895456295221  0.5493567160153  0.8227471363326 1.0
C      1  0.4265688465981  0.6405582083949  0.5257117103025 1.0
C      1  0.7508966829292  0.4219012436679  0.1877181192801 1.0
C      1  0.5241562589820  0.1861122320072  0.7865100101949 1.0
C      1  0.7884502706060  0.5514545083442  0.4416806544187 1.0
C      1  0.1694516524461  0.4124064991806  0.6066258989345 1.0
C      1  0.3588591187173  0.3703390007610  0.8456603467965 1.0
C      1  0.2585178611946  0.6047053342676  0.5366358176659 1.0
C      1  0.2318108465187  0.4875086512127  0.4231500755071 1.0
C      1  0.0809586180960  0.6561909666732  0.5355677826904 1.0
C      1  0.6605128354125  0.2245365258407  0.6849871038491 1.0
C      1  0.5068302320003  0.2744025211292  0.3074649583893 1.0
C      1  0.8317782686163  0.5143864546877  0.5291740715232 1.0
C      1  0.7164763537830  0.2172016280872  0.7691920629929 1.0
C      1  0.6133484485474  0.3277094670723  0.1936116676973 1.0
C      1  0.7043065904254  0.4862579855341  0.4391796450628 1.0
C      1  0.3517610849544  0.8103770547454  0.6195243743387 1.0
C      1  0.8479258404269  0.4249949044813  0.5516959111188 1.0
C      1  0.7435211642670  0.5131223214443  0.2054236781646 1.0
C      1  0.3223703025124  0.2968080793981  0.3117106636883 1.0
C      1  0.7047690105656  0.4439383198009  0.8291271343130 1.0
C      1  0.2820961211659  0.8305227445798  0.4440319404305 1.0
C      1  0.2111589798983  0.4184777535531  0.6944408753102 1.0
C      1  0.1915739370333  0.5482316422966  0.3473907281981 1.0
C      1  0.1562983550318  0.4986115018623  0.5791136021910 1.0
C      1  0.5423446230763  0.7462054762958  0.6948078796411 1.0
C      1  0.5642356980167  0.5648707068752  0.5054297389956 1.0
C      1  0.6497962821566  0.3384810857927  0.3752139527079 1.0
C      1  0.1637344451526  0.5667695679753  0.6539587001904 1.0
C      1  0.5750993579253  0.2542476873132  0.2397438353160 1.0
C      1  0.4911951894320  0.5739918834250  0.6624314255908 1.0
C      1  0.2399690834216  0.6258473889622  0.6261859703635 1.0
C      1  0.8100036116377  0.5714379867809  0.6024650357678 1.0
C      1  0.4901072316624  0.5495925558791  0.1986516591023 1.0
C      1  0.7883738246578  0.1910795229643  0.5176100696923 1.0
C      1  0.8053874545718  0.1763771296873  0.4253616135062 1.0
C      1  0.7011214235804  0.1587489125642  0.5344654038627 1.0
C      1  0.0943957192082  0.6614588648936  0.4446332289199 1.0
C      1  0.0996304727957  0.5941786866376  0.3627647273907 1.0
C      1  0.3829556511673  0.3790276702179  0.6716860733765 1.0
C      1  0.4842928835103  0.6516621440228  0.1989834477909 1.0
C      1  0.5462673005385  0.3556830366389  0.3631456105070 1.0
C      1  0.5764250696242  0.6953515519104  0.1973796681179 1.0
C      1  0.7199539503063  0.6530675944052  0.2690466835276 1.0
C      1  0.3682280054064  0.8283534688170  0.4751603549709 1.0
C      1  0.6550476090218  0.6439149578645  0.1975707387938 1.0
C      1  0.5518290248495  0.4698112177003  0.8620152022745 1.0
C      1  0.7956420886961  0.3130034152996  0.6481592120451 1.0
C      1  0.2239119845604  0.5265951020111  0.2540483854897 1.0
C      1  0.3893056884952  0.6777565620749  0.1793964049365 1.0
C      1  0.4378748573118  0.3368261343118  0.5121663623807 1.0
C      1  0.2715709975015  0.4426949116611  0.2467057480269 1.0
C      1  0.1944071544463  0.7333719175565  0.3193490945951 1.0
C      1  0.8202407936212  0.2691727273166  0.5601253902323 1.0
C      1  0.3971738604226  0.7279642506919  0.3335637221404 1.0
C      1  0.7020850946995  0.3553400751204  0.1761989109587 1.0
C      1  0.8384714692469  0.3443653684035  0.5004885577099 1.0
C      1  0.4385292127893  0.7786417270520  0.4183339896058 1.0
C      1  0.6263090467151  0.1752651026738  0.3836253451740 1.0
C      1  0.4929572577243  0.5803405312289  0.5725254101361 1.0
C      1  0.5780659878637  0.5027671695196  0.1694111676241 1.0
C      1  0.5723227844646  0.4102298375410  0.5141399150982 1.0
C      1  0.5612196320205  0.7487636695625  0.2729899446625 1.0
C      1  0.2406927318472  0.3555439666355  0.5717019424690 1.0
C      1  0.5672465375791  0.1354650658612  0.5651040269447 1.0
C      1  0.3384803624971  0.5977213377094  0.1626581714330 1.0
C      1  0.5468483928246  0.3938714902358  0.6045792049584 1.0
C      1  0.4529993284145  0.7096579980117  0.7089585872224 1.0
C      1  0.7068711796592  0.7204245053726  0.3350324448620 1.0
C      1  0.5248445845934  0.8254597794237  0.4529156147286 1.0
C      1  0.4950743985616  0.4513921857673  0.7781517658369 1.0
C      1  0.6833837786625  0.5373233018758  0.8081770839726 1.0
C      1  0.2398667240033  0.3895375490368  0.4061056043625 1.0
C      1  0.2713205927691  0.3400327810440  0.4866397072861 1.0
C      1  0.6918430239180  0.3195868531357  0.6673089379438 1.0
C      1  0.2062983053203  0.5312789328317  0.5071871505225 1.0
C      1  0.5075577660616  0.8311046193082  0.5485969289826 1.0
C      1  0.5761095584756  0.3114633609485  0.8234846370669 1.0
C      1  0.3426991421569  0.7298574743105  0.2432411578798 1.0
C      1  0.8162240870910  0.4548230606569  0.7146034487519 1.0
C      1  0.9288746035126  0.5498511825069  0.3429132322993 1.0
C      1  0.5002050208336  0.1262617852500  0.6281895032011 1.0
C      1  0.7659337980233  0.6456862860841  0.4740984710159 1.0
C      1  0.3933149380976  0.5202073635192  0.1727057985572 1.0
C      1  0.4922016598296  0.1436726387276  0.7109265947152 1.0
C      1  0.4106100507691  0.2659654021320  0.3113816073406 1.0
C      1  0.6088882429309  0.7041822702945  0.7461737315739 1.0
C      1  0.5644179399928  0.1932073890196  0.3096688084243 1.0
C      1  0.6561770045441  0.7663266473114  0.5749875319539 1.0
C      1  0.4377418338682  0.6144099714001  0.7417819954020 1.0
C      1  0.2039438186914  0.5059424768506  0.7311420050708 1.0
C      1  0.7322218223502  0.7183561513033  0.4291594391741 1.0
C      1  0.5323636278012  0.4314394593618  0.2965199703603 1.0
C      1  0.4055582042126  0.4181618014639  0.7589853039728 1.0
C      1  0.3036594058364  0.6629165586428  0.6873049542798 1.0
C      1  0.3272527969390  0.5369046624418  0.4143150722598 1.0
C      1  0.7601074421518  0.3077525491404  0.7456863277155 1.0
C      1  0.3618198561275  0.2620264377299  0.3898699286709 1.0
C      1  0.3693637850205  0.7329151845843  0.6699000383305 1.0
C      1  0.3386009040911  0.5999105115363  0.7486665205508 1.0
C      1  0.7313972769548  0.5919026153038  0.7456822627981 1.0
C      1  0.7970822773598  0.5457009908689  0.6936423100331 1.0
END
