TITL C-21888-4617-7 -7.643 3375.00 -1206.70845558 0 0 148 (C1) n - 1
REM
REM Run started: at 2020.12.09 13:50:25 in /rds/project/t2_vol4/rds-t2-cs072/BORA/CARBON/AIRSS/Generating-Clusters/Str-Search/Only-C1/C100-200
REM VASP from code version vasp.5.4.4.18Apr17-6-g9f103f2a35 (build Oct 11 2019 16:45:47) gamma-only
REM
REM
REM
REM
REM ./C.cell (efaf0b2bf1589a83377268d7ebe2c73f)
REM AIRSS Version 0.9.1 bugfix July 2018 build 013d7b7c2542+ Fri, 06 Jul 2018 19:26:36 +0100
REM compiler GCC version 4.8.5 20150623 (Red Hat 4.8.5-39)
REM options -cpp -mtune=generic -march=x86-64 -g -O0
REM seed 552886376 -690008431 -1658967038 -149799164 1340823872 -2102925174 124531494 640060557 -1941192053 1745128168 -1615805854 709931205
REM
REM C.POTCAR (d86ddea03c3ceb6dc662c8ad6801f873)
REM 
CELL 1.54180   15.00000   15.00000   15.00000   90.00000   90.00000   90.00000
LATT -1
SFAC C  
C      1  0.4978356448811  0.2184557696107  0.2265893700777 1.0
C      1  0.1874660523352  0.5618769284995  0.3993820582498 1.0
C      1  0.7853850994913  0.6087566652354  0.5342936838950 1.0
C      1  0.6520383879397  0.5422061662573  0.6682960911470 1.0
C      1  0.3337970544935  0.4095840211299  0.3407443288529 1.0
C      1  0.7960824308471  0.2410257768524  0.4156726086465 1.0
C      1  0.7156198027888  0.6656971235846  0.5480974840906 1.0
C      1  0.8845188050585  0.5162195347621  0.4615051463607 1.0
C      1  0.1072266596447  0.5161203322649  0.5751025971747 1.0
C      1  0.5652492607373  0.8356608559306  0.5804005953337 1.0
C      1  0.4091330723015  0.5716277420954  0.5370418655036 1.0
C      1  0.2681583801024  0.4266818256659  0.7398549107637 1.0
C      1  0.5671515127586  0.6905821847527  0.2124492534738 1.0
C      1  0.3035155804251  0.2291911587603  0.6019021372950 1.0
C      1  0.2859553785063  0.6118444849775  0.6987781507545 1.0
C      1  0.6138608831903  0.8630735900253  0.4985246507889 1.0
C      1  0.5429104813618  0.5099903630078  0.1396387583265 1.0
C      1  0.5713790551159  0.1448916117456  0.5095413198970 1.0
C      1  0.4676846547254  0.4702728891794  0.3098740147362 1.0
C      1  0.5439098471693  0.4267205131890  0.8673287551999 1.0
C      1  0.2442667707183  0.3556394098775  0.6828980393096 1.0
C      1  0.7009293535193  0.3603374187676  0.6337519096611 1.0
C      1  0.4194450915134  0.6984514070117  0.4240008279719 1.0
C      1  0.5473561162668  0.6691461220179  0.5024731035342 1.0
C      1  0.1054242947391  0.6093146617464  0.5169285521381 1.0
C      1  0.2477142159254  0.4446595813219  0.3051378480223 1.0
C      1  0.4734109217841  0.5662053363539  0.1122715988035 1.0
C      1  0.4134272680564  0.4292838869890  0.6112670030959 1.0
C      1  0.3793054828951  0.2658889762381  0.7485658763057 1.0
C      1  0.4707940378401  0.8372501261729  0.5814355504008 1.0
C      1  0.6045913442810  0.4972943771037  0.8451366786297 1.0
C      1  0.5918520330088  0.6109484430990  0.2664438384771 1.0
C      1  0.7941929786312  0.3293961807571  0.3885627402544 1.0
C      1  0.4268823794414  0.6249452037121  0.3578622754996 1.0
C      1  0.9488808068660  0.4538294315892  0.6469136872451 1.0
C      1  0.6062146740284  0.5283110284816  0.2046170800290 1.0
C      1  0.4215553146956  0.5852316424992  0.7913519780978 1.0
C      1  0.7045416403098  0.7227105927009  0.3535474182574 1.0
C      1  0.5453329989917  0.3336551377131  0.5686533071049 1.0
C      1  0.4815688453886  0.3057929904004  0.1831007740334 1.0
C      1  0.4886205798571  0.2307296459294  0.4188331708513 1.0
C      1  0.3552896835354  0.3285785380681  0.3913011093302 1.0
C      1  0.6544991331425  0.1112956620113  0.5375019836879 1.0
C      1  0.0027538268485  0.4993960848119  0.5896065984126 1.0
C      1  0.3822611529770  0.4292669107192  0.2498046439649 1.0
C      1  0.9328770012438  0.5525262705464  0.5373332650459 1.0
C      1  0.4091091470495  0.1744215711233  0.4387449146065 1.0
C      1  0.5747799842286  0.8865012661760  0.4187455384308 1.0
C      1  0.6764869415020  0.4499832540497  0.8074490117890 1.0
C      1  0.3362280471315  0.3351690011421  0.4921139628626 1.0
C      1  0.3559307473874  0.4288844436510  0.5248796974551 1.0
C      1  0.4165422070115  0.1870441251414  0.2625832993527 1.0
C      1  0.4154503130284  0.8481976898697  0.4985024973192 1.0
C      1  0.2868515168290  0.6650896834957  0.2467527979181 1.0
C      1  0.3444177564587  0.4180693655780  0.7997916633711 1.0
C      1  0.1602842984548  0.4190262990490  0.4415497844878 1.0
C      1  0.3535349095178  0.2632706115266  0.2440879140968 1.0
C      1  0.7108237756548  0.3857976652788  0.3976198921317 1.0
C      1  0.4487059054962  0.6421605317998  0.1393088531350 1.0
C      1  0.5132795889982  0.6269345394264  0.7996306576124 1.0
C      1  0.5074729170191  0.5662421424126  0.3220134491117 1.0
C      1  0.5843930812323  0.4349598389714  0.1852110421248 1.0
C      1  0.2090681225334  0.3620677910128  0.5931674845162 1.0
C      1  0.5358596919318  0.8691538706663  0.3456700975074 1.0
C      1  0.4672154664524  0.7226304460083  0.1867885223783 1.0
C      1  0.7162936925956  0.4894632663682  0.7280806244690 1.0
C      1  0.8701496141617  0.3790173818351  0.3782322331895 1.0
C      1  0.6084885217510  0.6212420409678  0.4281184805990 1.0
C      1  0.4934777703242  0.3052938234363  0.4906968576786 1.0
C      1  0.7153717174016  0.4669749374004  0.4548260434649 1.0
C      1  0.5742267744403  0.1934076054245  0.4200130909169 1.0
C      1  0.7854503824704  0.5281959020066  0.4748662140848 1.0
C      1  0.2480416886627  0.6354185673363  0.6066725880628 1.0
C      1  0.3201469391421  0.7983181298669  0.6133295566682 1.0
C      1  0.3283051848677  0.8374851910792  0.5248661224620 1.0
C      1  0.5836078630857  0.2571574025846  0.2588240008985 1.0
C      1  0.6310396434039  0.3750618156110  0.5735538076623 1.0
C      1  0.3025199783740  0.2706950467347  0.6882870645743 1.0
C      1  0.5805075598777  0.3419871975238  0.8366561946093 1.0
C      1  0.3952979629285  0.4799853335411  0.3792063398528 1.0
C      1  0.7546402916388  0.5806649008668  0.7216706906104 1.0
C      1  0.4123843998283  0.2897919193952  0.5408084308602 1.0
C      1  0.7864931742834  0.1739114807440  0.4636555493007 1.0
C      1  0.7222916000493  0.3328018532132  0.7193619365758 1.0
C      1  0.3957769825824  0.3396767355844  0.2049715641254 1.0
C      1  0.6575313447872  0.6252852632006  0.7310591257177 1.0
C      1  0.5688184406078  0.3426782017070  0.2002423613524 1.0
C      1  0.3240780272472  0.2525700650093  0.3342259637991 1.0
C      1  0.2755223271377  0.4900508103816  0.5170853649442 1.0
C      1  0.4849155895589  0.1592696215390  0.6640178213141 1.0
C      1  0.7710804849381  0.4172900368770  0.6849254003564 1.0
C      1  0.4907246758187  0.1515663944252  0.5714482831307 1.0
C      1  0.4571513667477  0.3468126697443  0.6111779392112 1.0
C      1  0.4354821700768  0.5226207484888  0.6225269548621 1.0
C      1  0.4421477371895  0.2001503126367  0.7233664858887 1.0
C      1  0.4877010369089  0.3570113862378  0.8409894993182 1.0
C      1  0.3722985159008  0.1704943345380  0.3524295193004 1.0
C      1  0.4167423209485  0.7998957252281  0.4097889220910 1.0
C      1  0.5198715919147  0.7056673132843  0.7425700215158 1.0
C      1  0.3284161733029  0.7492626662065  0.3964452936002 1.0
C      1  0.1488557645644  0.6050138097729  0.5961628895016 1.0
C      1  0.6663352594923  0.3564217113705  0.7972697930913 1.0
C      1  0.6262200458131  0.7744927392784  0.6317970126276 1.0
C      1  0.6067008815095  0.7138605965015  0.7025484783734 1.0
C      1  0.3760865517132  0.6506672710959  0.7250307733717 1.0
C      1  0.6491635377573  0.6488785621366  0.3437763791578 1.0
C      1  0.9064966423888  0.4496279473641  0.4031810198626 1.0
C      1  0.5540792196265  0.5493491924040  0.4049147395012 1.0
C      1  0.5329552794509  0.3993887149252  0.3724238368987 1.0
C      1  0.3293483139449  0.7345350664871  0.2927712771588 1.0
C      1  0.8675544873122  0.6013786569797  0.5874692839968 1.0
C      1  0.6189640813287  0.2547615880813  0.3445408881055 1.0
C      1  0.3947131722888  0.1909721055353  0.5402481088260 1.0
C      1  0.2793302275047  0.5296040019154  0.7447664673336 1.0
C      1  0.2802156980919  0.5664475095440  0.4402914782416 1.0
C      1  0.7026054479520  0.7591569007894  0.5741217067126 1.0
C      1  0.6972281393542  0.8131311764188  0.4963522616705 1.0
C      1  0.3545941290172  0.5138364904888  0.8060949352545 1.0
C      1  0.6292404868004  0.4593291885766  0.5164103624230 1.0
C      1  0.4339815637246  0.7315289020182  0.7111502890984 1.0
C      1  0.4346893217282  0.5740533743007  0.6946915937944 1.0
C      1  0.1797262702640  0.4453149002548  0.5378810515274 1.0
C      1  0.2817491080457  0.5849846382001  0.2234273235343 1.0
C      1  0.1367439308751  0.6280184588485  0.4343787951543 1.0
C      1  0.2649707913920  0.7301974881177  0.5733638996863 1.0
C      1  0.5639663103371  0.7628655945400  0.1640998130015 1.0
C      1  0.3584876331422  0.5674220859966  0.3772157959728 1.0
C      1  0.6282273461093  0.6223327864981  0.5285814762673 1.0
C      1  0.4656571829360  0.3261219140763  0.3973952562444 1.0
C      1  0.7258569885930  0.7762060458381  0.4140489562290 1.0
C      1  0.6296311510253  0.5376724799683  0.5794196171328 1.0
C      1  0.3044381185898  0.5813462343668  0.5374929045100 1.0
C      1  0.8365480836369  0.5658384656560  0.6729338281207 1.0
C      1  0.7322714543354  0.1192057006447  0.5082540911240 1.0
C      1  0.5949245244395  0.5849904756360  0.8086251818833 1.0
C      1  0.4282370832043  0.4824821935267  0.4746284415915 1.0
C      1  0.4559258206087  0.6555414318926  0.5072320127646 1.0
C      1  0.5384864569278  0.4678736076699  0.4540197680888 1.0
C      1  0.4005553717516  0.3417370134074  0.8057326425421 1.0
C      1  0.6286697431113  0.3515913219456  0.3705048280337 1.0
C      1  0.1753980471178  0.4672406065216  0.3672676022036 1.0
C      1  0.4593629341753  0.8221277922734  0.3245785054899 1.0
C      1  0.4151925532839  0.7662848982868  0.2583248370020 1.0
C      1  0.4094309677440  0.7964852248832  0.6481753261192 1.0
C      1  0.8618192153222  0.4667204155414  0.6731829371637 1.0
C      1  0.2943124514826  0.4929575130238  0.2389359923986 1.0
C      1  0.2747367119306  0.7701081559326  0.4807396526322 1.0
C      1  0.2590218450039  0.2965521289003  0.5456199225738 1.0
END
