TITL C-21352-6420-5 -8.557 3375.00 -1529.59195102 0 0 187 (C1) n - 1
REM
REM Run started: at 2020.07.11 07:13:20 in /home/heco/bkarasulu/work/CARBON/AIRSS/Str-Search
REM VASP from code version vasp.5.4.4.18Apr17-6-g9f103f2a35 (build Jul 02 2020 21:03:42) gamma-only
REM
REM
REM
REM
REM ./C.cell (90889e035cd0f9d0e5f9cb6dd9eb5d52)
REM AIRSS Version 0.9.1 bugfix July 2018 build 013d7b7c2542+ Fri, 06 Jul 2018 19:26:36 +0100
REM compiler GCC version 9.2.0
REM options -cpp -mtune=generic -march=x86-64 -g -O0
REM seed 1490450894 568210478 -148111742 1600555762 -2085338803 -1846476641 -992070246 -1619054806 795517066 1507610368 -747774296 2095377530 2146891761 499327798 -705899776 -711921303 -201764483 715128212 147568964 -14324128 114518975 -577451526 1642586986 -114276743 -1250555811 2005880073 1061624555 1123250375 215281720 1012806188 845353723 1579006459 -706125031
REM
REM C.POTCAR (d86ddea03c3ceb6dc662c8ad6801f873)
REM 
CELL 1.54180   15.00000   15.00000   15.00000   90.00000   90.00000   90.00000
LATT -1
SFAC C  
C      1  0.1901103482820  0.4243864666565  0.7304121458185 1.0
C      1  0.1412822047392  0.3182632689200  0.4972638526974 1.0
C      1  0.5530692786953  0.4940912619926  0.5534138081009 1.0
C      1  0.6285111842136  0.5732246725765  0.5343338803966 1.0
C      1  0.7740179457576  0.3406467673507  0.7080516217190 1.0
C      1  0.0638148259499  0.5954510518378  0.4840968739290 1.0
C      1  0.4650177956344  0.2389189510099  0.1869313493567 1.0
C      1  0.1291697627722  0.3815172485839  0.5668594584439 1.0
C      1  0.6938063049893  0.5048375728209  0.5007756854175 1.0
C      1  0.4934445885861  0.6571676253249  0.3806146617098 1.0
C      1  0.7831894972512  0.7199827746855  0.4831752744982 1.0
C      1  0.7447816420507  0.5578856384489  0.6598159313813 1.0
C      1  0.2404957409506  0.4929992318623  0.2819207810363 1.0
C      1  0.5345247074058  0.8868089992363  0.5650440091289 1.0
C      1  0.7680166767051  0.3039959260221  0.3392835128097 1.0
C      1  0.6208496730000  0.6383018031435  0.2067516318681 1.0
C      1  0.5334788570523  0.2110249348586  0.5629315961835 1.0
C      1  0.3065484649021  0.7740067682000  0.5342691290673 1.0
C      1  0.7847206520650  0.2427618375807  0.5003537518826 1.0
C      1  0.7042319324170  0.4513873107374  0.2255315774284 1.0
C      1  0.6122190934007  0.5424269147676  0.6884500136427 1.0
C      1  0.2997872534338  0.5124541071033  0.3629352040837 1.0
C      1  0.8417787889881  0.6483428075665  0.5155050845931 1.0
C      1  0.2790089085347  0.1704898735417  0.5749237284942 1.0
C      1  0.1702103606226  0.2960515168075  0.5817502692076 1.0
C      1  0.7588011595787  0.5303179314148  0.2490294756672 1.0
C      1  0.5656186520596  0.7200430543465  0.1992092634221 1.0
C      1  0.4605744106000  0.1241667501960  0.3735057294925 1.0
C      1  0.3798858935858  0.3612824535917  0.5735100659239 1.0
C      1  0.8643569699851  0.5200805039104  0.3951330650719 1.0
C      1  0.6335047066518  0.2967974478993  0.7993242589606 1.0
C      1  0.6562337966429  0.7071769889323  0.6258619453404 1.0
C      1  0.1681127787640  0.7205558242815  0.4060620216052 1.0
C      1  0.5539889354011  0.7361673531540  0.6062743798705 1.0
C      1  0.5868062512826  0.7260452756129  0.8421982056989 1.0
C      1  0.7592730255194  0.2862671353334  0.2396539193667 1.0
C      1  0.2332884039438  0.3544734660845  0.7387975019434 1.0
C      1  0.4412754364944  0.4689740794643  0.1862227461975 1.0
C      1  0.4477105947107  0.9247425005266  0.5264610220771 1.0
C      1  0.2649446834029  0.6882153543765  0.5404303112139 1.0
C      1  0.6613039913958  0.6054808668979  0.6247979163110 1.0
C      1  0.1769265130234  0.3224911261435  0.3259493868993 1.0
C      1  0.2984087617286  0.6036885727320  0.4100317074639 1.0
C      1  0.6964992406240  0.2456751735959  0.5578647031816 1.0
C      1  0.3030809745372  0.5353727300737  0.8485272174180 1.0
C      1  0.4611103922640  0.8470600996489  0.4636798623921 1.0
C      1  0.8594303217577  0.3990014364121  0.5024753338956 1.0
C      1  0.4355608505937  0.1988965492361  0.5747113884691 1.0
C      1  0.4014888628575  0.0684767025504  0.4239607196123 1.0
C      1  0.2890878083539  0.5743702148079  0.7587934047189 1.0
C      1  0.5287219094459  0.5034014740227  0.8618999992837 1.0
C      1  0.7407395927732  0.3261815032641  0.6111893935459 1.0
C      1  0.2363055977133  0.3493637536749  0.2034747202098 1.0
C      1  0.8854387786782  0.4656771168344  0.7256630644877 1.0
C      1  0.3342197716703  0.6247976807755  0.5741316761959 1.0
C      1  0.6813528629356  0.4442679460102  0.8014363829172 1.0
C      1  0.7514912717043  0.8195576073271  0.6523467386739 1.0
C      1  0.6379976869191  0.5138136143733  0.3577886310428 1.0
C      1  0.6279917049391  0.6404806247878  0.8381573275509 1.0
C      1  0.8421579293865  0.3616235557459  0.3487821938246 1.0
C      1  0.4345613117997  0.8242851987730  0.6781630442743 1.0
C      1  0.3674489816243  0.4877679759240  0.8724586345029 1.0
C      1  0.3139220153442  0.1048891952630  0.4222419721154 1.0
C      1  0.7560772188341  0.2215079900814  0.4081834224001 1.0
C      1  0.3606708048147  0.7778406699007  0.6220457520176 1.0
C      1  0.2855256303862  0.2951293976743  0.6910897938352 1.0
C      1  0.3275048204907  0.6872671464352  0.2488364542114 1.0
C      1  0.3685953744131  0.9573300272868  0.5855415545438 1.0
C      1  0.5346197472870  0.1736762596232  0.3632202351427 1.0
C      1  0.6863338293791  0.3545729240247  0.3954216791349 1.0
C      1  0.1263354952889  0.6523775529052  0.4430008650696 1.0
C      1  0.6837172219656  0.7726020589599  0.7026542330602 1.0
C      1  0.2260555548801  0.2732187818047  0.2596420416877 1.0
C      1  0.4307304715427  0.2170182199085  0.3561213101143 1.0
C      1  0.3831616448298  0.3427778187912  0.2727326469314 1.0
C      1  0.6269318661594  0.7893464746740  0.7835981251338 1.0
C      1  0.2516007611462  0.7582437290364  0.3836483620368 1.0
C      1  0.3161802985147  0.6841299981260  0.3469607053203 1.0
C      1  0.4947489000194  0.6892139380160  0.8364663507304 1.0
C      1  0.5932698587369  0.8617434657011  0.3110913009149 1.0
C      1  0.6223609036199  0.1891566061232  0.5959740600668 1.0
C      1  0.4496747018965  0.4489653964820  0.8665390307415 1.0
C      1  0.5959979842070  0.6773859939084  0.3765014793984 1.0
C      1  0.7516253495733  0.7415987324597  0.5815844683994 1.0
C      1  0.6008191442683  0.4413014092617  0.8523397402131 1.0
C      1  0.3521644036262  0.4391874124307  0.5238183060981 1.0
C      1  0.2705357930474  0.1607728030126  0.3536190276993 1.0
C      1  0.5241659298316  0.5894084607464  0.5432223079663 1.0
C      1  0.7057457138959  0.6020570534244  0.8169674891330 1.0
C      1  0.6916259928881  0.4557540478418  0.4201423973246 1.0
C      1  0.5645207125073  0.8556086044849  0.4716569276965 1.0
C      1  0.4151779764450  0.7123266984258  0.7975410962961 1.0
C      1  0.8612698947913  0.5580602662052  0.4843592656331 1.0
C      1  0.1142510603794  0.4705357883798  0.5973941338942 1.0
C      1  0.8139911655290  0.5591312386037  0.3257650729695 1.0
C      1  0.3858787301031  0.7971869838871  0.7555148035435 1.0
C      1  0.8750268156764  0.4202667616954  0.4054256295519 1.0
C      1  0.3391329528017  0.6140851366987  0.1944511264269 1.0
C      1  0.3908073947978  0.2790554743190  0.4221068615211 1.0
C      1  0.5755145800560  0.5559876237844  0.2041763836388 1.0
C      1  0.6525777807316  0.7491364242989  0.3925026969480 1.0
C      1  0.3710676639526  0.1385706961905  0.5976921723650 1.0
C      1  0.4879621020518  0.5464578682422  0.1689252647376 1.0
C      1  0.2526418287932  0.1432214841261  0.4893071691592 1.0
C      1  0.1655769782035  0.2816422968333  0.4117026481519 1.0
C      1  0.2946371064461  0.5286741776081  0.2028548947020 1.0
C      1  0.2066968317889  0.1955143106921  0.4171394992532 1.0
C      1  0.5395619587527  0.4421715630339  0.4730239956646 1.0
C      1  0.4645407613570  0.6052314040828  0.4640320198913 1.0
C      1  0.5214226503371  0.7880276078519  0.5221342680081 1.0
C      1  0.4351153249751  0.0195561450472  0.5031525154856 1.0
C      1  0.3929908197658  0.6725222308203  0.6386455714627 1.0
C      1  0.8519013502091  0.3874842562196  0.7207224649880 1.0
C      1  0.5527338101624  0.2595443441742  0.2192218220287 1.0
C      1  0.5653505380424  0.3502840979912  0.8416954710344 1.0
C      1  0.7502825205822  0.4866778617472  0.5870309711637 1.0
C      1  0.4004813269598  0.4922236933742  0.3472887365164 1.0
C      1  0.4733366058871  0.3597884926590  0.8245964988713 1.0
C      1  0.6935183107443  0.2763205689826  0.4615846128199 1.0
C      1  0.2216792163334  0.6467021265527  0.4658821570908 1.0
C      1  0.5616397435119  0.2510262466323  0.3192966791811 1.0
C      1  0.7947464828230  0.2131683755584  0.2005774174579 1.0
C      1  0.4149476740412  0.7177637262427  0.3536333191148 1.0
C      1  0.2943431723663  0.2088905078113  0.2764257424855 1.0
C      1  0.5773425493381  0.8087267457157  0.2316789142287 1.0
C      1  0.3749572341369  0.3327662040568  0.6726056989979 1.0
C      1  0.1992488247887  0.5802262278673  0.7106417568006 1.0
C      1  0.4156271670395  0.2839937327221  0.5203562527412 1.0
C      1  0.6143692011374  0.4804027873079  0.2596069907205 1.0
C      1  0.6225602937114  0.8414673814264  0.3955348019816 1.0
C      1  0.1958243864866  0.4099127286241  0.2718447501516 1.0
C      1  0.6599948551829  0.6065239967143  0.3531669295907 1.0
C      1  0.4708852254870  0.7047464313981  0.1846501249385 1.0
C      1  0.4461515485358  0.3526975005960  0.7262810993321 1.0
C      1  0.5325864608278  0.8314132809899  0.6529349576146 1.0
C      1  0.5474480308618  0.3542326853169  0.4572563682112 1.0
C      1  0.6884843035390  0.4119205266278  0.6116710746391 1.0
C      1  0.4010634910645  0.8138220394347  0.3931093713506 1.0
C      1  0.3957826812636  0.0458230901562  0.5869022022989 1.0
C      1  0.5447681302239  0.4203269085548  0.3106406234716 1.0
C      1  0.5461692345576  0.4895380434746  0.3862689376724 1.0
C      1  0.5354580535487  0.5968276215450  0.8220082896945 1.0
C      1  0.4498180836705  0.4222018807203  0.2745071213539 1.0
C      1  0.2268933044068  0.7383245158417  0.7144694425098 1.0
C      1  0.6282190634843  0.2144589580449  0.7599865492822 1.0
C      1  0.3094295009452  0.8056026768978  0.4419606393725 1.0
C      1  0.5168059538602  0.2876108501987  0.5150169627768 1.0
C      1  0.4981748869575  0.6506127307811  0.6293030873193 1.0
C      1  0.8274702660146  0.6720675566751  0.6045932253524 1.0
C      1  0.4737027268282  0.5541076528898  0.3785136466234 1.0
C      1  0.5260346294265  0.5821120184704  0.7133253169171 1.0
C      1  0.3476506932101  0.4585254719159  0.1690489565753 1.0
C      1  0.8335832465651  0.6049424323176  0.6728854266423 1.0
C      1  0.3246537976139  0.3717276780011  0.1943864132698 1.0
C      1  0.7460803070391  0.7201060643553  0.4002075370032 1.0
C      1  0.1775330994845  0.6704435304965  0.6970526080859 1.0
C      1  0.3690589549658  0.5977747619126  0.4842094056541 1.0
C      1  0.6243203386922  0.3087633941006  0.1869384806824 1.0
C      1  0.6033600440002  0.8455682598796  0.7194196989113 1.0
C      1  0.7009160309910  0.3572072942878  0.2025030459844 1.0
C      1  0.4591740881501  0.5085054272441  0.7027970566841 1.0
C      1  0.3681117907071  0.6423687447877  0.7373792369869 1.0
C      1  0.3015716597779  0.7872361179532  0.7057644142829 1.0
C      1  0.3778210582478  0.5455539308973  0.7235196843357 1.0
C      1  0.4323533168400  0.6240734048809  0.1583484177734 1.0
C      1  0.6278142477990  0.1754766555243  0.6862147698688 1.0
C      1  0.7060672551059  0.3561132488087  0.7768135588003 1.0
C      1  0.0815439637917  0.5333142541490  0.5376363700237 1.0
C      1  0.8967788697322  0.5510336535457  0.7081830961305 1.0
C      1  0.6948102168607  0.5299828903380  0.7497770780459 1.0
C      1  0.8248478321337  0.1394111050229  0.1686836320774 1.0
C      1  0.7061117214947  0.6188610016098  0.2537068822737 1.0
C      1  0.4986981113492  0.4253033518059  0.6808895432833 1.0
C      1  0.4220265177678  0.8371845955760  0.2918509974894 1.0
C      1  0.3433159385850  0.5287905545721  0.5495827297768 1.0
C      1  0.4067316091548  0.7485885527142  0.2469071740323 1.0
C      1  0.3544327397058  0.3485432827511  0.3753724336502 1.0
C      1  0.5839447780133  0.3393967916075  0.3633676573553 1.0
C      1  0.8158037778500  0.3253743051485  0.5392669680605 1.0
C      1  0.7550624243962  0.6415569603586  0.3406022853681 1.0
C      1  0.1603880797761  0.4977009572174  0.6823231802003 1.0
C      1  0.2399136481469  0.2450183015218  0.6218384439473 1.0
C      1  0.3979858875898  0.2403384516906  0.2638761790453 1.0
C      1  0.8395135281329  0.4821890106952  0.5410577175248 1.0
C      1  0.5919371621496  0.4534820486345  0.6381933805774 1.0
C      1  0.5075501527138  0.8646910698688  0.2683721385329 1.0
C      1  0.3454541476010  0.4366037492287  0.4181712523087 1.0
END
