TITL C-21341-1065-2 4.453 3375.00 -4051.39973900 0 0 494 (C1) n - 1
REM
REM Run started: at 2020.10.17 17:03:49 in /rds/project/t2_vol4/rds-t2-cs072/BORA/CARBON/AIRSS/Generating-Clusters/Str-Search
REM VASP from code version vasp.5.4.4.18Apr17-6-g9f103f2a35 (build Oct 11 2019 16:45:47) gamma-only
REM
REM
REM
REM
REM ./C.cell (8c8f32957ea4b25f9ffc41644e092d35)
REM AIRSS Version 0.9.1 bugfix July 2018 build 013d7b7c2542+ Fri, 06 Jul 2018 19:26:36 +0100
REM compiler GCC version 4.8.5 20150623 (Red Hat 4.8.5-39)
REM options -cpp -mtune=generic -march=x86-64 -g -O0
REM seed 741074775 -1182176963 -991171978 1650160531 -2103134249 1340908373 94037996 -829629901 -156470508 -2144568098 1220609075 1180636610
REM
REM C.POTCAR (d86ddea03c3ceb6dc662c8ad6801f873)
REM 
CELL 1.54180   15.00000   15.00000   15.00000   90.00000   90.00000   90.00000
LATT -1
SFAC C  
C      1  0.7912977736109  0.2886596365974  0.5607810338845 1.0
C      1  0.7443663133644  0.6836879504480  0.9431455710359 1.0
C      1  0.4578635544151  0.5211952976066  0.5596755993203 1.0
C      1  0.8411075623825  0.3778402417228  0.1135342215104 1.0
C      1  0.6676444997809  0.7502334606636  0.3287567780154 1.0
C      1  0.0494700987458  0.4494310507291  0.7808743609757 1.0
C      1  0.1946556640761  0.5927079526954  0.2887365988035 1.0
C      1  0.7989152703875  0.0601088005690  0.8372387718844 1.0
C      1  0.3159701081585  0.4382842045860  0.0090600391505 1.0
C      1  0.8345446799706  0.8389056817804  0.7192669604236 1.0
C      1  0.6133546477835  0.9006234034193  0.9731719324045 1.0
C      1  0.9738320797020  0.5118216160491  0.6404169722790 1.0
C      1  0.9029339858557  0.2516286735293  0.6902589900261 1.0
C      1  0.6985394803845  0.9691758378627  0.4634983229416 1.0
C      1  0.6949983409703  0.3788218006118  0.4877265209022 1.0
C      1  0.5965505231299  0.2341283713360  0.2966295975970 1.0
C      1  0.6133827528607  0.6900048563255  0.7018258971812 1.0
C      1  0.7134883795593  0.9099734421408  0.1129922020458 1.0
C      1  0.2197188305993  0.9416420227332  0.7107599205125 1.0
C      1  0.5127457813815  0.5175763445541  0.3202483018170 1.0
C      1  0.3325025512622  0.5398534251052  0.0204352593555 1.0
C      1  0.5026357086556  0.6737602600187  0.1358078266418 1.0
C      1  0.5999759031548  0.3675036393165  0.4964458825317 1.0
C      1  0.6232860812535  0.5275157475534  0.4806439840855 1.0
C      1  0.0360086295863  0.5512363872294  0.7558137195432 1.0
C      1  0.0138406974284  0.7496635385125  0.7092619538629 1.0
C      1  0.2517816722796  0.8627364805052  0.8630073813208 1.0
C      1  0.2542478730656  0.4532433678508  0.3330465559287 1.0
C      1  0.1435029742432  0.3412731106562  0.8616783969355 1.0
C      1  0.0391430205092  0.8692078085560  0.5933822045541 1.0
C      1  0.4907452440636  0.3059146855108  0.4169603505942 1.0
C      1  0.8712669592689  0.2928862572611  0.1452217887355 1.0
C      1  0.9280621916872  0.5991713775348  0.6068727209463 1.0
C      1  0.1137670135885  0.1334287366819  0.6875670637776 1.0
C      1  0.7154939854758  0.9534173884254  0.7579059221386 1.0
C      1  0.6716466860160  0.6319101655951  0.2591105179489 1.0
C      1  0.4360211472063  0.3555187263141  0.2747077213244 1.0
C      1  0.3889907854517  0.5723587588874  0.7866062508810 1.0
C      1  0.8169857377731  0.0440688789377  0.4193766214414 1.0
C      1  0.5198843642662  0.6718133916469  0.2848145854246 1.0
C      1  0.1240425351235  0.3887376247495  0.0786334718995 1.0
C      1  0.9465055636384  0.3112945668634  0.3856289434708 1.0
C      1  0.7456045312051  0.7012640978810  0.7978884835016 1.0
C      1  0.0119785710895  0.4372130628223  0.3203165337871 1.0
C      1  0.4225927131124  0.0422711390105  0.5136319530796 1.0
C      1  0.3610392300574  0.7111751032567  0.0610163280289 1.0
C      1  0.4442291465101  0.0730830230446  0.2420333058389 1.0
C      1  0.8962782559390  0.7564596055595  0.5262888991908 1.0
C      1  0.4908895603469  0.6990242111826  0.8083219124634 1.0
C      1  0.6438058462303  0.4491071724374  0.7258787687213 1.0
C      1  0.5812362762097  0.3812136363956  0.5931266152402 1.0
C      1  0.3914658726351  0.0433961921190  0.8787727866512 1.0
C      1  0.7879562237655  0.4498564699552  0.2598719224055 1.0
C      1  0.2223807277468  0.9581500818229  0.6158198491085 1.0
C      1  0.3887171511155  0.4151069618367  0.0797242750745 1.0
C      1  0.2831894731156  0.1002451370332  0.3930265471927 1.0
C      1  0.0242942705363  0.7066091952655  0.7865555118400 1.0
C      1  0.7356020919018  0.1648123471657  0.7176887596734 1.0
C      1  0.1858272970011  0.2126776931905  0.3844160763114 1.0
C      1  0.0723374798449  0.2555663364340  0.4911497642788 1.0
C      1  0.9414216904948  0.1444482787857  0.4076084835247 1.0
C      1  0.8859688807655  0.7999318696237  0.7896411027002 1.0
C      1  0.7256654627375  0.6609979132158  0.3301676168295 1.0
C      1  0.9698377022346  0.4352918697013  0.1564811224688 1.0
C      1  0.6817077840806  0.1695456866392  0.5669023349209 1.0
C      1  0.8792239917527  0.2416796184178  0.0726748662970 1.0
C      1  0.7244233280927  0.1572067680326  0.1554568830491 1.0
C      1  0.6424151398146  0.8948941369524  0.7263310589475 1.0
C      1  0.9642507157330  0.4578560403093  0.4081196284100 1.0
C      1  0.8223627689766  0.3554067527736  0.2935236375294 1.0
C      1  0.8378728508735  0.5378332667367  0.0745629476222 1.0
C      1  0.4129277238712  0.8492633984897  0.8479019990384 1.0
C      1  0.4910476739452  0.3984975957257  0.6270801745735 1.0
C      1  0.1745028345711  0.5320432685479  0.9748148358482 1.0
C      1  0.6610859993664  0.0345351967333  0.7434937087637 1.0
C      1  0.4599513755300  0.6322511757638  0.4354127684238 1.0
C      1  0.5392274877110  0.6730266026271  0.4808838764902 1.0
C      1  0.9412873883302  0.3109808624053  0.8084282774352 1.0
C      1  0.8115946415071  0.9004242661723  0.3407790135915 1.0
C      1  0.9069900591674  0.2085546840885  0.2612584612552 1.0
C      1  0.4432906439634  0.5071306854033  0.7320096662034 1.0
C      1  0.1933911917509  0.5464477744130  0.1344429772493 1.0
C      1  0.7805150980707  0.8819311149067  0.8906174947925 1.0
C      1  0.3606798158813  0.0324427112866  0.7160529745534 1.0
C      1  0.4852928014637  0.9647362992245  0.7630480437731 1.0
C      1  0.8463583128389  0.3210034615868  0.6858719872292 1.0
C      1  0.7188553651679  0.4103092992005  0.5791022012504 1.0
C      1  0.5959348730009  0.0534316071592  0.2094694950293 1.0
C      1  0.9749964293089  0.5531125280164  0.4248482995485 1.0
C      1  0.5529110387698  0.4654493647509  0.0358924566898 1.0
C      1  0.7887705348087  0.6708524595283  0.7174456047285 1.0
C      1  0.0570953665275  0.6171447286907  0.3263396428038 1.0
C      1  0.2761938318561  0.7180244317607  0.8759716002313 1.0
C      1  0.2251985907058  0.1351856512721  0.2401318288339 1.0
C      1  0.9453959895535  0.4360901715305  0.2531394398105 1.0
C      1  0.2429924799233  0.8919242356369  0.5509308338794 1.0
C      1  0.7816194376242  0.2208807685151  0.8590452037503 1.0
C      1  0.0562504494094  0.4735731335554  0.1771830187658 1.0
C      1  0.5803875441896  0.7106810142661  0.8442303396385 1.0
C      1  0.1096522797648  0.2376878890012  0.5848639265658 1.0
C      1  0.4084735031369  0.5916182144190  0.5172356219954 1.0
C      1  0.3952734099130  0.7681937143659  0.3417928098427 1.0
C      1  0.3639288651004  0.3199184117286  0.3353949969850 1.0
C      1  0.1597853151633  0.7293463792152  0.0801779801568 1.0
C      1  0.6244293322127  0.8621662296415  0.0707887749798 1.0
C      1  0.4581269450561  0.3361527059882  0.5634829505866 1.0
C      1  0.9478808805827  0.3522832329567  0.5681031946449 1.0
C      1  0.0647803091541  0.7035354093651  0.5514349072035 1.0
C      1  0.4064219617505  0.3521559255709  0.8431359133433 1.0
C      1  0.2342985452779  0.7303000810518  0.1572656549269 1.0
C      1  0.8406216925616  0.0120493235997  0.6739946072432 1.0
C      1  0.7284274568843  0.2948458382561  0.0371598560114 1.0
C      1  0.4935159948711  0.1245797312435  0.7566385178064 1.0
C      1  0.5769799573938  0.8330608573200  0.5123004648019 1.0
C      1  0.7128231028802  0.0887390400597  0.8787763053230 1.0
C      1  0.3001999884951  0.7890485989153  0.3043798409310 1.0
C      1  0.6133963052931  0.0585039182733  0.1088672791098 1.0
C      1  0.2726481953802  0.1807518180538  0.4443929380133 1.0
C      1  0.5889403368409  0.8854137276726  0.2438550052080 1.0
C      1  0.4558082927046  0.2706711954344  0.2220445779179 1.0
C      1  0.5138661207096  0.1695913635560  0.5724877272447 1.0
C      1  0.6221441229190  0.2139248178129  0.9466345704721 1.0
C      1  0.7081962853461  0.6227771759520  0.4184621218909 1.0
C      1  0.7230761089123  0.4852659968962  0.1917019620785 1.0
C      1  0.6845209782606  0.6182338797578  0.6934272229840 1.0
C      1  0.8116262720199  0.0927537613800  0.3287159159713 1.0
C      1  0.1542246119565  0.5635450894025  0.6094649806100 1.0
C      1  0.4697889885014  0.4139653056599  0.0132449529171 1.0
C      1  0.0560106868586  0.8346889202000  0.2589130055515 1.0
C      1  0.4360719794317  0.2634065285563  0.9777189668519 1.0
C      1  0.3607749322962  0.1106977668007  0.6528223873445 1.0
C      1  0.3212366409209  0.4009569667789  0.3932782701092 1.0
C      1  0.0519361170245  0.7612264346248  0.2030512169075 1.0
C      1  0.6971254042333  0.4126484389774  0.2545035159131 1.0
C      1  0.5951986550005  0.3576302413020  0.1712912442161 1.0
C      1  0.1203718397706  0.8414537145309  0.6385772322624 1.0
C      1  0.3332648810014  0.9063511689783  0.5175337747222 1.0
C      1  0.1440058775737  0.4940023073754  0.0592304860560 1.0
C      1  0.6298401824136  0.1003783152793  0.4504099171024 1.0
C      1  0.6186598642737  0.7619563488791  0.0296655596288 1.0
C      1  0.2532732216194  0.5540292046517  0.6374157816340 1.0
C      1  0.4977300667412  0.6099560677191  0.2086186427045 1.0
C      1  0.8972186967079  0.2360770388814  0.4305187502940 1.0
C      1  0.9902405967462  0.4123549000798  0.6384826379807 1.0
C      1  0.0663880984922  0.7235156147439  0.1167279026937 1.0
C      1  0.7334347045517  0.4202551886094  0.7624254347532 1.0
C      1  0.2584261596137  0.5877548717232  0.9754468541683 1.0
C      1  0.4729545431849  0.1117272242027  0.0026377391126 1.0
C      1  0.2690355120538  0.6223882506475  0.4362433718962 1.0
C      1  0.2919573232460  0.9379375934200  0.2065509197543 1.0
C      1  0.5282677196170  0.6052704351358  0.3639457550702 1.0
C      1  0.1442458512965  0.8750191643882  0.7314199625102 1.0
C      1  0.1717807918462  0.4901028576558  0.5432310369723 1.0
C      1  0.2699960736367  0.9841166940563  0.2837067703600 1.0
C      1  0.0427291135499  0.6296824265776  0.1559304790932 1.0
C      1  0.5023258709155  0.3647785944181  0.3404454813932 1.0
C      1  0.6731600399908  0.6118368772910  0.9215006399645 1.0
C      1  0.4234120791631  0.6870407731276  0.6740446802944 1.0
C      1  0.0605814061696  0.8488420714286  0.3397754552439 1.0
C      1  0.5873998552958  0.5652093119696  0.0524567927110 1.0
C      1  0.7230744303288  0.2431087486034  0.7793450597297 1.0
C      1  0.5806285922563  0.8213616555733  0.6102115885070 1.0
C      1  0.6435760549026  0.1096433772705  0.3568124918976 1.0
C      1  0.4645633943846  0.4610302073779  0.4782059772698 1.0
C      1  0.8919012476296  0.4425191604977  0.8619318934807 1.0
C      1  0.3296792089334  0.7285940727482  0.7917770781820 1.0
C      1  0.6420172628081  0.4508330020980  0.6229488335233 1.0
C      1  0.7901142333135  0.5316501433619  0.6328205621497 1.0
C      1  0.6003074925214  0.7241537162991  0.6127447925057 1.0
C      1  0.6060905065023  0.6160277252193  0.4340304660260 1.0
C      1  0.6693032898279  0.0399787608145  0.2835872764642 1.0
C      1  0.1692311091040  0.6215137651779  0.4551396857505 1.0
C      1  0.4340612743368  0.7865387920151  0.6988245268029 1.0
C      1  0.9737668463289  0.2777531586533  0.2779555034638 1.0
C      1  0.8749647630500  0.7672176518008  0.2647236810898 1.0
C      1  0.5532611269739  0.1526559024099  0.3302040924795 1.0
C      1  0.2819323054310  0.8045550861276  0.9369972986220 1.0
C      1  0.6163516201813  0.2360280333974  0.7876287495785 1.0
C      1  0.6549932898769  0.3805967886815  0.9204595142792 1.0
C      1  0.5930945302672  0.2411683525872  0.6916909418702 1.0
C      1  0.4064780509999  0.6955673717842  0.1462349039018 1.0
C      1  0.5313268294861  0.1220601629030  0.2377944068033 1.0
C      1  0.8329728284985  0.5022272420928  0.8945583708281 1.0
C      1  0.8289720035433  0.2666526647745  0.2305166165030 1.0
C      1  0.9264545163304  0.2206596819882  0.7805910156105 1.0
C      1  0.6953562008054  0.2318485240150  0.3027375448969 1.0
C      1  0.2893557719049  0.7746346490639  0.0877450527732 1.0
C      1  0.1850290372429  0.8129581887439  0.8018245101823 1.0
C      1  0.4121973968376  0.7865139831375  0.1889933358307 1.0
C      1  0.9623598033607  0.9212531685036  0.5646693542010 1.0
C      1  0.1295642934638  0.2454595229030  0.2156472427599 1.0
C      1  0.2662010427195  0.9455205755355  0.3798542810519 1.0
C      1  0.7200568851716  0.3236861212774  0.6270716311234 1.0
C      1  0.7028943375521  0.7738438088837  0.9799564595780 1.0
C      1  0.1572795428837  0.6529998909441  0.5509264865605 1.0
C      1  0.8333788020081  0.5240935750067  0.3154999214056 1.0
C      1  0.5672015317046  0.8441926784121  0.7678373984605 1.0
C      1  0.5396657871181  0.1570201671287  0.9208065289199 1.0
C      1  0.1205821812170  0.1818004530345  0.4494308580357 1.0
C      1  0.3419595120379  0.1869871177013  0.7181055337931 1.0
C      1  0.3401741746121  0.8532422320261  0.2329414262633 1.0
C      1  0.3075829562188  0.3548437957854  0.8555235194600 1.0
C      1  0.5341707927617  0.7101307244098  0.9910787780854 1.0
C      1  0.5048140242829  0.8941649853162  0.8340803086726 1.0
C      1  0.7434761705868  0.3526500593145  0.9557800940522 1.0
C      1  0.0935728490297  0.5452298731630  0.1294714491960 1.0
C      1  0.5122869971484  0.6295293354853  0.0475309138114 1.0
C      1  0.9316873832136  0.6092763213533  0.1905575107803 1.0
C      1  0.6787356503493  0.7110179385676  0.5603182602724 1.0
C      1  0.3803550073339  0.8619557011561  0.6639361716060 1.0
C      1  0.9845166844333  0.3752140489803  0.4651727196563 1.0
C      1  0.4629181833319  0.9766164274895  0.2839266671096 1.0
C      1  0.4091926256768  0.8465333918568  0.4010691795997 1.0
C      1  0.3865693691387  0.4396622613449  0.2474250818687 1.0
C      1  0.0339461798937  0.5592056723780  0.4935761852213 1.0
C      1  0.6638130082948  0.8256602793876  0.3968221306985 1.0
C      1  0.2051932794130  0.4675410782092  0.7476312833550 1.0
C      1  0.6729389770985  0.9743337780744  0.5927767778548 1.0
C      1  0.1829499732854  0.2396017904979  0.1354778756153 1.0
C      1  0.5267719194164  0.6646235855980  0.5744689939513 1.0
C      1  0.4512328861936  0.3668237150954  0.4838140264082 1.0
C      1  0.1929936206724  0.9154762180866  0.4525201428585 1.0
C      1  0.0857759923012  0.4258559528327  0.8722622623110 1.0
C      1  0.4381954224543  0.5820080959095  0.9891154941971 1.0
C      1  0.2693704291450  0.1864945835445  0.5512470919036 1.0
C      1  0.7404604022087  0.1665008668756  0.3584616533482 1.0
C      1  0.8600641757874  0.8217965949676  0.3432019948571 1.0
C      1  0.4130209168497  0.2511452593760  0.3971340918253 1.0
C      1  0.6368120270055  0.0704449741448  0.8228329155091 1.0
C      1  0.8988601091479  0.4645632109388  0.7660936306964 1.0
C      1  0.7839236681085  0.8749150583276  0.1781326845091 1.0
C      1  0.4248234403534  0.4739537147191  0.6373733365574 1.0
C      1  0.6239075247812  0.5357214324950  0.5780264826586 1.0
C      1  0.5372318792175  0.5231411044426  0.2275352461272 1.0
C      1  0.9014915854666  0.8124268688081  0.4289273397776 1.0
C      1  0.3870734838492  0.1289391688162  0.2927040307342 1.0
C      1  0.0608012505527  0.2805587314486  0.6565759601849 1.0
C      1  0.5267349697608  0.1030799068082  0.6535653605451 1.0
C      1  0.1332641304087  0.3747816414595  0.3867287975033 1.0
C      1  0.3741698746351  0.2058703311370  0.2343182109828 1.0
C      1  0.9789735977184  0.1648031311133  0.5707653636730 1.0
C      1  0.4858735557047  0.9412671799884  0.6067965507482 1.0
C      1  0.7053642460423  0.4493204377575  0.1007906187701 1.0
C      1  0.5420954963008  0.2203263741067  0.2202977873392 1.0
C      1  0.3092684190535  0.1835350738171  0.9566806460026 1.0
C      1  0.9277101070526  0.0802296816156  0.5532755086131 1.0
C      1  0.7522625459916  0.0954308173586  0.5538283369551 1.0
C      1  0.0704113106537  0.8262450338438  0.4324331996118 1.0
C      1  0.2598363040966  0.1397812764208  0.7687619570855 1.0
C      1  0.7921750558935  0.9460986631724  0.4305682284651 1.0
C      1  0.3981996646368  0.6517906773641  0.9296785194644 1.0
C      1  0.5656630197486  0.4502247209151  0.1881077820697 1.0
C      1  0.2375966718249  0.7375841665528  0.2520679931774 1.0
C      1  0.7575710268319  0.0681214887051  0.1648036803087 1.0
C      1  0.4410800813922  0.9094914688190  0.9796264992291 1.0
C      1  0.2921130168965  0.3301555174984  0.1963452347773 1.0
C      1  0.5295846020074  0.4733685673647  0.8788321372682 1.0
C      1  0.2600713615181  0.0342606504107  0.7460231889310 1.0
C      1  0.7152285111670  0.4324244490181  0.4061179012660 1.0
C      1  0.1239736847203  0.2451374228439  0.8136664748054 1.0
C      1  0.2996857369717  0.0215981152195  0.4246356363906 1.0
C      1  0.5318431701691  0.2880643802589  0.1552053124959 1.0
C      1  0.0632269169810  0.5650878741326  0.6518273791651 1.0
C      1  0.7025054846405  0.0023551636460  0.1122311755243 1.0
C      1  0.3714303011293  0.4945077543920  0.1600519689295 1.0
C      1  0.1076138231756  0.6736997059606  0.3922434506364 1.0
C      1  0.0863309055302  0.3806000108952  0.6401829980718 1.0
C      1  0.3987060032432  0.6004061945172  0.1975896812511 1.0
C      1  0.4114815225137  0.5050541491543  0.3227944550657 1.0
C      1  0.6376340209847  0.2309719281641  0.0430583616326 1.0
C      1  0.1719112942962  0.8204273115576  0.4538468492473 1.0
C      1  0.8946338090703  0.8572678325711  0.5206858869541 1.0
C      1  0.3326286008844  0.0040669767757  0.5107495048394 1.0
C      1  0.5075493338861  0.9837889912742  0.5189552159468 1.0
C      1  0.9398355593176  0.7243941400137  0.4434998647030 1.0
C      1  0.3398008650422  0.2556056403878  0.4624920698923 1.0
C      1  0.1624816807975  0.4734293574129  0.3845193844509 1.0
C      1  0.0857698825707  0.4692140695226  0.2660805797565 1.0
C      1  0.5869291263013  0.3092621406364  0.9210627191995 1.0
C      1  0.0446763492486  0.9065903816799  0.4991838632669 1.0
C      1  0.1288978687488  0.4918818038161  0.9118948286669 1.0
C      1  0.2052372899540  0.3089257214096  0.3907026106818 1.0
C      1  0.7437812856894  0.3603196951330  0.1085032453480 1.0
C      1  0.4579214007328  0.2672226463065  0.8291659228839 1.0
C      1  0.3425633097214  0.1609600140818  0.1470335562107 1.0
C      1  0.1182306464445  0.1160252803819  0.5116805823552 1.0
C      1  0.2738217662801  0.3349437397202  0.4555372589380 1.0
C      1  0.6523429835533  0.7193291042803  0.7880607346460 1.0
C      1  0.0745521848206  0.6717730489243  0.2432378954563 1.0
C      1  0.5847173146916  0.2799869747847  0.4486029607884 1.0
C      1  0.9680512730439  0.2592066184196  0.6194921583663 1.0
C      1  0.4374890990442  0.8050284325461  0.4877629583780 1.0
C      1  0.6035518213021  0.4605875190427  0.9516690163767 1.0
C      1  0.7282532524144  0.6775502546851  0.1034346903647 1.0
C      1  0.6323076038321  0.9534295898997  0.3096844656516 1.0
C      1  0.2616186362324  0.7793067906271  0.7356712453164 1.0
C      1  0.3377588495180  0.2631750422602  0.0083656421327 1.0
C      1  0.1234151582447  0.4187125422857  0.7218948347850 1.0
C      1  0.3906244359825  0.1265403804936  0.9300299909410 1.0
C      1  0.4535700932985  0.2069100736887  0.9037836365466 1.0
C      1  0.3566373994692  0.5819635411359  0.2877961660111 1.0
C      1  0.3525306659809  0.6480475182587  0.7350045630666 1.0
C      1  0.3598467558545  0.3283435327320  0.1302739664274 1.0
C      1  0.9327430929849  0.7185214775450  0.7554512012606 1.0
C      1  0.3897904256566  0.8274958724318  0.9443825064116 1.0
C      1  0.3161504798993  0.3311300862121  0.6156391080241 1.0
C      1  0.8215771396825  0.7073333602392  0.1157603369043 1.0
C      1  0.5328551932501  0.5619159576873  0.7143646773190 1.0
C      1  0.0705287540791  0.6263140694723  0.8041509502198 1.0
C      1  0.4684036123344  0.8658275578506  0.1454697637239 1.0
C      1  0.7055257132824  0.4464692670506  0.8606957557975 1.0
C      1  0.6097944229501  0.7068871726041  0.2541933305031 1.0
C      1  0.8015775620944  0.3848080242536  0.3927766847792 1.0
C      1  0.6939061785586  0.3332310386055  0.1901474496892 1.0
C      1  0.5298522801009  0.7670293219339  0.4626322696952 1.0
C      1  0.0835104296513  0.3537763921542  0.4729069342083 1.0
C      1  0.2450273998522  0.2207123330034  0.9084814722076 1.0
C      1  0.6063809345199  0.0346575160514  0.6584472275579 1.0
C      1  0.5621601580707  0.4528667707433  0.4534274449665 1.0
C      1  0.7681893853750  0.4519642045814  0.9471531066063 1.0
C      1  0.6890300458700  0.5491012411194  0.8400791431567 1.0
C      1  0.6512513000524  0.6089941290664  0.1151617240473 1.0
C      1  0.2316036600561  0.3194223657100  0.9185530364159 1.0
C      1  0.7199628974664  0.0623365288813  0.4692740993436 1.0
C      1  0.2092963486128  0.1077601454049  0.6915482549174 1.0
C      1  0.2275617975973  0.7910997541311  0.0240765981621 1.0
C      1  0.2200922308630  0.6415030399054  0.1108962347726 1.0
C      1  0.7894199106524  0.2187645224109  0.4383536460179 1.0
C      1  0.8075844085344  0.9071351315942  0.5254187777710 1.0
C      1  0.4563064135215  0.2471007853150  0.5938555951059 1.0
C      1  0.1191391410694  0.9651748569847  0.4799222782099 1.0
C      1  0.7685875374165  0.3143253042323  0.4633461651015 1.0
C      1  0.0488865298821  0.7734714586802  0.6227045427583 1.0
C      1  0.5668007166913  0.8434855749257  0.1538730773083 1.0
C      1  0.4221560264514  0.6729105971707  0.5765602620988 1.0
C      1  0.7771213734250  0.1908265473962  0.5349313482600 1.0
C      1  0.7951711478125  0.7185978975769  0.8742264395546 1.0
C      1  0.2244113907860  0.5632731585474  0.7882145086062 1.0
C      1  0.5299466077672  0.9105302239532  0.9320632471818 1.0
C      1  0.1866326752499  0.3735130888825  0.7786287073567 1.0
C      1  0.9200728095873  0.5327688506162  0.2652866625198 1.0
C      1  0.9402238899507  0.5469977806897  0.7344592810646 1.0
C      1  0.7583036657275  0.7563248119231  0.5955360074320 1.0
C      1  0.1338454428812  0.5274129612393  0.4648216679105 1.0
C      1  0.7207813337289  0.5240870314349  0.4451802999656 1.0
C      1  0.8944937553029  0.3492078262240  0.8786423019892 1.0
C      1  0.4399209228835  0.4281070110036  0.9093247200604 1.0
C      1  0.5304195081292  0.8347033136553  0.3094923650565 1.0
C      1  0.4891438283374  0.2620936584589  0.6878854128824 1.0
C      1  0.7849546804782  0.6743841866360  0.4594040699937 1.0
C      1  0.6498623767860  0.4011561827939  0.3380495378665 1.0
C      1  0.5119549959799  0.3246213866227  0.9936273220125 1.0
C      1  0.3269115064158  0.5473679343167  0.4806176301532 1.0
C      1  0.2704654115856  0.4687149020793  0.6779757592176 1.0
C      1  0.2512442009784  0.0316032993530  0.5637222826094 1.0
C      1  0.8028892384537  0.4926573921180  0.7371383743799 1.0
C      1  0.4486588764196  0.1571069846130  0.3711083028159 1.0
C      1  0.1681226516746  0.1927760386906  0.2845865263269 1.0
C      1  0.2967308400571  0.6281940745464  0.0550667449396 1.0
C      1  0.8422449283741  0.5926649394063  0.5654991408800 1.0
C      1  0.0844364555848  0.3767733405308  0.3025971433965 1.0
C      1  0.7344832234831  0.2425285762749  0.2142605867015 1.0
C      1  0.8604557149873  0.4704396913019  0.4054694522461 1.0
C      1  0.5432487620306  0.2631366061303  0.0656394597714 1.0
C      1  0.8554367259022  0.1570906055255  0.8173971506555 1.0
C      1  0.9001962653149  0.0770954220858  0.4639273956473 1.0
C      1  0.4182481198084  0.9201977443411  0.2165954012521 1.0
C      1  0.3206008725155  0.6397236128977  0.3545905790715 1.0
C      1  0.4376424046214  0.2098404279443  0.7512238612726 1.0
C      1  0.8108138265962  0.9345249549217  0.7311053612445 1.0
C      1  0.5104707754299  0.5705513553006  0.9015379902098 1.0
C      1  0.5593643109820  0.3057358681204  0.8283953236802 1.0
C      1  0.2817159420906  0.2679704787902  0.6854247578881 1.0
C      1  0.0772181685295  0.1454748165608  0.5951405082806 1.0
C      1  0.2694763990799  0.5108585179967  0.5503824111019 1.0
C      1  0.2081797834270  0.2515506842136  0.5910455509001 1.0
C      1  0.7704226446324  0.7192080454336  0.0288943863815 1.0
C      1  0.7921734616818  0.7656342638655  0.6821828433574 1.0
C      1  0.7427433971334  0.5045880209334  0.0279403546186 1.0
C      1  0.2416685971474  0.1609782514754  0.1509496354428 1.0
C      1  0.4178990984646  0.9520565248028  0.6869241125979 1.0
C      1  0.9008749543609  0.1382280945756  0.3164819970370 1.0
C      1  0.0187743474616  0.6211828894016  0.5746098653654 1.0
C      1  0.8190259554055  0.2939226988198  0.9162496575736 1.0
C      1  0.5538394422408  0.9740526984994  0.2523543058524 1.0
C      1  0.3815494854708  0.4796402965076  0.4171047662700 1.0
C      1  0.5579272459088  0.9582474744036  0.6922700846825 1.0
C      1  0.2119743046894  0.7228524660877  0.5892893796423 1.0
C      1  0.8921065412118  0.6364888643459  0.7102791128665 1.0
C      1  0.9649808908633  0.5959394891677  0.3333752069034 1.0
C      1  0.7354940069907  0.8434261617433  0.5571897573782 1.0
C      1  0.6376803966795  0.2989784093602  0.3559060486911 1.0
C      1  0.7025956871875  0.8626147895613  0.9379357990055 1.0
C      1  0.1432532483851  0.3940401197262  0.5551151060028 1.0
C      1  0.6412437344570  0.7091889183165  0.1090253795614 1.0
C      1  0.6269439130402  0.3085699653015  0.6371678087133 1.0
C      1  0.9253494933765  0.0060303770213  0.6124299954110 1.0
C      1  0.2334653141081  0.3417006372670  0.5534197687636 1.0
C      1  0.8670546129771  0.6157638277912  0.1163433571199 1.0
C      1  0.8294342371138  0.7879003360223  0.1832710875133 1.0
C      1  0.4243474843465  0.7364490734634  0.9784908168753 1.0
C      1  0.4806887963696  0.9043474308085  0.3677053871848 1.0
C      1  0.3083541846343  0.2715794693439  0.2696750429373 1.0
C      1  0.3891463887611  0.6912744317533  0.3973444451042 1.0
C      1  0.4647768936762  0.2018406766174  0.0506492522569 1.0
C      1  0.7568936070160  0.3285074664035  0.7250541989523 1.0
C      1  0.5798188207236  0.7831220042387  0.3768141044291 1.0
C      1  0.3492156302429  0.4146696460078  0.6671739539499 1.0
C      1  0.2630173182838  0.7918005947400  0.4093316975353 1.0
C      1  0.3770693108687  0.2348760811866  0.0937599170810 1.0
C      1  0.1853592165869  0.3201949385875  0.0732578032905 1.0
C      1  0.1623467180684  0.0362750253778  0.5172572714008 1.0
C      1  0.1895563811158  0.8115056506472  0.5578178398581 1.0
C      1  0.4139917293829  0.8711491978008  0.5659568855248 1.0
C      1  0.8153758168604  0.5123222557416  0.4929108302576 1.0
C      1  0.9159851821782  0.3546647405136  0.2994361959410 1.0
C      1  0.4043139015831  0.0679451178212  0.1488996092618 1.0
C      1  0.2696165364740  0.1107770699636  0.6110049188385 1.0
C      1  0.3650027001890  0.9750082298819  0.1458536851790 1.0
C      1  0.2648150470178  0.6225681622616  0.7030376833127 1.0
C      1  0.6676295592487  0.1778705048729  0.6573209097713 1.0
C      1  0.6631190529146  0.8798367450774  0.6268886489025 1.0
C      1  0.8202703896069  0.6985070822582  0.5457325503003 1.0
C      1  0.0510173162829  0.3767056282448  0.1452212988473 1.0
C      1  0.0432623249680  0.7297226066521  0.4515731672057 1.0
C      1  0.8057156063948  0.4508850600530  0.5748720230363 1.0
C      1  0.3557964774301  0.2483502146267  0.5613435118230 1.0
C      1  0.6803930971762  0.5707392530131  0.1982658892274 1.0
C      1  0.9023540804493  0.6691853149297  0.2698453233257 1.0
C      1  0.6353904535656  0.9262179952050  0.4038431023532 1.0
C      1  0.3211221634337  0.8740167504158  0.4225567874645 1.0
C      1  0.8550529314810  0.3614900415817  0.5932915129551 1.0
C      1  0.5805582045587  0.6510818111454  0.9167188523529 1.0
C      1  0.3777582919705  0.7363910080344  0.5174728933645 1.0
C      1  0.4190988473706  0.7691028801229  0.7944790879675 1.0
C      1  0.6061789179294  0.4296235130753  0.1055858197564 1.0
C      1  0.4130191320229  0.4040728430310  0.7528002266649 1.0
C      1  0.3051806927355  0.6294198547560  0.9050336146009 1.0
C      1  0.3360954389194  0.4545993164696  0.9000952075772 1.0
C      1  0.5443319562877  0.9174272431168  0.4504365829503 1.0
C      1  0.7879513939641  0.5487278905679  0.8218031289372 1.0
C      1  0.8393623340198  0.8051310880125  0.8711065438434 1.0
C      1  0.8569956351935  0.6688601664628  0.4074424210274 1.0
C      1  0.9683026641182  0.3957484613951  0.7434793641199 1.0
C      1  0.2708531323629  0.5401864366772  0.2749894397896 1.0
C      1  0.6354952741355  0.5465938074866  0.7509201180794 1.0
C      1  0.4435519012156  0.0987773528837  0.5940651487633 1.0
C      1  0.5771471043928  0.7425803048925  0.1680866388095 1.0
C      1  0.7718241392750  0.0069534787292  0.5980033369919 1.0
C      1  0.2341547489556  0.7110880657623  0.6737967437411 1.0
C      1  0.2611423317663  0.3403181175044  0.0097876980525 1.0
C      1  0.8235019785072  0.6321068053126  0.3221776585482 1.0
C      1  0.0869697368019  0.2184817773436  0.7332073757264 1.0
C      1  0.4651091091074  0.0874714233133  0.4364942000857 1.0
C      1  0.3251676989732  0.8894574206882  0.8152204298799 1.0
C      1  0.8098275376491  0.1023791168509  0.7425299598040 1.0
C      1  0.4660268483588  0.7635502239435  0.2761501261309 1.0
C      1  0.7099185016695  0.1730577336217  0.9119689018393 1.0
C      1  0.5250688690972  0.8158735365270  0.6920645640128 1.0
C      1  0.3105532857816  0.5471571031422  0.8436919181795 1.0
C      1  0.4919698325675  0.3619347498915  0.7140762623560 1.0
C      1  0.7904097641807  0.9584463564084  0.8273895628148 1.0
C      1  0.6547224423842  0.1518300697342  0.0961791989161 1.0
C      1  0.2152196853157  0.2091082143529  0.8207999740982 1.0
C      1  0.2973472119416  0.8695869876297  0.7180568518773 1.0
C      1  0.1690483531406  0.6827960546094  0.2893893516914 1.0
C      1  0.1837091698514  0.7213044948211  0.8441886807150 1.0
C      1  0.1581175597836  0.6340201779068  0.8210267872117 1.0
C      1  0.6013109988905  0.1863018064153  0.5071355801903 1.0
C      1  0.5452928032935  0.0577400776758  0.4664435817244 1.0
C      1  0.1221459250739  0.5392733670593  0.3149124698760 1.0
C      1  0.5147570182224  0.6586574791784  0.7222050717067 1.0
C      1  0.4379576997399  0.9391082793027  0.0724675592877 1.0
C      1  0.0603222307104  0.3116538688644  0.2305735802204 1.0
C      1  0.4479341972797  0.6227399152859  0.8502350072602 1.0
C      1  0.5699488721413  0.1404745897105  0.8219948192676 1.0
C      1  0.5644077590996  0.3960120088397  0.7777368278667 1.0
C      1  0.7004619431055  0.5874004081334  0.6063401783547 1.0
C      1  0.9804011419316  0.2063298568465  0.4804901704674 1.0
C      1  0.3047351114275  0.7154413735806  0.4600139478900 1.0
C      1  0.2563817868576  0.3067375804183  0.7718206833998 1.0
C      1  0.5376267777244  0.5691844302378  0.6071485493462 1.0
C      1  0.8871987631075  0.4540261344865  0.0992584051171 1.0
C      1  0.7688244840532  0.0334123030319  0.2560030152648 1.0
C      1  0.2688715153534  0.4987210612645  0.1835443071466 1.0
C      1  0.2762417699155  0.4158867440208  0.2372130149594 1.0
C      1  0.8195929934499  0.2518284569617  0.0081871814249 1.0
C      1  0.6720672795057  0.8011666215062  0.4927219244170 1.0
C      1  0.4813124204476  0.0409635774086  0.0767391063572 1.0
C      1  0.5590405592974  0.4394600125994  0.3573350646627 1.0
C      1  0.2871568495951  0.0856495233351  0.2957137718994 1.0
C      1  0.4361054396612  0.0482283123188  0.7904283168230 1.0
C      1  0.7933634099517  0.9351834110753  0.2561682473141 1.0
C      1  0.6579228610521  0.5426375749966  0.9859116141345 1.0
END
