TITL C-21768-3704-7 -9.341 3375.00 -1460.27442743 0 0 179 (C1) n - 1
REM
REM Run started: at 2020.12.09 15:34:11 in /rds/project/t2_vol4/rds-t2-cs072/BORA/CARBON/AIRSS/Generating-Clusters/Str-Search/Only-C1/C100-200
REM VASP from code version vasp.5.4.4.18Apr17-6-g9f103f2a35 (build Oct 11 2019 16:45:47) gamma-only
REM
REM
REM
REM
REM ./C.cell (efaf0b2bf1589a83377268d7ebe2c73f)
REM AIRSS Version 0.9.1 bugfix July 2018 build 013d7b7c2542+ Fri, 06 Jul 2018 19:26:36 +0100
REM compiler GCC version 4.8.5 20150623 (Red Hat 4.8.5-39)
REM options -cpp -mtune=generic -march=x86-64 -g -O0
REM seed 2007824929 1648697162 -1246005049 -408668529 962554782 -895694093 -1782163945 95054744 -488336281 -76553879 171981743 1503341415
REM
REM C.POTCAR (d86ddea03c3ceb6dc662c8ad6801f873)
REM 
CELL 1.54180   15.00000   15.00000   15.00000   90.00000   90.00000   90.00000
LATT -1
SFAC C  
C      1  0.3676705699533  0.6757610763044  0.8466807739995 1.0
C      1  0.7499911880602  0.7431293813657  0.4181423950509 1.0
C      1  0.2530354082650  0.8260498799575  0.3921637871098 1.0
C      1  0.3119807119823  0.1706473224621  0.4326237984619 1.0
C      1  0.4251141515969  0.5663823195379  0.2740470214244 1.0
C      1  0.2123876528684  0.2410182328823  0.5428576027201 1.0
C      1  0.5945192405329  0.2643375536836  0.5456725671589 1.0
C      1  0.4808179562046  0.1700911554060  0.6871056153298 1.0
C      1  0.4483394040585  0.4483730157075  0.4925718784653 1.0
C      1  0.2814863854472  0.5138982072927  0.5702641112323 1.0
C      1  0.2474511410824  0.7605493901828  0.3213919482348 1.0
C      1  0.2155465793956  0.7159580890311  0.4878915002294 1.0
C      1  0.2885939430999  0.2439742584527  0.3702337340773 1.0
C      1  0.6149028191240  0.5956351925129  0.3277813565943 1.0
C      1  0.5058246506408  0.6729568583929  0.7626518266605 1.0
C      1  0.7395488276169  0.4616670883957  0.7612373174515 1.0
C      1  0.6096177791429  0.2266634599187  0.7608443295547 1.0
C      1  0.1850278368032  0.6561658363709  0.4217646849696 1.0
C      1  0.5407083180956  0.7991405629083  0.2155550049687 1.0
C      1  0.6403766533112  0.6069386884789  0.6070753788455 1.0
C      1  0.7669432448259  0.5402317928867  0.5123353038383 1.0
C      1  0.7100696544982  0.3039497797399  0.2261581276321 1.0
C      1  0.8044696161176  0.3120116610175  0.6735669170835 1.0
C      1  0.6321260211103  0.6277669738321  0.7094141517558 1.0
C      1  0.2791400588491  0.5866083875057  0.7985734510632 1.0
C      1  0.2337187718360  0.7486137143983  0.6407974829807 1.0
C      1  0.2343267630466  0.8096414767090  0.4821613556858 1.0
C      1  0.4434730874707  0.5348915666383  0.4508505409288 1.0
C      1  0.5159423165217  0.4973640217937  0.6391450110252 1.0
C      1  0.5347968252727  0.4036492740639  0.1392135224619 1.0
C      1  0.5587593216111  0.1660866911831  0.3604255802403 1.0
C      1  0.2607947931977  0.5329333187671  0.7212478305772 1.0
C      1  0.4269640014073  0.6960211993413  0.1686860863239 1.0
C      1  0.4938823322792  0.5332868726629  0.9426221970367 1.0
C      1  0.2842716247239  0.6824765821823  0.7953531436425 1.0
C      1  0.8242223325756  0.5323250379433  0.4217266680263 1.0
C      1  0.6864467752515  0.2913473963521  0.4973171035075 1.0
C      1  0.5458854110298  0.6596959140791  0.4768507679565 1.0
C      1  0.3743026798622  0.2519488028689  0.5869410873362 1.0
C      1  0.5078033391341  0.5095427389488  0.7347259412120 1.0
C      1  0.4409259117603  0.7221262511593  0.8078049124667 1.0
C      1  0.5097245836122  0.5572384078125  0.0414601766520 1.0
C      1  0.6610411305089  0.3878910065097  0.6317342548727 1.0
C      1  0.3278565094161  0.5746902672039  0.1654928780189 1.0
C      1  0.3985539414288  0.8513274762031  0.2940041989161 1.0
C      1  0.7604674087621  0.2440303269334  0.5480279583690 1.0
C      1  0.4067685504723  0.5106891050855  0.1895913988984 1.0
C      1  0.6289075449491  0.2809005834259  0.1822231933309 1.0
C      1  0.7793282876080  0.4679620828161  0.2841999121845 1.0
C      1  0.3521485933528  0.6565377638592  0.1364545948474 1.0
C      1  0.5492751793364  0.5694326897034  0.5839911071003 1.0
C      1  0.2875638868183  0.3716373412154  0.1730425712458 1.0
C      1  0.2690792702986  0.8294412582701  0.5775618080749 1.0
C      1  0.6984000665521  0.4681105406403  0.4809470622632 1.0
C      1  0.6261992445147  0.1815281187595  0.6057377624263 1.0
C      1  0.5686427869693  0.5594211461752  0.8762426863512 1.0
C      1  0.9230901889762  0.5144259849742  0.5447756492893 1.0
C      1  0.5632941224037  0.6683315475192  0.5862905775442 1.0
C      1  0.3142017773067  0.8293478272697  0.3207087990729 1.0
C      1  0.5657027017213  0.4220885415268  0.6001233449995 1.0
C      1  0.5902883679754  0.4886631709476  0.3540880113321 1.0
C      1  0.6950668343584  0.7199450885293  0.8165208777910 1.0
C      1  0.4647496868307  0.6489840550965  0.2480255445752 1.0
C      1  0.6492573014362  0.7848101082051  0.7878868761996 1.0
C      1  0.5195145569040  0.3102821809859  0.4845592287052 1.0
C      1  0.1761891832079  0.4838124766442  0.5865777949636 1.0
C      1  0.7413245071107  0.5415255954792  0.7828193178115 1.0
C      1  0.4948741164703  0.8443367268827  0.7070092523925 1.0
C      1  0.1605276743852  0.5240395707148  0.3477384114927 1.0
C      1  0.7273040920713  0.3733447692687  0.7174396385067 1.0
C      1  0.7552594256861  0.2321522300141  0.6975139644685 1.0
C      1  0.3913807301177  0.6117438182491  0.4864150267348 1.0
C      1  0.5546490716308  0.5869299936639  0.7796507714797 1.0
C      1  0.7868467057333  0.6671375046238  0.6925495071475 1.0
C      1  0.1518247657158  0.5632988381385  0.4314860735364 1.0
C      1  0.4242797070486  0.4888185121918  0.6804846730709 1.0
C      1  0.4780488613398  0.8344665272051  0.2726522225093 1.0
C      1  0.6936225982500  0.2715794202769  0.7545404216548 1.0
C      1  0.6787020054923  0.5472789359203  0.1984872528979 1.0
C      1  0.3299636668815  0.5135834351368  0.6628497559422 1.0
C      1  0.4197328674631  0.5175260630117  0.3523170242712 1.0
C      1  0.4335883907236  0.2017165675790  0.3090398386248 1.0
C      1  0.5684969665557  0.8585379360762  0.4908404646607 1.0
C      1  0.5406625190088  0.4129732493122  0.5014158110000 1.0
C      1  0.0133405372217  0.5231385053901  0.5091156738918 1.0
C      1  0.3697302914792  0.3292804152135  0.2096480907191 1.0
C      1  0.5831320459909  0.5667914378843  0.1687068349633 1.0
C      1  0.5321669941799  0.2741301276174  0.7994480350147 1.0
C      1  0.5430685286082  0.2780448772370  0.2226118710284 1.0
C      1  0.6419644313816  0.1842885320514  0.3848136114863 1.0
C      1  0.2023314788873  0.5843435793217  0.2841305104459 1.0
C      1  0.2980103234040  0.4243490841279  0.5339606270701 1.0
C      1  0.7259273968607  0.4685227982651  0.2027194504141 1.0
C      1  0.2550821430330  0.4453553334938  0.2102641139864 1.0
C      1  0.3845548206054  0.3921510386928  0.5236811413824 1.0
C      1  0.1067872693465  0.5252826125494  0.5141404046748 1.0
C      1  0.5849283752871  0.3891423663467  0.9101808735236 1.0
C      1  0.5759670677765  0.4796795324757  0.9159363478442 1.0
C      1  0.1826317819862  0.4188758055076  0.7524581045064 1.0
C      1  0.3160090426887  0.6015263616665  0.5388768827589 1.0
C      1  0.3563496175460  0.2923199211725  0.7419867177931 1.0
C      1  0.3469098194953  0.7641670799697  0.5634432976501 1.0
C      1  0.3162608581673  0.2882077186158  0.6592898231187 1.0
C      1  0.2468114540781  0.5424432504630  0.2120183106915 1.0
C      1  0.6266604526914  0.3586036622685  0.1166656186032 1.0
C      1  0.3277198406392  0.3622324460081  0.8084209439401 1.0
C      1  0.5773420753485  0.1723010373210  0.6883165036402 1.0
C      1  0.9257424405848  0.5455503507411  0.4592607685882 1.0
C      1  0.6922781522592  0.2594715246793  0.3946629759121 1.0
C      1  0.4257275099535  0.7721716249272  0.5050587810480 1.0
C      1  0.1913257947615  0.3130457057893  0.4821824788201 1.0
C      1  0.4503985166454  0.2513238074417  0.7419828790281 1.0
C      1  0.7898969242277  0.4306796070423  0.4306649925190 1.0
C      1  0.7367931042943  0.3097932478255  0.3203969632978 1.0
C      1  0.6378861599907  0.8621255698647  0.4450173209762 1.0
C      1  0.5092507756488  0.3261024119448  0.3775743120325 1.0
C      1  0.2751435396975  0.6878462544312  0.5662624782542 1.0
C      1  0.5778628471099  0.7093444780901  0.1098429354498 1.0
C      1  0.7057541842282  0.3875167120407  0.5395449705428 1.0
C      1  0.7080728446260  0.6067782258394  0.2784670388557 1.0
C      1  0.5661315936752  0.6189794402389  0.0834452115697 1.0
C      1  0.4642481376749  0.4219014918022  0.7521940947430 1.0
C      1  0.4070123620774  0.5065595565171  0.8882655244108 1.0
C      1  0.5457066900791  0.3220416578229  0.8810057205908 1.0
C      1  0.3558039686594  0.8438434127104  0.6320063041743 1.0
C      1  0.4487983645911  0.6896531400592  0.4699255448445 1.0
C      1  0.4866931005895  0.8420743886655  0.5337716321840 1.0
C      1  0.7858562061943  0.6730995870408  0.6109753306384 1.0
C      1  0.4128618097696  0.3484804014780  0.3568001634617 1.0
C      1  0.2095900350341  0.6741280228535  0.3288178320642 1.0
C      1  0.6004382126416  0.4829600607798  0.4515718663503 1.0
C      1  0.7036231238954  0.3843269119973  0.1666454628546 1.0
C      1  0.4619360745720  0.1350022482300  0.3668325330319 1.0
C      1  0.5386995507273  0.5592164234883  0.4853867543901 1.0
C      1  0.5815501408031  0.7967960875643  0.7223098621390 1.0
C      1  0.5032195476553  0.5002326431272  0.1297243389046 1.0
C      1  0.3495714537355  0.1555500329955  0.5796444250560 1.0
C      1  0.4239854129850  0.8084537380769  0.7646880579548 1.0
C      1  0.4306084555612  0.1218844735303  0.6248986166251 1.0
C      1  0.4015865961233  0.1211026583499  0.4402897694837 1.0
C      1  0.8339061831221  0.4849532124408  0.5697853972753 1.0
C      1  0.5752080478449  0.3329914282628  0.6349511348823 1.0
C      1  0.2706590264975  0.7504949460068  0.7283211918070 1.0
C      1  0.7830365927346  0.5504556402618  0.3272556280143 1.0
C      1  0.5327136640244  0.3815756442684  0.2344863458857 1.0
C      1  0.7270936185729  0.7668197593843  0.3279670765088 1.0
C      1  0.3400854950747  0.8159418392930  0.7245766813504 1.0
C      1  0.6227527394823  0.6538059610251  0.4137555827377 1.0
C      1  0.4224357455172  0.1102763581348  0.5293402627437 1.0
C      1  0.8226210260005  0.3100546976951  0.5805255718017 1.0
C      1  0.7254850557669  0.6271765470008  0.5479063591081 1.0
C      1  0.2102755294517  0.3847935736469  0.5551529145513 1.0
C      1  0.4678625488393  0.3284715424511  0.1766782412607 1.0
C      1  0.6970865534067  0.7111128984527  0.2625351296793 1.0
C      1  0.7232642889024  0.6394806556268  0.7619675196680 1.0
C      1  0.5117694082234  0.3340589328012  0.7184015343158 1.0
C      1  0.3557859391344  0.5774128014014  0.8594698034842 1.0
C      1  0.5659603635427  0.7048166245521  0.6868920854805 1.0
C      1  0.2295808715065  0.3028439992581  0.6157530949530 1.0
C      1  0.3593008994702  0.4301509088010  0.2338587479757 1.0
C      1  0.7030148311923  0.6728536227527  0.4611555004464 1.0
C      1  0.2284642447522  0.3103690980852  0.3981668889378 1.0
C      1  0.8078761229458  0.3955329536770  0.5339754150506 1.0
C      1  0.7140278463298  0.8290277008148  0.4013125755944 1.0
C      1  0.5557270321761  0.4089745173418  0.3228834437444 1.0
C      1  0.4548640251918  0.8656779776281  0.6230740899995 1.0
C      1  0.5608291970386  0.6356335319907  0.2482076222279 1.0
C      1  0.6119164143447  0.7250262102046  0.2109838688044 1.0
C      1  0.7203425802160  0.1905576156785  0.6154662269586 1.0
C      1  0.2702895399144  0.1692277916162  0.5189725092598 1.0
C      1  0.5208150769961  0.2453497505982  0.3120742740348 1.0
C      1  0.3645919823034  0.2717489517141  0.3063936156241 1.0
C      1  0.3835574091727  0.4314436772256  0.3307109242059 1.0
C      1  0.4001484603110  0.4196475909670  0.8325904403651 1.0
C      1  0.4252708456889  0.3052513118998  0.5326849711522 1.0
C      1  0.7826106207343  0.3899893835505  0.3418586290615 1.0
C      1  0.2353853210616  0.3844210744152  0.8101583168671 1.0
C      1  0.1769384597204  0.4884956653107  0.6902127867164 1.0
C      1  0.5001000379518  0.7554941687448  0.1385942559756 1.0
END
