TITL C-21774-2346-9 -4.871 3375.00 -823.62275440 0 0 103 (C1) n - 1
REM
REM Run started: at 2020.12.09 15:23:31 in /rds/project/t2_vol4/rds-t2-cs072/BORA/CARBON/AIRSS/Generating-Clusters/Str-Search/Only-C1/C100-200
REM VASP from code version vasp.5.4.4.18Apr17-6-g9f103f2a35 (build Oct 11 2019 16:45:47) gamma-only
REM
REM
REM
REM
REM ./C.cell (efaf0b2bf1589a83377268d7ebe2c73f)
REM AIRSS Version 0.9.1 bugfix July 2018 build 013d7b7c2542+ Fri, 06 Jul 2018 19:26:36 +0100
REM compiler GCC version 4.8.5 20150623 (Red Hat 4.8.5-39)
REM options -cpp -mtune=generic -march=x86-64 -g -O0
REM seed 1819758452 1782232806 1444065908 -1883086776 -1494647045 418439955 367466271 852248138 297931810 662617159 870841680 1120380649
REM
REM C.POTCAR (d86ddea03c3ceb6dc662c8ad6801f873)
REM 
CELL 1.54180   15.00000   15.00000   15.00000   90.00000   90.00000   90.00000
LATT -1
SFAC C  
C      1  0.1964098809704  0.5980926497663  0.5408168674329 1.0
C      1  0.5967414281954  0.5120900719864  0.3829332211221 1.0
C      1  0.5687509915184  0.8030346681806  0.4913368936061 1.0
C      1  0.5216662283457  0.3785355520153  0.7527252952788 1.0
C      1  0.5970682526478  0.6832392381220  0.3335449829342 1.0
C      1  0.5403573716301  0.5626176722446  0.4367247822036 1.0
C      1  0.2651808089983  0.4599843777887  0.5225547488179 1.0
C      1  0.4311496596453  0.6287082367434  0.3417947415706 1.0
C      1  0.4880618165497  0.1908567194404  0.4416285046759 1.0
C      1  0.5812433706696  0.1958193081813  0.4729815892280 1.0
C      1  0.5472573916294  0.2069170689476  0.5640007629715 1.0
C      1  0.3601925867955  0.6176170657672  0.7390118060386 1.0
C      1  0.5466187910047  0.5234265572940  0.6144961624826 1.0
C      1  0.6386818637707  0.4254129679758  0.3870503969413 1.0
C      1  0.4102961285179  0.8325546977752  0.4554291047963 1.0
C      1  0.7022025896746  0.5544920665237  0.5475760236877 1.0
C      1  0.5616852575570  0.2696543865224  0.6314697493444 1.0
C      1  0.4921098850200  0.5221880423515  0.5214693937824 1.0
C      1  0.7716969027513  0.3889528503220  0.3327707364607 1.0
C      1  0.6528659935249  0.7891068532925  0.5417027908622 1.0
C      1  0.2135347159411  0.5066590469180  0.4050863225120 1.0
C      1  0.5992856743678  0.4037000030489  0.5392047565497 1.0
C      1  0.1889016403885  0.5120699307935  0.4961032214045 1.0
C      1  0.3113173613392  0.7495444048083  0.3542701246717 1.0
C      1  0.6506697366767  0.2375242675712  0.4234051141402 1.0
C      1  0.7052037312485  0.7087304488214  0.5322045876853 1.0
C      1  0.4016314993279  0.2459197003438  0.6985552558992 1.0
C      1  0.7652682989847  0.4904905136511  0.3158728667222 1.0
C      1  0.3107227112509  0.3322106216046  0.4248446687694 1.0
C      1  0.2611947993889  0.5995840884898  0.3878970643038 1.0
C      1  0.6119636135440  0.4040306706359  0.7072321764320 1.0
C      1  0.3780484700076  0.1848847949903  0.6117001110119 1.0
C      1  0.5801564039488  0.8025322324743  0.5958083021093 1.0
C      1  0.2357934531441  0.6522464382516  0.4766369346317 1.0
C      1  0.4943642987371  0.5184542919278  0.2038245845618 1.0
C      1  0.4651088234498  0.2521841192856  0.3751017665224 1.0
C      1  0.6993231506309  0.6192017134390  0.6896167712396 1.0
C      1  0.4915584962884  0.8560915119690  0.4572207662720 1.0
C      1  0.7048187919557  0.5343659509317  0.7376715659878 1.0
C      1  0.3853183588794  0.6711539617695  0.2066754067452 1.0
C      1  0.4126316930279  0.3319118627894  0.6279455452710 1.0
C      1  0.3948610735443  0.2706474474337  0.5497496226183 1.0
C      1  0.7683571622626  0.4019865600482  0.6595465420865 1.0
C      1  0.7178115815398  0.3020853701313  0.4621319521933 1.0
C      1  0.3732381230997  0.7008206993182  0.2974417749496 1.0
C      1  0.5331114637692  0.4685066691676  0.6993955342506 1.0
C      1  0.6276040488781  0.2796904235260  0.3375488509164 1.0
C      1  0.7636902902295  0.5633352861071  0.2641194303450 1.0
C      1  0.5030968335250  0.3453896723139  0.2472276827083 1.0
C      1  0.2913795619213  0.5599234886349  0.7134191023822 1.0
C      1  0.3635016590797  0.5651466000282  0.3831923375933 1.0
C      1  0.2977407145324  0.2451423883249  0.5894013210644 1.0
C      1  0.2870050932339  0.3855688361674  0.7210675423521 1.0
C      1  0.2857665765430  0.4319879213427  0.4265837803257 1.0
C      1  0.5465420022212  0.5922335048789  0.2119868433160 1.0
C      1  0.4856959827073  0.4261361303258  0.2082636163605 1.0
C      1  0.4992846391803  0.4264112277121  0.4955398051151 1.0
C      1  0.5369992076590  0.5659700363268  0.7175549526896 1.0
C      1  0.5204322641672  0.7167585834116  0.4737848821611 1.0
C      1  0.8057807666407  0.3712436631525  0.5908724362511 1.0
C      1  0.7108462955033  0.6373719004627  0.2721744281169 1.0
C      1  0.5354193552420  0.2844958044513  0.3125408074763 1.0
C      1  0.3712027990132  0.4761078325201  0.4018166497562 1.0
C      1  0.4035154040283  0.6440734900899  0.5635251411617 1.0
C      1  0.2648231359407  0.5950072551923  0.6171192472807 1.0
C      1  0.7096948492180  0.6386486456758  0.5970523340162 1.0
C      1  0.4779835687153  0.7011670460364  0.5543371407733 1.0
C      1  0.3619971848860  0.7024330831630  0.6914528098366 1.0
C      1  0.4593586747952  0.7171257563444  0.7069383706549 1.0
C      1  0.4500219935123  0.6005500216771  0.2409867855930 1.0
C      1  0.4860021246159  0.3014356517146  0.6909322851524 1.0
C      1  0.3258129069741  0.3410772767318  0.2225867074832 1.0
C      1  0.3199268000138  0.6835309552575  0.6025400744250 1.0
C      1  0.4614358800158  0.6271316894589  0.7402589865358 1.0
C      1  0.5111544357868  0.7476426563045  0.6307803448730 1.0
C      1  0.4095990763179  0.3659508601644  0.2190328849337 1.0
C      1  0.2909105272490  0.7245560445302  0.5109636009950 1.0
C      1  0.4522833537347  0.1897817653685  0.5376173188994 1.0
C      1  0.6954272385230  0.5156864447296  0.3841363033574 1.0
C      1  0.7963127925505  0.3419726995225  0.4117393415123 1.0
C      1  0.3191113610814  0.5181892412083  0.5707666616642 1.0
C      1  0.7219712365515  0.6661495231641  0.4449795213340 1.0
C      1  0.6295001949696  0.5923142833355  0.7434538718886 1.0
C      1  0.8025033237350  0.3353231104301  0.5057840079375 1.0
C      1  0.6901104512050  0.6886947413936  0.3566897914006 1.0
C      1  0.2830721859694  0.4672278672698  0.7310928552625 1.0
C      1  0.4019013659570  0.3244525867198  0.3912278050203 1.0
C      1  0.4420430664318  0.4094787234768  0.4227549172561 1.0
C      1  0.4967899737985  0.4013924627622  0.9270254406214 1.0
C      1  0.4037718532312  0.5553563842601  0.5488794675675 1.0
C      1  0.6142736549923  0.6429157545397  0.2475310678526 1.0
C      1  0.3315014400920  0.7815936824714  0.4454308929430 1.0
C      1  0.7272127162138  0.5719970730888  0.4571686053698 1.0
C      1  0.5032310345786  0.3854604618216  0.8447509228947 1.0
C      1  0.6521557136180  0.3754679555407  0.4656112086351 1.0
C      1  0.2687667924149  0.6763683268449  0.3222734242260 1.0
C      1  0.6780689666828  0.3635457612852  0.3163644018798 1.0
C      1  0.6084925764435  0.3505177130388  0.6233212260715 1.0
C      1  0.7059487715855  0.4416334019910  0.7176508424161 1.0
C      1  0.6315106093999  0.4982505945503  0.5701709496131 1.0
C      1  0.5200416570966  0.6556442689017  0.3954055319959 1.0
C      1  0.3259038887167  0.3103203396299  0.6762144715842 1.0
C      1  0.3094372019210  0.2761825287729  0.4991964743726 1.0
END
