TITL C-21352-6420-7 -11.96 3375.00 -2641.22281446 0 0 319 (C1) n - 1
REM
REM Run started: at 2020.07.11 12:38:28 in /home/heco/bkarasulu/work/CARBON/AIRSS/Str-Search
REM VASP from code version vasp.5.4.4.18Apr17-6-g9f103f2a35 (build Jul 02 2020 21:03:42) gamma-only
REM
REM
REM
REM
REM ./C.cell (90889e035cd0f9d0e5f9cb6dd9eb5d52)
REM AIRSS Version 0.9.1 bugfix July 2018 build 013d7b7c2542+ Fri, 06 Jul 2018 19:26:36 +0100
REM compiler GCC version 9.2.0
REM options -cpp -mtune=generic -march=x86-64 -g -O0
REM seed -293375867 228328150 -631072143 1733607089 580694729 -522720829 -1817469713 -2008160155 -1349428067 459950855 -2022454761 -1233044030 1829515534 125994971 210272371 -1956266471 -1767463294 -938945773 2067941271 -1037237495 371808565 155415358 1657890151 1055126050 1815495101 493283791 -264954424 -2027918368 277071164 -1010161666 1409444374 -1200739147 1221645535
REM
REM C.POTCAR (d86ddea03c3ceb6dc662c8ad6801f873)
REM 
CELL 1.54180   15.00000   15.00000   15.00000   90.00000   90.00000   90.00000
LATT -1
SFAC C  
C      1  0.8190471293369  0.4262464974430  0.1389298276441 1.0
C      1  0.5599205216769  0.9467738558767  0.6718420698317 1.0
C      1  0.5456320356687  0.1070325278328  0.8201459229512 1.0
C      1  0.6762974874410  0.1404131151186  0.3700714295193 1.0
C      1  0.3294150237041  0.4867741398764  0.3342869256933 1.0
C      1  0.3163273599180  0.2596812180417  0.1289779334081 1.0
C      1  0.5141920343787  0.2985531223821  0.7032549797723 1.0
C      1  0.6236768450334  0.6771831771565  0.2316361596125 1.0
C      1  0.4480706409171  0.1536949661474  0.6881249484801 1.0
C      1  0.1495664674445  0.4857945535178  0.2016508595745 1.0
C      1  0.4173564590172  0.0717127445182  0.6419256676990 1.0
C      1  0.7288105201421  0.7336350254237  0.1362805268602 1.0
C      1  0.1975581245164  0.5513836486279  0.3751990039228 1.0
C      1  0.6094285962379  0.5809830329515  0.8029931882717 1.0
C      1  0.3924038027130  0.6303338823570  0.3235517029808 1.0
C      1  0.5669336058668  0.5422363081457  0.7226464186117 1.0
C      1  0.4087725015051  0.8511839748438  0.1734465127129 1.0
C      1  0.9269894016340  0.6277749422407  0.4676045827306 1.0
C      1  0.5384207696837  0.5201366636591  0.3239648004610 1.0
C      1  0.5014214482202  0.2226962809913  0.2613211049837 1.0
C      1  0.6630941765274  0.5498979360765  0.6802488894700 1.0
C      1  0.6558306287662  0.2272131059402  0.1342636134903 1.0
C      1  0.7915401290044  0.5906699299692  0.7820601227209 1.0
C      1  0.2737865262188  0.8004303527167  0.3609472981757 1.0
C      1  0.7687223885912  0.6496926007265  0.4267767078550 1.0
C      1  0.5028977639252  0.8638837030988  0.6847016877417 1.0
C      1  0.6303488130646  0.4200497607419  0.7923147677695 1.0
C      1  0.1480351241510  0.2940745616379  0.6901447986766 1.0
C      1  0.4267966827226  0.9973289897451  0.4991848201608 1.0
C      1  0.2441824856994  0.1806555372796  0.3808900141583 1.0
C      1  0.7019361576652  0.1784688537698  0.7955397186817 1.0
C      1  0.8667872163328  0.6540997709471  0.4050497054691 1.0
C      1  0.7844668534378  0.3369315111676  0.1847188147214 1.0
C      1  0.0208778164020  0.5612875478064  0.3445418491314 1.0
C      1  0.6426952863354  0.7707127402445  0.5007635853151 1.0
C      1  0.8396572979978  0.2340253768348  0.4305381716654 1.0
C      1  0.6605247190710  0.6431213477450  0.6404679161160 1.0
C      1  0.5220452598686  0.8308354529432  0.3478128687810 1.0
C      1  0.5097757849547  0.4481382768975  0.3935447024189 1.0
C      1  0.2840555174006  0.5070575322064  0.5035937863417 1.0
C      1  0.7128849904097  0.2999720488528  0.1131569501615 1.0
C      1  0.1123576231208  0.7668517276092  0.3695648139868 1.0
C      1  0.6746680108408  0.9115668425752  0.2405821699934 1.0
C      1  0.7485735648271  0.1702112337165  0.7101079615354 1.0
C      1  0.7354444146995  0.4271314115244  0.3993504628407 1.0
C      1  0.6019000833001  0.6715153284002  0.3275806936305 1.0
C      1  0.4852254410856  0.5875169097897  0.7011924736643 1.0
C      1  0.4250352933588  0.0896681073287  0.3061019299607 1.0
C      1  0.5121532785682  0.9739412725445  0.2205661937899 1.0
C      1  0.9088415001639  0.5283649071644  0.4738982949353 1.0
C      1  0.2189121662949  0.1557000499348  0.7384963548278 1.0
C      1  0.6028624991512  0.8591910518355  0.8008448773321 1.0
C      1  0.1099606211051  0.6018020540631  0.3699319343029 1.0
C      1  0.4814187704520  0.7053575221213  0.1009515849122 1.0
C      1  0.2752121247376  0.5003681142665  0.6023692011644 1.0
C      1  0.6864826695248  0.3396699000782  0.5028473052734 1.0
C      1  0.2333545076161  0.6370893576705  0.4265979757994 1.0
C      1  0.8533437544782  0.3379788847032  0.8020440405939 1.0
C      1  0.0445030929710  0.4406414238193  0.5863819053444 1.0
C      1  0.7718722951170  0.5024846653252  0.3614278690411 1.0
C      1  0.8567122282406  0.4269059881193  0.7677753244267 1.0
C      1  0.7275347724558  0.3903913893897  0.2553199587134 1.0
C      1  0.7502410111147  0.6887106977782  0.6541061375222 1.0
C      1  0.4085944108353  0.1439418498321  0.1681886531956 1.0
C      1  0.7493540281074  0.4956423147289  0.5457861839771 1.0
C      1  0.9429081270703  0.7700013454124  0.5325382680965 1.0
C      1  0.3159455612936  0.0601543771068  0.6429438592107 1.0
C      1  0.4515058549160  0.7346385728387  0.8897963775471 1.0
C      1  0.5628773537468  0.9842932109424  0.4068267993805 1.0
C      1  0.4242854133455  0.7057759151167  0.5726777786182 1.0
C      1  0.6956082919858  0.4647665684798  0.6312674243458 1.0
C      1  0.5069174080882  0.1480240530831  0.1903509370230 1.0
C      1  0.6848019367601  0.8133523397931  0.8235698591885 1.0
C      1  0.4769170104231  0.7997393579730  0.1358753476927 1.0
C      1  0.7600754380011  0.8490265781967  0.3860719279113 1.0
C      1  0.5823458015237  0.3358581872570  0.2494272403585 1.0
C      1  0.6077837726548  0.8448734988247  0.5622503762926 1.0
C      1  0.7560059239233  0.6438885449010  0.8643763281953 1.0
C      1  0.0900736865111  0.5652851573078  0.2070903312550 1.0
C      1  0.4511730422601  0.1864042783243  0.3401819443440 1.0
C      1  0.5281404387092  0.1592274854960  0.4055174342978 1.0
C      1  0.8181736112835  0.6533429643523  0.7051952095315 1.0
C      1  0.7666822179201  0.6495582275455  0.1183186136398 1.0
C      1  0.0907432955472  0.3522395481549  0.4611986829492 1.0
C      1  0.4681812660888  0.5688334504308  0.5073108306994 1.0
C      1  0.7373432762258  0.7837839769258  0.5174204729756 1.0
C      1  0.6277458408725  0.1252183828048  0.8142894633382 1.0
C      1  0.5569542192192  0.1959223761408  0.1109832364335 1.0
C      1  0.9068663511558  0.5835540752374  0.2238372934714 1.0
C      1  0.5349406004775  0.2277392705647  0.5570375818291 1.0
C      1  0.4778081305222  0.0541791434939  0.5618986354003 1.0
C      1  0.7167741877541  0.1235361934423  0.4590842928545 1.0
C      1  0.9606582438528  0.4974977125782  0.3961123119445 1.0
C      1  0.9385576744745  0.3270642961238  0.5689028952977 1.0
C      1  0.2588639075564  0.5445629995653  0.2983906620189 1.0
C      1  0.8110938699235  0.7052792556199  0.1775569150421 1.0
C      1  0.6668404687261  0.0739412156833  0.5207437901575 1.0
C      1  0.5790654479761  0.5363272034921  0.8875470236656 1.0
C      1  0.1530985445648  0.3990156292706  0.2405242584592 1.0
C      1  0.1342048227897  0.6434070872711  0.4601226808058 1.0
C      1  0.5994339661047  0.6017545836606  0.1117009216727 1.0
C      1  0.0267982054495  0.3754570841286  0.7203682183328 1.0
C      1  0.3586847453132  0.9899005077796  0.6738446707076 1.0
C      1  0.6363964844154  0.4164485222813  0.2244065218267 1.0
C      1  0.4913441921564  0.6767517385223  0.6976216276504 1.0
C      1  0.4306641503141  0.3260055723669  0.8319038407921 1.0
C      1  0.6872357101729  0.8837009785999  0.3252896095833 1.0
C      1  0.7040868057056  0.3595463433130  0.3494525421705 1.0
C      1  0.4756307873100  0.4051497798638  0.8850095527871 1.0
C      1  0.5976844918225  0.8885328292254  0.3758073537408 1.0
C      1  0.6755390604417  0.2002780729118  0.2298120560309 1.0
C      1  0.5495040626387  0.2629027793289  0.8946319457966 1.0
C      1  0.7384416035645  0.3753236469733  0.6676480389152 1.0
C      1  0.3733969689512  0.4788203485777  0.7673514453304 1.0
C      1  0.8318143363145  0.5148248687744  0.1966166743320 1.0
C      1  0.6658330241049  0.9137938806767  0.5181098951623 1.0
C      1  0.7544676702104  0.8815798506322  0.4880394250558 1.0
C      1  0.6350301155834  0.2910079972613  0.9055697546310 1.0
C      1  0.6670548556500  0.1580809449795  0.6571142939355 1.0
C      1  0.1177315320034  0.3666594658619  0.7428959161026 1.0
C      1  0.8990551230249  0.8307474817432  0.4736625218932 1.0
C      1  0.3893781331413  0.4367093053161  0.0146746074078 1.0
C      1  0.9407443383762  0.4206386577909  0.3524214958255 1.0
C      1  0.2630113214903  0.3265883437842  0.5788264602202 1.0
C      1  0.8450045365611  0.8841936514283  0.5279546385775 1.0
C      1  0.6129430695607  0.9951232869256  0.5010866385091 1.0
C      1  0.5761930948824  0.0758405392370  0.3537770438989 1.0
C      1  0.7155941003835  0.2954193455136  0.5828802409511 1.0
C      1  0.4172562290722  0.4922541618106  0.8607367273187 1.0
C      1  0.2209724214687  0.6492218034828  0.8658299544365 1.0
C      1  0.3811985827297  0.1409630269277  0.4782808983299 1.0
C      1  0.8787031382153  0.4062350069496  0.5889934526974 1.0
C      1  0.5833517736992  0.6961742187092  0.5076758600034 1.0
C      1  0.3423823186095  0.5711563031518  0.6300151270996 1.0
C      1  0.6131053662232  0.4173877046199  0.1244005871262 1.0
C      1  0.3164461776594  0.8258684289849  0.1967071098547 1.0
C      1  0.4660230128583  0.2407838457860  0.6335524073903 1.0
C      1  0.4758847531140  0.3888178224697  0.7044885488950 1.0
C      1  0.3579843915671  0.2461661425171  0.3494311443877 1.0
C      1  0.7393052426790  0.1790076203209  0.2974515296881 1.0
C      1  0.4467714158132  0.8602705110781  0.3890652543488 1.0
C      1  0.5866521725327  0.9135797228979  0.2008096266956 1.0
C      1  0.3971979616190  0.5169936694300  0.9563461408310 1.0
C      1  0.0711591743418  0.5066215461315  0.5184538482104 1.0
C      1  0.6057723403041  0.4162550687946  0.6346117884561 1.0
C      1  0.3245707486918  0.7748114490036  0.7924349187525 1.0
C      1  0.5241167515074  0.5508065249630  0.0676877733457 1.0
C      1  0.4757775553711  0.2690551802654  0.9665481827692 1.0
C      1  0.0250835393729  0.3521751967367  0.5368938525670 1.0
C      1  0.1913904076811  0.5795665694957  0.8107533207184 1.0
C      1  0.4133271950446  0.3044365523361  0.5538202773331 1.0
C      1  0.6305293675012  0.7530254646284  0.1511334331187 1.0
C      1  0.2670879412380  0.2523164017755  0.2058981031875 1.0
C      1  0.1908344082829  0.5023022301347  0.6562140382216 1.0
C      1  0.3434891187659  0.8940570572884  0.6825863306425 1.0
C      1  0.4740795053671  0.4631945689544  0.1773708184423 1.0
C      1  0.3378941646782  0.4774088532512  0.0779529862055 1.0
C      1  0.5282104648329  0.6698379989581  0.2568003295044 1.0
C      1  0.1982629191923  0.6081781941519  0.7127097251354 1.0
C      1  0.3119009124666  0.2266408747927  0.8754974055856 1.0
C      1  0.1441733708643  0.6436605654853  0.2188947337708 1.0
C      1  0.5856305376677  0.4326604787698  0.8845224595468 1.0
C      1  0.7625008502270  0.7758575779484  0.6127449094212 1.0
C      1  0.6332787046786  0.2405138023658  0.6129967587181 1.0
C      1  0.7010309463688  0.2751200610807  0.8301453415392 1.0
C      1  0.3550757895805  0.4196713065304  0.2595096098885 1.0
C      1  0.2712388566679  0.7719974621532  0.1419145121525 1.0
C      1  0.4814132579586  0.2250142529697  0.0561530925280 1.0
C      1  0.6483886976530  0.5660564436167  0.9516254460848 1.0
C      1  0.5869915756280  0.7064451063490  0.6935394680013 1.0
C      1  0.2884538381943  0.6472912518664  0.0278504262779 1.0
C      1  0.6296805273845  0.6152123720877  0.5423973001877 1.0
C      1  0.1441433551182  0.8026566157781  0.5022886137555 1.0
C      1  0.0072729942943  0.4628511551282  0.6755915331959 1.0
C      1  0.3547399542395  0.5718768293276  0.0342001790563 1.0
C      1  0.7170435729408  0.5831603675776  0.4958370422568 1.0
C      1  0.4553904679821  0.4463509704990  0.6249462766632 1.0
C      1  0.5566121972235  0.7944665394600  0.6297584323470 1.0
C      1  0.6168397384838  0.5141295548486  0.2609823445655 1.0
C      1  0.5668338373276  0.8307559120660  0.1584645916761 1.0
C      1  0.1421072818396  0.6876872366062  0.3108476732599 1.0
C      1  0.3873061697506  0.6181227464872  0.5421575487867 1.0
C      1  0.8204634440422  0.2326653448970  0.3267255532439 1.0
C      1  0.9960935794961  0.6956005763984  0.5042517628884 1.0
C      1  0.1433709437418  0.4329905544729  0.5929002202666 1.0
C      1  0.8777907629080  0.7195152206836  0.3321824827752 1.0
C      1  0.5099304217742  0.7329104932856  0.5569412735571 1.0
C      1  0.7546473260329  0.8612535357076  0.7764794264631 1.0
C      1  0.3646646774111  0.0504882786168  0.4557801463104 1.0
C      1  0.7827255921705  0.3269302735783  0.8627034586835 1.0
C      1  0.6190716699548  0.6793491376254  0.7906145059128 1.0
C      1  0.7518203116114  0.4003550612788  0.9133349905110 1.0
C      1  0.6060829437346  0.3145469721787  0.6745770171102 1.0
C      1  0.3190936844092  0.2770369488734  0.5238574881553 1.0
C      1  0.3018139292436  0.4096570963401  0.7273677628870 1.0
C      1  0.1970000888310  0.4386112296531  0.7469599117294 1.0
C      1  0.6746705834616  0.3400855454245  0.7470847314771 1.0
C      1  0.1006247767194  0.7202842735457  0.6284004645611 1.0
C      1  0.8475524941859  0.8435182403713  0.6201062976835 1.0
C      1  0.5539761232199  0.5478162858823  0.5472561939999 1.0
C      1  0.5991045674847  0.2395451847608  0.2820149726319 1.0
C      1  0.7814487624638  0.1804303727223  0.4857384316305 1.0
C      1  0.3218628394626  0.2115848702542  0.4434590057835 1.0
C      1  0.4384206533701  0.5002654735443  0.4425538406229 1.0
C      1  0.4135005757328  0.5254293611294  0.6825661481610 1.0
C      1  0.6407249951771  0.0802786486951  0.6079288542599 1.0
C      1  0.0833623883826  0.7314440966448  0.4593566837436 1.0
C      1  0.6261248623924  0.9299509276129  0.7347332605561 1.0
C      1  0.5716461912607  0.6925519429611  0.0998002891369 1.0
C      1  0.0946740891641  0.5913366790272  0.5342684574817 1.0
C      1  0.3570464080581  0.1205782847883  0.2417774744916 1.0
C      1  0.1375039080639  0.4401432473359  0.4838001477440 1.0
C      1  0.6970343858116  0.5444412971768  0.7693093968335 1.0
C      1  0.2720575553411  0.8369474269719  0.7227850684814 1.0
C      1  0.4834475686026  0.1625697622872  0.7727970227870 1.0
C      1  0.3888672574045  0.0113639312716  0.3604565460113 1.0
C      1  0.3896220074872  0.3996815716704  0.5710874903392 1.0
C      1  0.4119123706504  0.7352535390822  0.6671724979817 1.0
C      1  0.3380738830353  0.7035129230826  0.7216309151891 1.0
C      1  0.3256887797550  0.4834742914620  0.1760136886306 1.0
C      1  0.8498255244681  0.8005780142806  0.3873384734840 1.0
C      1  0.9058588234507  0.6877112344794  0.6740056059788 1.0
C      1  0.7518551233860  0.4609895083861  0.0882124371494 1.0
C      1  0.6233324381564  0.5762530441716  0.3499444060197 1.0
C      1  0.8779373910304  0.3880631714004  0.3009717388487 1.0
C      1  0.1057991489261  0.2926624264724  0.5415845855919 1.0
C      1  0.7861543986920  0.4891097623931  0.9002022921772 1.0
C      1  0.6875623589558  0.7171821403638  0.8389732576640 1.0
C      1  0.2430207818246  0.6978163890111  0.3412908790077 1.0
C      1  0.3621327162930  0.4425590999535  0.4812070618555 1.0
C      1  0.7224060062533  0.9306301828673  0.7240015429533 1.0
C      1  0.4389634245893  0.6026006229232  0.0945949437665 1.0
C      1  0.3856083306497  0.2830491580416  0.9102258892707 1.0
C      1  0.1691869767141  0.3355410979635  0.6019444413148 1.0
C      1  0.4304609485601  0.8011159846575  0.8269182353415 1.0
C      1  0.4673428339694  0.5898201940960  0.2697244397372 1.0
C      1  0.8736793178008  0.2895438589055  0.7152933052885 1.0
C      1  0.1639626681595  0.2144086010336  0.4200333896959 1.0
C      1  0.2167323641622  0.4710898687683  0.4367344217809 1.0
C      1  0.7684450905105  0.7498172945653  0.4312990051210 1.0
C      1  0.2411126008679  0.5276871259039  0.2003304633230 1.0
C      1  0.4124891018472  0.8383423444129  0.6649329915606 1.0
C      1  0.2960473526458  0.8707256172242  0.2827717959825 1.0
C      1  0.1442492073604  0.2031363661921  0.5191045236463 1.0
C      1  0.6813004986280  0.3885583482117  0.0605699536929 1.0
C      1  0.2716437349060  0.7281959576898  0.8633498323580 1.0
C      1  0.5409519715440  0.3626711654099  0.4322665536563 1.0
C      1  0.4299167032202  0.3625492560502  0.9667199084782 1.0
C      1  0.8353349743330  0.3858758923711  0.6766988423474 1.0
C      1  0.8706800607550  0.6764354986554  0.2468331253935 1.0
C      1  0.8305007937723  0.5029929835144  0.8159738478711 1.0
C      1  0.7410821609874  0.5740411826150  0.9244118487200 1.0
C      1  0.6602098129125  0.3793721936608  0.9537575313988 1.0
C      1  0.2643164485432  0.6813434943635  0.9428847097067 1.0
C      1  0.6113046340343  0.2191760644049  0.3817870474284 1.0
C      1  0.9109880153599  0.7698224858179  0.6211393734662 1.0
C      1  0.3936384950736  0.2089434618606  0.1024984835408 1.0
C      1  0.8007320507879  0.4640538761078  0.2776346238024 1.0
C      1  0.4993935090995  0.3064199681791  0.4997766286242 1.0
C      1  0.3916662948741  0.3792269655953  0.7594831294845 1.0
C      1  0.3161810448221  0.5950513492836  0.4683795694720 1.0
C      1  0.3085648858793  0.3460734453662  0.3196174865475 1.0
C      1  0.0005415915676  0.5646121090459  0.2536807711976 1.0
C      1  0.8449982494890  0.3021275317593  0.2663357676316 1.0
C      1  0.4798281180126  0.5612935443104  0.9024489100630 1.0
C      1  0.1491397637502  0.7979620720520  0.5940725140594 1.0
C      1  0.3746526769351  0.5574995006027  0.3890779444094 1.0
C      1  0.3758077751515  0.7903164250384  0.3880060084101 1.0
C      1  0.4227344912165  0.5466122057566  0.1845291271523 1.0
C      1  0.2674196268330  0.6873146649731  0.1109459673176 1.0
C      1  0.7197356064861  0.4219164782268  0.4886512111549 1.0
C      1  0.4889998571970  0.1464123588558  0.5033728391162 1.0
C      1  0.4231072738961  0.7142970471577  0.3633948632329 1.0
C      1  0.5177494903005  0.0663667538225  0.2620841228890 1.0
C      1  0.4625550277956  0.6539643572803  0.8984437491978 1.0
C      1  0.6088596110986  0.8519042450085  0.4653454891156 1.0
C      1  0.4415824501807  0.3948617974344  0.2271689784566 1.0
C      1  0.4999133261283  0.2584663786926  0.7998684330701 1.0
C      1  0.9746432828841  0.6253081831574  0.6587217228931 1.0
C      1  0.4260215746895  0.9340339392176  0.2184609206957 1.0
C      1  0.3534135995366  0.9464223291066  0.2880758975659 1.0
C      1  0.9816443322750  0.5431803607687  0.6986635317376 1.0
C      1  0.3070987713051  0.4051294733737  0.6246013073243 1.0
C      1  0.8178344883772  0.2154293016654  0.6720156767426 1.0
C      1  0.4601448429069  0.9561079771025  0.4154758473991 1.0
C      1  0.8532949269037  0.4801979738879  0.5404876798717 1.0
C      1  0.2385874129335  0.1113854796859  0.6541776989903 1.0
C      1  0.5651372545054  0.0141183433262  0.5961133610352 1.0
C      1  0.2241380646394  0.3263897254736  0.2582132033878 1.0
C      1  0.2428102351241  0.6292865324769  0.1902822408979 1.0
C      1  0.2961014482540  0.6380530576075  0.2812763776167 1.0
C      1  0.2936387097449  0.1874711709596  0.2852834848611 1.0
C      1  0.2688262456938  0.1875922980609  0.8151657680133 1.0
C      1  0.1731936318583  0.1615006553178  0.6000012062034 1.0
C      1  0.1828311782543  0.8148258778931  0.4121939122986 1.0
C      1  0.5423238313266  0.4649444592877  0.5819740754033 1.0
C      1  0.6059255966462  0.5768295387772  0.0244567816798 1.0
C      1  0.1612446028412  0.7013351784279  0.6932452188565 1.0
C      1  0.0402312440895  0.6550816835576  0.5876669241273 1.0
C      1  0.6381900115386  0.3121764020831  0.4153346439130 1.0
C      1  0.1356374658797  0.3291536383890  0.3010237970026 1.0
C      1  0.1503633315109  0.2046665134419  0.6884451040935 1.0
C      1  0.1146043820302  0.2936783327196  0.3843484293602 1.0
C      1  0.5354901802020  0.4628644578106  0.1098069624643 1.0
C      1  0.2049078827150  0.7934978523674  0.6786527103279 1.0
C      1  0.7744538940037  0.8575073310756  0.6803939904702 1.0
C      1  0.4941204211007  0.3196537208554  0.2393975631694 1.0
C      1  0.6492588159295  0.5820673763936  0.1922564705473 1.0
C      1  0.7498421937769  0.5542777856190  0.1436338976942 1.0
C      1  0.2937371739892  0.6310115909985  0.6922660261775 1.0
C      1  0.5629759450614  0.4448851986937  0.7263988852534 1.0
C      1  0.8754364340656  0.2703889538273  0.5150952679351 1.0
C      1  0.5052758523568  0.8414272084506  0.7857214396751 1.0
C      1  0.7124024583390  0.5736498476994  0.3954634998922 1.0
C      1  0.8014146282542  0.2330038540885  0.5719051595186 1.0
C      1  0.1918468181877  0.4907570993697  0.8315163688490 1.0
C      1  0.9638098345868  0.3051332139246  0.6760953099783 1.0
C      1  0.5168660552220  0.7335835647162  0.3330036686425 1.0
C      1  0.2973020154346  0.4157939135828  0.3977002811033 1.0
END
