TITL C-21774-2346-4 -8.586 3375.00 -1427.86916178 0 0 176 (C1) n - 1
REM
REM Run started: at 2020.12.09 09:10:19 in /rds/project/t2_vol4/rds-t2-cs072/BORA/CARBON/AIRSS/Generating-Clusters/Str-Search/Only-C1/C100-200
REM VASP from code version vasp.5.4.4.18Apr17-6-g9f103f2a35 (build Oct 11 2019 16:45:47) gamma-only
REM
REM
REM
REM
REM ./C.cell (efaf0b2bf1589a83377268d7ebe2c73f)
REM AIRSS Version 0.9.1 bugfix July 2018 build 013d7b7c2542+ Fri, 06 Jul 2018 19:26:36 +0100
REM compiler GCC version 4.8.5 20150623 (Red Hat 4.8.5-39)
REM options -cpp -mtune=generic -march=x86-64 -g -O0
REM seed 1932656818 1562995187 -1727226502 -1914523294 -783445247 1259012189 -622388059 -1912126874 373289835 -1920412939 1838774640 440354496
REM
REM C.POTCAR (d86ddea03c3ceb6dc662c8ad6801f873)
REM 
CELL 1.54180   15.00000   15.00000   15.00000   90.00000   90.00000   90.00000
LATT -1
SFAC C  
C      1  0.6860429927560  0.1319069635038  0.4756494497574 1.0
C      1  0.6973944856818  0.4961734028123  0.2714580210696 1.0
C      1  0.5472662359743  0.1576994116121  0.3482628870654 1.0
C      1  0.4852304360419  0.7725868045389  0.4658525005722 1.0
C      1  0.4486881871834  0.8163606814813  0.7058952539462 1.0
C      1  0.8095262347127  0.7190337728264  0.4677895537912 1.0
C      1  0.6132662322214  0.5482587215744  0.2796572972271 1.0
C      1  0.7020695390922  0.4131729265708  0.8371361805057 1.0
C      1  0.6039708817334  0.2221171794618  0.7955828607409 1.0
C      1  0.3897702683987  0.4776885803457  0.4306030638466 1.0
C      1  0.5504672665165  0.4808708706272  0.2988087173801 1.0
C      1  0.2582351561755  0.4534383274349  0.4566524156446 1.0
C      1  0.3892437935346  0.7711577910396  0.4576661682801 1.0
C      1  0.4816715036050  0.6408491348960  0.2342609125234 1.0
C      1  0.7997359033776  0.2696721222709  0.3797480419577 1.0
C      1  0.4299050286699  0.3901242195352  0.0888849890344 1.0
C      1  0.6538721424791  0.7077267543813  0.7998147051055 1.0
C      1  0.7823398749788  0.8595850088970  0.5872796245919 1.0
C      1  0.5253853469816  0.4720832960499  0.6347705534042 1.0
C      1  0.4998409582504  0.3346983083916  0.8945562486087 1.0
C      1  0.1253660985196  0.6380857663473  0.5834570056869 1.0
C      1  0.7273612580733  0.7435520458901  0.3160662107285 1.0
C      1  0.6094359447214  0.4369331715445  0.6638496516075 1.0
C      1  0.5643320342561  0.3242411522964  0.5049703425080 1.0
C      1  0.2240208312362  0.4469553114119  0.6466069151512 1.0
C      1  0.8181119864093  0.3041536423215  0.6474352113359 1.0
C      1  0.3389785054323  0.2701943451282  0.3331913839385 1.0
C      1  0.7559582010285  0.3656919114864  0.2051599395396 1.0
C      1  0.8615090081118  0.6376465730752  0.4869480041302 1.0
C      1  0.6864092699217  0.2596391306815  0.5796637480058 1.0
C      1  0.5486542128001  0.6464906717292  0.9244338053426 1.0
C      1  0.4854057339244  0.4239501690083  0.9309771366793 1.0
C      1  0.6170129218015  0.8794363012242  0.5101065952629 1.0
C      1  0.3589010805070  0.1976801258026  0.4647294123593 1.0
C      1  0.2158192595935  0.2745855684034  0.6239433272335 1.0
C      1  0.3084649101256  0.8236252556421  0.4975360189911 1.0
C      1  0.5703242273643  0.1580348017118  0.5858266574019 1.0
C      1  0.8268006767647  0.4294038286362  0.3770153322184 1.0
C      1  0.5786247656525  0.3871861821722  0.3176499856907 1.0
C      1  0.4980830963643  0.7410631357612  0.2254011206666 1.0
C      1  0.6243721677350  0.2353154596999  0.2261231735508 1.0
C      1  0.3305887128139  0.6102767184803  0.6277600107428 1.0
C      1  0.3839452589788  0.5386960919405  0.6726055984925 1.0
C      1  0.8879970311130  0.5573877084274  0.3247868260801 1.0
C      1  0.5314670656719  0.8341014502920  0.7434057435671 1.0
C      1  0.5951441638595  0.7210932903355  0.2299701237982 1.0
C      1  0.3224883172588  0.5793798660434  0.2446361213221 1.0
C      1  0.4489034972362  0.3345400286426  0.6530861684574 1.0
C      1  0.2044590438525  0.9149061775706  0.3680246395191 1.0
C      1  0.5224847401164  0.2505212789177  0.2230905537256 1.0
C      1  0.7091388472633  0.3554942078758  0.5503080461047 1.0
C      1  0.2598269813734  0.3979770607897  0.7271661537018 1.0
C      1  0.5214870691878  0.9414379446145  0.5005511751004 1.0
C      1  0.5217352578713  0.1086008409617  0.4338029499014 1.0
C      1  0.1725133237770  0.5027397314370  0.3071322829087 1.0
C      1  0.1538745066345  0.5110682741037  0.6731424166029 1.0
C      1  0.5394131602483  0.4323644996136  0.7334075217983 1.0
C      1  0.5406041024647  0.8460091010599  0.4779312510110 1.0
C      1  0.3808297647897  0.4742320247140  0.5890990779167 1.0
C      1  0.2671662540231  0.6294596240148  0.1787901311069 1.0
C      1  0.7093951378272  0.2635151138939  0.3319439076780 1.0
C      1  0.4215153860273  0.2507040702651  0.5237761325586 1.0
C      1  0.4414662648757  0.2042226034992  0.7670075446813 1.0
C      1  0.5252080807862  0.5178269567751  0.7856282178598 1.0
C      1  0.1581850564287  0.7214556945243  0.5586474431722 1.0
C      1  0.4838379234224  0.1884524363483  0.2899022496078 1.0
C      1  0.8594468430303  0.4779388085910  0.2923270257312 1.0
C      1  0.5324824185546  0.1741264859265  0.7447523814759 1.0
C      1  0.6732136054079  0.4745708259826  0.4445516863264 1.0
C      1  0.4218277079971  0.5689699019718  0.2412044179667 1.0
C      1  0.7781011400347  0.7917534905542  0.5207796567707 1.0
C      1  0.4186195698339  0.3914003931835  0.4224929837042 1.0
C      1  0.7027106155790  0.4476292299837  0.1905732669161 1.0
C      1  0.6696498727625  0.7635297351300  0.2577894646378 1.0
C      1  0.2884079768163  0.2429607796275  0.4162731798673 1.0
C      1  0.4058459178499  0.3524831567496  0.1647074618472 1.0
C      1  0.2378131587678  0.3062331910338  0.7101291886433 1.0
C      1  0.7488079312619  0.7024319412698  0.3924197630483 1.0
C      1  0.4553308754670  0.4075883426120  0.5882135322718 1.0
C      1  0.7061993314677  0.2880040543644  0.2323785262201 1.0
C      1  0.6520955048691  0.6321871292467  0.7262372873818 1.0
C      1  0.4895058060775  0.6589592200303  0.6879360961043 1.0
C      1  0.1872710001898  0.7308362433385  0.3431400517639 1.0
C      1  0.2050305114370  0.8179604778525  0.3599199680528 1.0
C      1  0.5913476995935  0.2537680053599  0.5596481979982 1.0
C      1  0.7548944812668  0.3596904039100  0.6963092681363 1.0
C      1  0.1426784954033  0.5942197328237  0.3334491150984 1.0
C      1  0.8561734581590  0.5968845389631  0.5723772634262 1.0
C      1  0.2858120079020  0.2311879399674  0.6822606250491 1.0
C      1  0.7190741516034  0.4460126732661  0.3608007497646 1.0
C      1  0.2193101193261  0.2964344729304  0.4534584077269 1.0
C      1  0.4641859276446  0.2941287975018  0.8098070517350 1.0
C      1  0.5931712573152  0.7696354208437  0.7509360118206 1.0
C      1  0.2965677136737  0.5971505442454  0.3423597740703 1.0
C      1  0.8376676767079  0.3857264774076  0.2533207308947 1.0
C      1  0.4723893421767  0.8961251322756  0.2924757082532 1.0
C      1  0.4403652286979  0.1631687598466  0.4713832139445 1.0
C      1  0.6865038680143  0.5560278799563  0.4817583058256 1.0
C      1  0.4931771149750  0.5847388487147  0.9300883410002 1.0
C      1  0.1772492162012  0.3103439255660  0.5414652191464 1.0
C      1  0.0869019709357  0.4811313739098  0.5178754010273 1.0
C      1  0.5752610392291  0.4374088905933  0.0715792487737 1.0
C      1  0.6387385467273  0.4518825466459  0.1216631055652 1.0
C      1  0.2878010176986  0.4646970005590  0.7802471571172 1.0
C      1  0.4833553556985  0.9635071643644  0.3457560458838 1.0
C      1  0.6563363166304  0.6014294474914  0.5630973165043 1.0
C      1  0.5997640242447  0.1189589171712  0.4984010690770 1.0
C      1  0.5535821876940  0.1305311530598  0.6667219933450 1.0
C      1  0.4224834891088  0.2560373539306  0.1846267149394 1.0
C      1  0.2789396391616  0.4742355710248  0.5595030339920 1.0
C      1  0.2744723933021  0.6572394011159  0.4811349258701 1.0
C      1  0.2223294806754  0.6476769859061  0.3883209586601 1.0
C      1  0.3625253603053  0.8799208410989  0.5617432282843 1.0
C      1  0.3766835866221  0.2019573408310  0.6921003305141 1.0
C      1  0.2591403723153  0.6238804551028  0.7042429709428 1.0
C      1  0.8650006949632  0.4732985999676  0.4548092435384 1.0
C      1  0.3967201519106  0.5397451811147  0.5088168222169 1.0
C      1  0.8793211611413  0.5655575666363  0.4231441607508 1.0
C      1  0.6634633116648  0.3575877074726  0.3671215440034 1.0
C      1  0.2707068736855  0.5060144236013  0.2914388402338 1.0
C      1  0.4662636132042  0.3464478413164  0.4987615570854 1.0
C      1  0.6204748933190  0.6500153848848  0.8649741942935 1.0
C      1  0.6825909304854  0.6445769127745  0.4365638840537 1.0
C      1  0.7003772728876  0.6041808553248  0.6450925008647 1.0
C      1  0.8547027749976  0.4320210003684  0.5373502749519 1.0
C      1  0.5188242290073  0.3389077923122  0.2702958457686 1.0
C      1  0.3675914342730  0.6817222638405  0.4580001049708 1.0
C      1  0.0840974608979  0.5659416980658  0.5284053822163 1.0
C      1  0.5571940003603  0.2792273275895  0.8567367689577 1.0
C      1  0.3117500494722  0.5448454263956  0.7470368029780 1.0
C      1  0.4450891161068  0.9268595746762  0.5642304692574 1.0
C      1  0.8010948839178  0.2612910502613  0.4752705741261 1.0
C      1  0.3862206850684  0.3502135390402  0.3379498783764 1.0
C      1  0.4669358712744  0.8219749637255  0.2492928596917 1.0
C      1  0.4304872664093  0.3912964016546  0.2557654878661 1.0
C      1  0.4800926328367  0.5577152945064  0.6946414021506 1.0
C      1  0.1135868057900  0.3930969789888  0.5530733600253 1.0
C      1  0.3023079885318  0.5766156632054  0.5399667847861 1.0
C      1  0.4156734665236  0.2528036597403  0.6200496444426 1.0
C      1  0.5053842283934  0.0055652286994  0.4217475102650 1.0
C      1  0.7368407189939  0.2016395880786  0.5089471655473 1.0
C      1  0.7051517490035  0.8535555374159  0.5323451996246 1.0
C      1  0.4408640494705  0.6264783600907  0.4842401009475 1.0
C      1  0.4160869812151  0.8755978354973  0.6376062996977 1.0
C      1  0.1549375126408  0.4247876063813  0.3483844154005 1.0
C      1  0.8483038467059  0.5051660503085  0.5985881882854 1.0
C      1  0.4804209035224  0.3543089459510  0.7361235838076 1.0
C      1  0.4158977066818  0.7227155653583  0.6977041182583 1.0
C      1  0.2556233349797  0.8636951740443  0.4250601880403 1.0
C      1  0.1281998608628  0.4305928629351  0.6377261729746 1.0
C      1  0.4620666314348  0.4865799213919  0.2661362451827 1.0
C      1  0.3280069221582  0.6940600985139  0.6727663292119 1.0
C      1  0.8111230276692  0.3389001070754  0.5478752436281 1.0
C      1  0.2427275576011  0.7402453819272  0.5317742551606 1.0
C      1  0.4897277089480  0.4225252982138  0.0308823411405 1.0
C      1  0.7312723117348  0.2536576339126  0.6692776843156 1.0
C      1  0.5165827024778  0.6825504353477  0.4831298841905 1.0
C      1  0.1901733496333  0.6552892300397  0.1975712172248 1.0
C      1  0.7928373874707  0.5725829980242  0.6356187922318 1.0
C      1  0.6889512658920  0.2532854721418  0.7629541801578 1.0
C      1  0.6888965443159  0.4034958943194  0.6377835567203 1.0
C      1  0.2069239691734  0.3839801476588  0.4102282105463 1.0
C      1  0.6471149233160  0.3786435551651  0.4726153838320 1.0
C      1  0.7253551806685  0.3382901012559  0.7876744081884 1.0
C      1  0.6083050501983  0.6588663768457  0.4967634227574 1.0
C      1  0.8456752355249  0.3410024343191  0.3394937907209 1.0
C      1  0.1441860953760  0.6716167482062  0.2783584834485 1.0
C      1  0.1669684073629  0.6022528242694  0.6667685521350 1.0
C      1  0.3916172725251  0.2179666775438  0.2650170952197 1.0
C      1  0.4858690943126  0.5028633892993  0.8823532467605 1.0
C      1  0.6810274596819  0.4932618431091  0.8299578929600 1.0
C      1  0.6328553644209  0.1958772885836  0.3130837452979 1.0
C      1  0.6218053348657  0.5640063805727  0.8029691988591 1.0
C      1  0.5755303373698  0.6266306062504  0.2456742358315 1.0
C      1  0.5744958736980  0.6884943298239  0.7006508982556 1.0
C      1  0.3088399979489  0.5061816367681  0.3836005419539 1.0
END
