TITL C-21196-9671-2 -1.658 3375.00 -269.94450577 0 0 34 (C1) n - 1
REM
REM Run started: at 2020.10.17 03:45:06 in /rds/project/t2_vol4/rds-t2-cs072/BORA/CARBON/AIRSS/Generating-Clusters/Str-Search
REM VASP from code version vasp.5.4.4.18Apr17-6-g9f103f2a35 (build Oct 11 2019 16:45:47) gamma-only
REM
REM
REM
REM
REM ./C.cell (8c8f32957ea4b25f9ffc41644e092d35)
REM AIRSS Version 0.9.1 bugfix July 2018 build 013d7b7c2542+ Fri, 06 Jul 2018 19:26:36 +0100
REM compiler GCC version 4.8.5 20150623 (Red Hat 4.8.5-39)
REM options -cpp -mtune=generic -march=x86-64 -g -O0
REM seed 1207859111 -967529779 1045123875 52895457 1874418200 327730931 1723251852 -730766575 393615615 170870271 1168861418 1699322958
REM
REM C.POTCAR (d86ddea03c3ceb6dc662c8ad6801f873)
REM 
CELL 1.54180   15.00000   15.00000   15.00000   90.00000   90.00000   90.00000
LATT -1
SFAC C  
C      1  0.5759378744595  0.8248673227592  0.4873761794228 1.0
C      1  0.7426941646538  0.6037580776423  0.4369509284015 1.0
C      1  0.3634551260748  0.3744989457999  0.4798379432836 1.0
C      1  0.5211816312178  0.3737082022446  0.4106627255244 1.0
C      1  0.5288542467962  0.3686698922093  0.6581743276358 1.0
C      1  0.3245954543570  0.5720832481075  0.5630575275293 1.0
C      1  0.4068347134089  0.3968884616622  0.3246250500215 1.0
C      1  0.4361030205213  0.5315773137844  0.3715172091240 1.0
C      1  0.4720366131664  0.5368526236331  0.6403270103621 1.0
C      1  0.6522353468096  0.3840453588162  0.5319191091330 1.0
C      1  0.4699878211421  0.3164037329583  0.5959039278696 1.0
C      1  0.4318476505366  0.6024440392524  0.4358371209768 1.0
C      1  0.3577484185249  0.4715072350983  0.3579812626226 1.0
C      1  0.5465531986905  0.2923596250495  0.5462545125960 1.0
C      1  0.6067845667313  0.3447483130161  0.6054806571454 1.0
C      1  0.4782174571034  0.4451201173814  0.6758373360428 1.0
C      1  0.5243417324115  0.5692928783067  0.5713748193258 1.0
C      1  0.6240485429698  0.7478724052781  0.4491747335774 1.0
C      1  0.5842372923884  0.3409131024409  0.4711872820746 1.0
C      1  0.4882896702065  0.4475544743200  0.3549293974715 1.0
C      1  0.7427218369536  0.5235036988415  0.4648025436488 1.0
C      1  0.3892860720191  0.3650645108459  0.5724872285935 1.0
C      1  0.3870035937146  0.4358504558629  0.6387297452871 1.0
C      1  0.6044812097110  0.5362131456078  0.5265740460700 1.0
C      1  0.6669977957888  0.6621857796270  0.4353168459594 1.0
C      1  0.5089782585337  0.6401714809090  0.4895221286719 1.0
C      1  0.5363593999760  0.7389959287654  0.4824278950449 1.0
C      1  0.4252657566986  0.3465082067456  0.4078613814601 1.0
C      1  0.5988105759353  0.6069443628376  0.4668118699832 1.0
C      1  0.3143923694008  0.4508543465304  0.4416106320318 1.0
C      1  0.6778428680722  0.4764164979131  0.5162888519635 1.0
C      1  0.2921947540293  0.5308191762732  0.4851074762814 1.0
C      1  0.3459191029300  0.6092802151276  0.4757706636184 1.0
C      1  0.3737618640669  0.5320270243529  0.6282797312453 1.0
END
