TITL C-22483-7956-8 -8.782 3375.00 -1518.18912974 0 0 185 () n - 1
REM
REM Run started: at 2020.12.25 11:44:08 in /gpfs/home/chem/mssmkc/CARBON/AIRSS/Generating-Clusters/Str-Search/Only-C1/C100-200
REM VASP from code version vasp.5.4.4.18Apr17-6-g9f103f2a35 (build Oct 11 2019 16:45:47) gamma-only
REM
REM
REM
REM
REM ./C.cell (efaf0b2bf1589a83377268d7ebe2c73f)
REM AIRSS Version 0.9.1 bugfix July 2018 build 013d7b7c2542+ Fri, 06 Jul 2018 19:26:36 +0100
REM compiler GCC version 6.3.0
REM options -cpp -iprefix /gpfs/warwick/csc/orac/software/Core/GCCcore/6.3.0/bin/../lib/gcc/x86_64-pc-linux-gnu/6.3.0/ -mtune=generic -march=x86-64 -g -O0
REM seed 684141398 -1674330547 1966803453 -3340417 889879016 651851820 -858519633 -1692154485 273107574 1690671935 -1523296282 -1665699177
REM
REM C.POTCAR (d86ddea03c3ceb6dc662c8ad6801f873)
REM 
CELL 1.54180   15.00000   15.00000   15.00000   90.00000   90.00000   90.00000
LATT -1
SFAC C  
C      1  0.4926313601520  0.3307684868367  0.8100240973043 1.0
C      1  0.6267773767687  0.4422401425739  0.7829143333418 1.0
C      1  0.2605732188560  0.2274346841678  0.6370401666635 1.0
C      1  0.3803736096351  0.2056805697607  0.7320018083544 1.0
C      1  0.4676903247806  0.6109697175668  0.2908477664771 1.0
C      1  0.4695351990466  0.8324291563122  0.3397050178909 1.0
C      1  0.2257300659927  0.4636847685666  0.7115935325653 1.0
C      1  0.9048144131328  0.6576753405069  0.4481445780880 1.0
C      1  0.3310604643974  0.1693201884788  0.6583843065226 1.0
C      1  0.5623101330674  0.7462620019160  0.1799488464649 1.0
C      1  0.5714574488745  0.4882748300412  0.8618245480623 1.0
C      1  0.4315150054355  0.5189969720779  0.5584300591404 1.0
C      1  0.8196978283020  0.3609204950760  0.4600494443491 1.0
C      1  0.2978569296042  0.3750050616370  0.4713301162730 1.0
C      1  0.9149072952237  0.4914178851265  0.5056399704065 1.0
C      1  0.1256876413124  0.5497247532523  0.4580887699957 1.0
C      1  0.1517555509926  0.3658470288257  0.3919232013567 1.0
C      1  0.1941571723401  0.3064273121497  0.3335801186755 1.0
C      1  0.3680172369044  0.6813578516801  0.4921379697600 1.0
C      1  0.4303440157720  0.3108076963574  0.3901303279653 1.0
C      1  0.5803211389487  0.7307372738514  0.8576498168058 1.0
C      1  0.5422018811611  0.4524026892818  0.1401416451250 1.0
C      1  0.4673509181302  0.7695729204222  0.1745136175054 1.0
C      1  0.6370574581295  0.5635046933074  0.3798960708479 1.0
C      1  0.5986571397549  0.4184860933736  0.2891739853117 1.0
C      1  0.5748753926992  0.3286105400482  0.3069644389111 1.0
C      1  0.6200973368718  0.4052349810603  0.6224051380044 1.0
C      1  0.2743594136007  0.6406312934603  0.4898402765747 1.0
C      1  0.6070675034741  0.7351413096021  0.4311733006898 1.0
C      1  0.6950312872896  0.7468285878759  0.3796469278075 1.0
C      1  0.3291874893312  0.1370973389949  0.5596645147551 1.0
C      1  0.5120340141853  0.7581213065805  0.6740304754256 1.0
C      1  0.5353350097820  0.5399865415778  0.6860464288874 1.0
C      1  0.7272723964802  0.2129661654063  0.4396301858106 1.0
C      1  0.7431506235670  0.8014344772413  0.5839265816369 1.0
C      1  0.5354592547884  0.2412700380783  0.7890657091334 1.0
C      1  0.1814194501909  0.5740343337482  0.2191286807162 1.0
C      1  0.3378544992024  0.2666067850276  0.2292285605990 1.0
C      1  0.4746367285134  0.1816019727420  0.7449494699651 1.0
C      1  0.2234858745127  0.6392477927212  0.7559536739579 1.0
C      1  0.5416200738997  0.8965865958692  0.3131811138555 1.0
C      1  0.1824293141231  0.6847192728224  0.6078070357496 1.0
C      1  0.6993324254804  0.7127727350063  0.5753467446613 1.0
C      1  0.1552045389865  0.4226176195079  0.2461448262572 1.0
C      1  0.7116896083589  0.5870198907481  0.8137179613027 1.0
C      1  0.6305247894888  0.7783040552520  0.2349122135324 1.0
C      1  0.6076960201336  0.7232996815906  0.5356929962189 1.0
C      1  0.1730310850685  0.4072424297497  0.5678515241203 1.0
C      1  0.7669318367511  0.2850874215584  0.6731712512803 1.0
C      1  0.3303231604824  0.5094931635176  0.5880097544340 1.0
C      1  0.9251601885619  0.5441000434913  0.5842143557922 1.0
C      1  0.3019969309309  0.4472573632850  0.1888121093349 1.0
C      1  0.4191102280520  0.4341561074434  0.8660682023006 1.0
C      1  0.4403783993387  0.8228616392487  0.6798890004439 1.0
C      1  0.5163327152289  0.0925798002526  0.6031497174250 1.0
C      1  0.6964666835924  0.5457492853141  0.2044478278780 1.0
C      1  0.2577433973924  0.7349669307364  0.2537350430849 1.0
C      1  0.6029748467745  0.3070662039670  0.5678016248657 1.0
C      1  0.4353948142389  0.3703378360506  0.6490301720267 1.0
C      1  0.7693888106113  0.5776187107300  0.7297918816863 1.0
C      1  0.7280976162145  0.3179659522004  0.1803289354383 1.0
C      1  0.1280266240690  0.4413721711105  0.3373070845795 1.0
C      1  0.5091387544571  0.7577115940920  0.3968082343187 1.0
C      1  0.6263424333937  0.2385704360289  0.7701658177160 1.0
C      1  0.4768096489907  0.6253467900161  0.1045255107753 1.0
C      1  0.8954715719415  0.4929190667139  0.6582466704491 1.0
C      1  0.6803685453317  0.4414051720620  0.4333633904292 1.0
C      1  0.4583611253741  0.8805538634150  0.5252961495997 1.0
C      1  0.2693013856423  0.3139019637262  0.6825018546448 1.0
C      1  0.6516061149018  0.1584046328133  0.4124783794389 1.0
C      1  0.5422224495594  0.9048780226831  0.5511591203116 1.0
C      1  0.7241023838704  0.5534027021640  0.6406876746016 1.0
C      1  0.6708660843936  0.5110962306335  0.8540123519922 1.0
C      1  0.5215333886022  0.5897379315012  0.2187640515378 1.0
C      1  0.3281181420763  0.7788067826953  0.2552576906301 1.0
C      1  0.5547906229350  0.3238573179887  0.4886358895659 1.0
C      1  0.5954161507684  0.4736806199260  0.3740228217672 1.0
C      1  0.5789725206274  0.4663230737326  0.5534115693458 1.0
C      1  0.3150253642858  0.2068592196586  0.3027811631580 1.0
C      1  0.3596805424247  0.7707674525040  0.4749651875934 1.0
C      1  0.7515732012024  0.2610759391326  0.5836175760039 1.0
C      1  0.8544972997955  0.7158082925565  0.4184880710408 1.0
C      1  0.4736464901378  0.5268816709932  0.1543883497079 1.0
C      1  0.6706759904692  0.2600013738088  0.2000525398746 1.0
C      1  0.9256797878894  0.5831326964728  0.4981212412990 1.0
C      1  0.6900850167478  0.6213115559400  0.5813518588392 1.0
C      1  0.5057758594721  0.4730850582264  0.4264757623990 1.0
C      1  0.1997253575199  0.3404124670026  0.2450647358981 1.0
C      1  0.1368016480667  0.5971888633958  0.2958847350262 1.0
C      1  0.2772275430868  0.7943078601281  0.5276454872682 1.0
C      1  0.5055227971065  0.0948272400502  0.4224201021966 1.0
C      1  0.7772931714249  0.4886964870505  0.3257335231716 1.0
C      1  0.7134102565230  0.4304696771767  0.8091773614552 1.0
C      1  0.8730269961831  0.4049599870778  0.6235525500076 1.0
C      1  0.1788688746982  0.5847548467264  0.6108906457185 1.0
C      1  0.2988552361739  0.5099656543287  0.6836870847855 1.0
C      1  0.6304171388006  0.4598386500619  0.1963169007764 1.0
C      1  0.3808102024392  0.5735224511591  0.2672182508422 1.0
C      1  0.7506852254184  0.6609256466404  0.7824198276787 1.0
C      1  0.2645255926590  0.2539119298672  0.3757139774468 1.0
C      1  0.6448917745185  0.7832559090520  0.8151169700076 1.0
C      1  0.3083712396138  0.8292165076887  0.6099363764258 1.0
C      1  0.7766767943016  0.8217786995801  0.5032840942236 1.0
C      1  0.5832191316815  0.6322168383376  0.4250130480067 1.0
C      1  0.2239565490049  0.6452287543082  0.2719799351759 1.0
C      1  0.3370375339911  0.2895952517102  0.7675103511768 1.0
C      1  0.5089796311188  0.3704278078060  0.1203212350066 1.0
C      1  0.4231528594860  0.6991403753306  0.1208603042803 1.0
C      1  0.7244941157048  0.5694369732945  0.3435580006015 1.0
C      1  0.2201522083280  0.7177961197247  0.5279658449690 1.0
C      1  0.4951527124156  0.3772711604784  0.7198521554300 1.0
C      1  0.3898347294999  0.1051924003614  0.4993384420002 1.0
C      1  0.5057758611462  0.1230259621265  0.6798280727985 1.0
C      1  0.3814207641547  0.5094810579836  0.1967747998033 1.0
C      1  0.3410783628692  0.4084341482165  0.5512225762991 1.0
C      1  0.5039582069145  0.5723086982451  0.8458887163798 1.0
C      1  0.4941797703240  0.5968541518603  0.7447568234613 1.0
C      1  0.8188285450672  0.3625947249706  0.6903908424781 1.0
C      1  0.2937498213156  0.7725578494551  0.6882753108542 1.0
C      1  0.6688492222156  0.4706106645087  0.5171424469654 1.0
C      1  0.7032932206411  0.6255178708502  0.2657613343610 1.0
C      1  0.2552778304103  0.5603968146920  0.5467345661006 1.0
C      1  0.4883375959850  0.6568237864223  0.3784118249008 1.0
C      1  0.6875267939187  0.7165589714534  0.2833216422448 1.0
C      1  0.6891227816997  0.8231540827432  0.7366868629376 1.0
C      1  0.3886282527797  0.1492560143571  0.3200650941279 1.0
C      1  0.4256013670802  0.2427717430088  0.1975952627865 1.0
C      1  0.5420047619332  0.6594048100149  0.8764761160559 1.0
C      1  0.1624423361272  0.5106129754167  0.5386644892239 1.0
C      1  0.5754227240440  0.1272562931413  0.3652755543032 1.0
C      1  0.1208060051823  0.5322433765252  0.3685328832913 1.0
C      1  0.4193167519415  0.8009398463258  0.2525601671360 1.0
C      1  0.2714385375839  0.6294547665010  0.8333444625522 1.0
C      1  0.2209155506151  0.7119413987844  0.6919298123581 1.0
C      1  0.6055258228555  0.8609556710654  0.2737315202225 1.0
C      1  0.7227362845469  0.4081949280745  0.1852851360071 1.0
C      1  0.2879874925395  0.3485198279596  0.2096569335355 1.0
C      1  0.6627740837682  0.1748803566138  0.5003836899657 1.0
C      1  0.5691746315743  0.7762387962410  0.6057914377804 1.0
C      1  0.4857937565648  0.0864982926448  0.5171800896307 1.0
C      1  0.5570840366891  0.6532148406691  0.1564225964224 1.0
C      1  0.6595265220013  0.2294542648617  0.5760223089202 1.0
C      1  0.4445987961704  0.5320214615350  0.4608491042959 1.0
C      1  0.4404625025038  0.4193643324135  0.5624838703338 1.0
C      1  0.3915967780172  0.3454122447328  0.8215720237283 1.0
C      1  0.6979967620420  0.2541730039909  0.7302765970136 1.0
C      1  0.7796252775670  0.2774563120080  0.4876083292057 1.0
C      1  0.7977732726100  0.4263047430247  0.7599828498173 1.0
C      1  0.7758517146018  0.7681628363972  0.4255541779691 1.0
C      1  0.4704389870032  0.2986063949197  0.1407482090979 1.0
C      1  0.6032600387461  0.8706124680460  0.6048296101504 1.0
C      1  0.3465484462446  0.3490418468171  0.6303593038879 1.0
C      1  0.6015133806324  0.2482828301552  0.2579888397510 1.0
C      1  0.6909749302280  0.8574750112396  0.6504273221250 1.0
C      1  0.4150204428239  0.6190503570199  0.4336239834207 1.0
C      1  0.5103167684674  0.4094812112222  0.8767395007042 1.0
C      1  0.2274915217646  0.2505677502257  0.4738835630055 1.0
C      1  0.5321364150029  0.5512190600868  0.5873501566755 1.0
C      1  0.5495773769556  0.1677396512109  0.2829560914702 1.0
C      1  0.3040167676076  0.6065253330518  0.3158937808265 1.0
C      1  0.7667071965282  0.4824017430901  0.2263711402840 1.0
C      1  0.2134331010162  0.4860297308640  0.2037013966004 1.0
C      1  0.4013460234982  0.8629396111804  0.6059645668187 1.0
C      1  0.4129087977817  0.1103034530744  0.4019317123077 1.0
C      1  0.8762511366758  0.4062896891062  0.5234234518031 1.0
C      1  0.5195477843017  0.3067606893616  0.3926011614414 1.0
C      1  0.4574948574649  0.6890790860629  0.7188414994998 1.0
C      1  0.2088323745893  0.5586418738878  0.7011410543911 1.0
C      1  0.4380439092489  0.8220874907336  0.4422218908752 1.0
C      1  0.5160386160041  0.4111873995967  0.5012175492536 1.0
C      1  0.4600694920094  0.1721518783853  0.2569304236276 1.0
C      1  0.4090595163348  0.5309328794980  0.8689818893450 1.0
C      1  0.3333869624537  0.5803386349790  0.8621639053305 1.0
C      1  0.2013544642197  0.3881453171283  0.6554206345963 1.0
C      1  0.8422079528911  0.5091684868230  0.7367736797312 1.0
C      1  0.1974743659583  0.3518602634633  0.4823243906688 1.0
C      1  0.7058257468446  0.4680112787380  0.6057658359431 1.0
C      1  0.7684624494188  0.4225706134645  0.3950410849825 1.0
C      1  0.3426565051197  0.3223469469084  0.4072861623589 1.0
C      1  0.2542454147966  0.2000108262088  0.5448818126457 1.0
C      1  0.3174218155287  0.6130633498519  0.4033452560362 1.0
C      1  0.5700565707074  0.4408345470097  0.7048543186370 1.0
C      1  0.3832467327029  0.7546744608501  0.7226571330259 1.0
C      1  0.5927847657233  0.6218446579612  0.5369830388163 1.0
C      1  0.7266142706683  0.7508766533565  0.7847133025863 1.0
END
