TITL C-22833-8900-4 -8.28 3375.00 -1421.29807380 0 0 174 () n - 1
REM
REM Run started: at 2020.12.25 06:51:57 in /gpfs/home/chem/mssmkc/CARBON/AIRSS/Generating-Clusters/Str-Search/Only-C1/C100-200
REM VASP from code version vasp.5.4.4.18Apr17-6-g9f103f2a35 (build Oct 11 2019 16:45:47) gamma-only
REM
REM
REM
REM
REM ./C.cell (efaf0b2bf1589a83377268d7ebe2c73f)
REM AIRSS Version 0.9.1 bugfix July 2018 build 013d7b7c2542+ Fri, 06 Jul 2018 19:26:36 +0100
REM compiler GCC version 6.3.0
REM options -cpp -iprefix /gpfs/warwick/csc/orac/software/Core/GCCcore/6.3.0/bin/../lib/gcc/x86_64-pc-linux-gnu/6.3.0/ -mtune=generic -march=x86-64 -g -O0
REM seed 2093929902 -273181387 -379871492 1102303664 -1581900268 41058287 260905959 -1836166942 1835957661 1604871265 -1532896890 1851888147
REM
REM C.POTCAR (d86ddea03c3ceb6dc662c8ad6801f873)
REM 
CELL 1.54180   15.00000   15.00000   15.00000   90.00000   90.00000   90.00000
LATT -1
SFAC C  
C      1  0.6714188464063  0.8402211744864  0.2945593269396 1.0
C      1  0.4577860952915  0.2840058243578  0.1833909194486 1.0
C      1  0.6209909748382  0.1449599605629  0.4828921523408 1.0
C      1  0.5466412012771  0.2682864573803  0.2091903907945 1.0
C      1  0.5242124584591  0.7746658319372  0.2241054333087 1.0
C      1  0.6010154045513  0.4520531850475  0.1594403249435 1.0
C      1  0.4595332004061  0.4003187310732  0.8269396562945 1.0
C      1  0.1594241180128  0.4439782627451  0.3976484439145 1.0
C      1  0.5780550985466  0.8364007198783  0.2723911847487 1.0
C      1  0.8276260375043  0.4484963746354  0.3023532679513 1.0
C      1  0.6558975281346  0.5672749939713  0.4319402653249 1.0
C      1  0.6766985456105  0.8178617035652  0.5261827560016 1.0
C      1  0.3828538775468  0.1355183308466  0.3636441727007 1.0
C      1  0.8552714174138  0.6086911211682  0.4095074457848 1.0
C      1  0.3015383140556  0.8085887489584  0.3852396066857 1.0
C      1  0.3585414076579  0.8245685570195  0.5426434078801 1.0
C      1  0.3899087932567  0.1331455116385  0.6064141947569 1.0
C      1  0.3039911437608  0.2814228356673  0.7141517665934 1.0
C      1  0.1806034738408  0.4465934299432  0.4972373051294 1.0
C      1  0.3220261536628  0.7816502047333  0.2891889241229 1.0
C      1  0.1682695555043  0.4038983814099  0.2277646851886 1.0
C      1  0.3815269460327  0.2739262084008  0.7740395727160 1.0
C      1  0.5049974564102  0.4408899031901  0.1502582599478 1.0
C      1  0.6287156610236  0.3100345834536  0.2235385867368 1.0
C      1  0.3407573804738  0.3423711610762  0.6429914301096 1.0
C      1  0.2401592947175  0.7361180123377  0.4120355771961 1.0
C      1  0.6089366195542  0.3730859173742  0.5800294236048 1.0
C      1  0.8706398452232  0.3500817947817  0.5376910298525 1.0
C      1  0.8522943488145  0.4438517262058  0.5639701343073 1.0
C      1  0.3041840686069  0.3879573523631  0.8749151938289 1.0
C      1  0.7082603117960  0.7929834367719  0.6253299148012 1.0
C      1  0.3890103206654  0.4711268299502  0.4711837943768 1.0
C      1  0.7213069330669  0.6680718591883  0.5256799076732 1.0
C      1  0.2641566558184  0.6647862078936  0.7462244424136 1.0
C      1  0.7745486861721  0.4689247530206  0.7648502161678 1.0
C      1  0.8433614465246  0.5414658635659  0.3258708530963 1.0
C      1  0.6190582315967  0.5677401435466  0.8385663677092 1.0
C      1  0.5491416535986  0.3579057257674  0.8119366666032 1.0
C      1  0.3916948922634  0.5605114026158  0.1033256609493 1.0
C      1  0.4274827253115  0.7781365243348  0.2554746782527 1.0
C      1  0.4171671416740  0.6179995206990  0.8879947882667 1.0
C      1  0.3487831601280  0.5913438319789  0.4040291313714 1.0
C      1  0.6107969716825  0.4251436804985  0.8375788898979 1.0
C      1  0.1255052519927  0.3504517648951  0.2763977594729 1.0
C      1  0.7717250294177  0.6062408099722  0.2890014282419 1.0
C      1  0.2273407001196  0.3474087475652  0.8379098290303 1.0
C      1  0.3861349148482  0.3322016955485  0.5641258290206 1.0
C      1  0.5340249641495  0.4382104322178  0.5489712674441 1.0
C      1  0.2415183532461  0.7274947992825  0.5966607533842 1.0
C      1  0.5569642219448  0.5399769222384  0.5813869480014 1.0
C      1  0.2471627529068  0.5428530450448  0.8661044003853 1.0
C      1  0.7130868545270  0.8752891077903  0.4510131432521 1.0
C      1  0.7270625086600  0.4392052837431  0.2769053314233 1.0
C      1  0.1573032475866  0.5246773123217  0.3384441100007 1.0
C      1  0.7398241019919  0.2672070292175  0.5225580609014 1.0
C      1  0.6247487459448  0.6291425500622  0.1724230293540 1.0
C      1  0.3259150986434  0.4921544117171  0.4006697749538 1.0
C      1  0.7991728101392  0.6265556599719  0.6564119178717 1.0
C      1  0.6346912869610  0.2486872800479  0.7256518873392 1.0
C      1  0.6121507226803  0.1764953996206  0.3475640131897 1.0
C      1  0.4543738410672  0.1467408352987  0.4286647160495 1.0
C      1  0.7856347964421  0.7348112124865  0.6223508532531 1.0
C      1  0.1924475732360  0.2179010633541  0.4527834168851 1.0
C      1  0.4373243735288  0.4095600081317  0.5234502736570 1.0
C      1  0.3253425208043  0.4963118598281  0.1388112113360 1.0
C      1  0.5464881181366  0.1471193193079  0.4184830062203 1.0
C      1  0.6372359080015  0.7748845302594  0.6850329903184 1.0
C      1  0.4587293086274  0.7988355379379  0.6648061036987 1.0
C      1  0.3215096253154  0.5166532878256  0.6597524008046 1.0
C      1  0.6540393681185  0.3101483438238  0.5130780245014 1.0
C      1  0.2898086250663  0.6364097350933  0.2018471684200 1.0
C      1  0.8675200526341  0.6341422588847  0.5066754128525 1.0
C      1  0.6230168010720  0.5229361383499  0.3445637246586 1.0
C      1  0.8686911495553  0.5077484206337  0.6308207121133 1.0
C      1  0.8115417638922  0.7152737923819  0.5305899839371 1.0
C      1  0.3970494481532  0.5263467046802  0.9117881285890 1.0
C      1  0.3348771344895  0.0649703736896  0.6050984125584 1.0
C      1  0.2544482736376  0.2750608501981  0.5057366646019 1.0
C      1  0.5438155011102  0.7795378397518  0.7025263044745 1.0
C      1  0.3820047800339  0.3404536828367  0.8435683438523 1.0
C      1  0.4353666649299  0.3752855380755  0.1565288654873 1.0
C      1  0.6052576484144  0.2291232435625  0.2704019754022 1.0
C      1  0.6435104738684  0.5512376144185  0.6306154337266 1.0
C      1  0.8066348555975  0.2982058352286  0.3846702799414 1.0
C      1  0.2832586085395  0.6498177887173  0.4462566639170 1.0
C      1  0.7080071070332  0.6066145501032  0.2156756598034 1.0
C      1  0.6187366404974  0.4296636964706  0.4962926298454 1.0
C      1  0.4016404302135  0.6904257007821  0.8297249545757 1.0
C      1  0.4706927253253  0.6230123514420  0.1925660786109 1.0
C      1  0.3769289307649  0.6400864271502  0.1515550639614 1.0
C      1  0.6288023508957  0.8974780663127  0.4845790321504 1.0
C      1  0.5977435299331  0.7240946399209  0.7557970600811 1.0
C      1  0.5593301385543  0.9091019595625  0.4244472979317 1.0
C      1  0.8466833501664  0.3682480783303  0.4446054388665 1.0
C      1  0.1620412514454  0.6099129200041  0.3765988441228 1.0
C      1  0.6476932881708  0.3953573283717  0.6644019240322 1.0
C      1  0.4475608897517  0.7936389153222  0.5699337203200 1.0
C      1  0.5653686997193  0.4993729960464  0.8775322128856 1.0
C      1  0.4823449586593  0.7114619535841  0.5287093212464 1.0
C      1  0.3446540198133  0.2583721712992  0.5151229161926 1.0
C      1  0.5414994105691  0.8855753529260  0.3458423867667 1.0
C      1  0.2399204063979  0.6040844693184  0.8107237976782 1.0
C      1  0.4895306302598  0.6627589197330  0.8506506521374 1.0
C      1  0.8680961471440  0.5941776478262  0.5898269422097 1.0
C      1  0.6146987001365  0.1402864311908  0.5751119816523 1.0
C      1  0.6834793572302  0.1758440271308  0.4125206452930 1.0
C      1  0.2525177996670  0.7085281746792  0.2580178834494 1.0
C      1  0.3917482855458  0.6276778634073  0.3262772837981 1.0
C      1  0.1201346438205  0.3544688837827  0.3695542344685 1.0
C      1  0.4727508485588  0.4781378140708  0.8881803045544 1.0
C      1  0.1910370730403  0.3505682077453  0.5079358199799 1.0
C      1  0.2623307068387  0.5449763487811  0.1951785930237 1.0
C      1  0.7813140732017  0.6556950122384  0.3734106937574 1.0
C      1  0.5500148406429  0.2747517857858  0.7637575425179 1.0
C      1  0.7116507181904  0.6069222379809  0.6054121669409 1.0
C      1  0.2072225920090  0.4901254748647  0.2569310207760 1.0
C      1  0.4639907472434  0.2357367924378  0.7371103204621 1.0
C      1  0.3045939900183  0.7961570900388  0.6192488460415 1.0
C      1  0.1989994745896  0.6898016151085  0.3342176914770 1.0
C      1  0.5739953875691  0.5869302122704  0.4901148340606 1.0
C      1  0.4238515339591  0.4529313348900  0.7382328061271 1.0
C      1  0.8086604562476  0.2931145863503  0.5866778792646 1.0
C      1  0.6978580376673  0.3249416226770  0.7148583571926 1.0
C      1  0.3409592699941  0.7235766706187  0.7641070757795 1.0
C      1  0.4173781942724  0.5402529837274  0.6866656614552 1.0
C      1  0.2497186306959  0.4629790651808  0.3525332252551 1.0
C      1  0.4261833219266  0.6302204263574  0.5506888319102 1.0
C      1  0.4201266375425  0.5688628264760  0.4720638324976 1.0
C      1  0.4879096043303  0.5372655283295  0.1284367398457 1.0
C      1  0.5900109201043  0.5459026009569  0.1350795292815 1.0
C      1  0.7873302195375  0.3194488934187  0.6737804574339 1.0
C      1  0.2302187532808  0.3041327987629  0.7657706071534 1.0
C      1  0.2189127547256  0.7023080199249  0.5039066220530 1.0
C      1  0.4700916836532  0.5787151681433  0.6225991759214 1.0
C      1  0.3809357142212  0.1633735012661  0.5025542757434 1.0
C      1  0.3113358912255  0.4831844710170  0.8964044609227 1.0
C      1  0.8220092976496  0.5309957261725  0.7099808322605 1.0
C      1  0.1980028822447  0.5311798513577  0.5364210390184 1.0
C      1  0.7031335891282  0.6550874914795  0.4302715750367 1.0
C      1  0.6280781673470  0.1791172782566  0.6639126297856 1.0
C      1  0.6501792196352  0.7263528434088  0.4900306908723 1.0
C      1  0.4641657466665  0.5861569995504  0.2837660510785 1.0
C      1  0.5268580555968  0.5451806174385  0.3416854281804 1.0
C      1  0.1381027638161  0.2987143029315  0.4417980940704 1.0
C      1  0.7029687092864  0.4780870183982  0.4581520679350 1.0
C      1  0.3659716191848  0.7816195752020  0.6943476414607 1.0
C      1  0.6743132423092  0.4265641709305  0.3681239349242 1.0
C      1  0.8557968330091  0.3697654371647  0.3480351801092 1.0
C      1  0.6938435004548  0.5329863775498  0.2749676463409 1.0
C      1  0.6776187666209  0.4908374499777  0.7920603138443 1.0
C      1  0.2464438069938  0.5604429050367  0.6187577036471 1.0
C      1  0.6327051879733  0.3581565435468  0.4310102342994 1.0
C      1  0.7818143037019  0.3735779970351  0.7489929966266 1.0
C      1  0.3825196403395  0.1618582513483  0.2752831583300 1.0
C      1  0.7205679009728  0.8601493369008  0.3597502750061 1.0
C      1  0.5806025658762  0.6550055059850  0.8194323010397 1.0
C      1  0.1866701694735  0.6110535882930  0.4745268383640 1.0
C      1  0.2380643524659  0.6522022677997  0.6540778539239 1.0
C      1  0.3139057336955  0.1275359368896  0.4288307817325 1.0
C      1  0.7973506980100  0.4477355934193  0.4889209212728 1.0
C      1  0.7577986774766  0.2330594227394  0.4304109541677 1.0
C      1  0.6512868088802  0.4808092572687  0.6957717436390 1.0
C      1  0.2237146965628  0.1407071615924  0.4192307133298 1.0
C      1  0.5042011433912  0.5611088588826  0.4294411904939 1.0
C      1  0.3505020542214  0.4281825028823  0.6854300308271 1.0
C      1  0.3472311605511  0.4085082742651  0.1542121172893 1.0
C      1  0.6649049513131  0.3949533662560  0.2080707771683 1.0
C      1  0.5460419462055  0.1435082573084  0.6390794535784 1.0
C      1  0.5479663945934  0.6888411547925  0.1872858960475 1.0
C      1  0.4613296342403  0.1704340895466  0.6649972109139 1.0
C      1  0.4015569417813  0.2189923721259  0.2183998663363 1.0
C      1  0.3407718833340  0.8448499507878  0.4564920467612 1.0
C      1  0.5639099670270  0.6861907256873  0.5017374115503 1.0
C      1  0.3943182440466  0.7174098796234  0.3089382599740 1.0
END
