TITL C-22833-8900-28 -8.559 3375.00 -1510.83964324 0 0 184 () n - 1
REM
REM Run started: at 2020.12.26 07:23:04 in /gpfs/home/chem/mssmkc/CARBON/AIRSS/Generating-Clusters/Str-Search/Only-C1/C100-200
REM VASP from code version vasp.5.4.4.18Apr17-6-g9f103f2a35 (build Oct 11 2019 16:45:47) gamma-only
REM
REM
REM
REM
REM ./C.cell (efaf0b2bf1589a83377268d7ebe2c73f)
REM AIRSS Version 0.9.1 bugfix July 2018 build 013d7b7c2542+ Fri, 06 Jul 2018 19:26:36 +0100
REM compiler GCC version 6.3.0
REM options -cpp -iprefix /gpfs/warwick/csc/orac/software/Core/GCCcore/6.3.0/bin/../lib/gcc/x86_64-pc-linux-gnu/6.3.0/ -mtune=generic -march=x86-64 -g -O0
REM seed 1678268011 -1554569579 1954138484 -2069725102 590237584 388790322 -1795931726 685441178 1887867563 1896822538 459754372 1008256232
REM
REM C.POTCAR (d86ddea03c3ceb6dc662c8ad6801f873)
REM 
CELL 1.54180   15.00000   15.00000   15.00000   90.00000   90.00000   90.00000
LATT -1
SFAC C  
C      1  0.2276726443602  0.2809067571310  0.4417956592807 1.0
C      1  0.5839361375909  0.7215352388855  0.4154502999695 1.0
C      1  0.7230338525812  0.7839217049714  0.4416502419890 1.0
C      1  0.5634734710822  0.5501862923725  0.7646911403151 1.0
C      1  0.0963331695830  0.4798736179709  0.3848772197847 1.0
C      1  0.7694911187430  0.2439039744708  0.4970280194354 1.0
C      1  0.3878527427430  0.5282154803448  0.5509909528452 1.0
C      1  0.8476952516480  0.4661409595726  0.5135997175364 1.0
C      1  0.4943772070613  0.3653852064820  0.4463145348222 1.0
C      1  0.5967077211978  0.2152519112599  0.7324589895754 1.0
C      1  0.6884917584110  0.1834494836644  0.4973952603703 1.0
C      1  0.4305633071312  0.4662971629786  0.1093235195533 1.0
C      1  0.4740578455324  0.5825582958957  0.3566861150172 1.0
C      1  0.4655741289967  0.5185713946089  0.8745982238294 1.0
C      1  0.5381598824095  0.3229253149178  0.5984839003505 1.0
C      1  0.4315014318429  0.2194391785875  0.2682131813784 1.0
C      1  0.0873496641307  0.5616036565502  0.3673317265518 1.0
C      1  0.2278125907345  0.5821851026402  0.7165622822371 1.0
C      1  0.4908520941974  0.2557855870689  0.1277295265584 1.0
C      1  0.6622174516858  0.4133326286319  0.7554527242073 1.0
C      1  0.5652009981282  0.5954984503755  0.5335834777274 1.0
C      1  0.4786496012478  0.6424429741069  0.1235917863599 1.0
C      1  0.4161850555632  0.7234904789205  0.3419601338108 1.0
C      1  0.4729087263832  0.5820572108675  0.5500690581489 1.0
C      1  0.2879227598977  0.5536827644708  0.7894888475481 1.0
C      1  0.2212617310326  0.7670576292777  0.3701915414813 1.0
C      1  0.5267480251397  0.3312441070474  0.0890944288217 1.0
C      1  0.6624950583395  0.7628298039821  0.3548054009560 1.0
C      1  0.4452420489749  0.8707314344748  0.5602692324446 1.0
C      1  0.4477752331266  0.6154235801041  0.8826842160882 1.0
C      1  0.3129474993413  0.6618757314877  0.5711708435478 1.0
C      1  0.7185406772241  0.6887305769755  0.8045925380260 1.0
C      1  0.7418561719452  0.6123084511009  0.1856156059541 1.0
C      1  0.4405333017109  0.7189267670519  0.4838219223335 1.0
C      1  0.4862957009671  0.1395636350798  0.5283770634628 1.0
C      1  0.6156664260937  0.6248041694748  0.6157908662212 1.0
C      1  0.6300099085612  0.3456839974464  0.6084452967507 1.0
C      1  0.2682326374608  0.2770319833057  0.6020526426396 1.0
C      1  0.5559082195512  0.5773030664882  0.2933817586453 1.0
C      1  0.3135430527528  0.4563195360649  0.2248216735077 1.0
C      1  0.7176946515370  0.5022841158498  0.5781642295355 1.0
C      1  0.1501792919960  0.7168709992212  0.3577988676238 1.0
C      1  0.5209375027450  0.8763392227732  0.6984076223455 1.0
C      1  0.4539091078420  0.3570607454054  0.8443296334297 1.0
C      1  0.3598716855213  0.4131964544113  0.1528141457289 1.0
C      1  0.6597709341266  0.5632331735168  0.4260439186560 1.0
C      1  0.7484128090830  0.5194054839760  0.1691788870627 1.0
C      1  0.4177545548356  0.1364736940656  0.4680859281654 1.0
C      1  0.7792812906683  0.5382073232588  0.7540292377848 1.0
C      1  0.8442568719776  0.3994609471843  0.4430581847508 1.0
C      1  0.1035683670364  0.6462551173514  0.3483011754158 1.0
C      1  0.5286896424653  0.7953952819401  0.2522424461804 1.0
C      1  0.6224263227267  0.1861489445815  0.4283590601860 1.0
C      1  0.6221053743963  0.3939141960965  0.8453682396279 1.0
C      1  0.3751113557735  0.3581527245275  0.3517783887774 1.0
C      1  0.7828752123782  0.7143360137256  0.4189634954964 1.0
C      1  0.1706779748896  0.7678536102826  0.6934329451288 1.0
C      1  0.2825623936827  0.5421924081015  0.4259654286658 1.0
C      1  0.4443456741342  0.7502886951681  0.2495466857072 1.0
C      1  0.6380446577378  0.7276037366180  0.8070049819118 1.0
C      1  0.1177550325743  0.4416404462905  0.5926898424005 1.0
C      1  0.6933169116470  0.7857636167732  0.5365739347662 1.0
C      1  0.6830908775841  0.4943583329223  0.4893453984174 1.0
C      1  0.6239337546230  0.6455709672910  0.4700463567355 1.0
C      1  0.6058721450847  0.4503832942874  0.1269476429000 1.0
C      1  0.4141678892870  0.4427694375551  0.8498832460027 1.0
C      1  0.4162869086294  0.6751238530017  0.5657805027383 1.0
C      1  0.2108631184406  0.3355948891787  0.2905050935616 1.0
C      1  0.5587303499717  0.7079562220183  0.7530002149723 1.0
C      1  0.2621042620350  0.4746870667616  0.5011275496669 1.0
C      1  0.5309899752028  0.8726701754698  0.6042569292423 1.0
C      1  0.8032747665493  0.4446739283326  0.6030246252255 1.0
C      1  0.8537622831050  0.5842671527018  0.6235516487535 1.0
C      1  0.6341503238805  0.3473065661492  0.5138488127313 1.0
C      1  0.1211461387085  0.4284998474220  0.6860566450623 1.0
C      1  0.5466129946336  0.6282016225062  0.6981630931042 1.0
C      1  0.7693199653691  0.6394739380296  0.7512045749458 1.0
C      1  0.6253716632970  0.4238534892762  0.3643978557760 1.0
C      1  0.5751040129513  0.1642736831361  0.6518287429161 1.0
C      1  0.6287157389438  0.5275727684199  0.3387655956011 1.0
C      1  0.5429876210056  0.3034557686435  0.5027281043442 1.0
C      1  0.4387605357822  0.2757107360777  0.7877398398550 1.0
C      1  0.5120554762089  0.1948358474421  0.3139508238574 1.0
C      1  0.7450078375814  0.7051712620986  0.3296772190105 1.0
C      1  0.4814135797708  0.7502050499347  0.8047008330606 1.0
C      1  0.8562992044571  0.4256555858921  0.3523938604170 1.0
C      1  0.4536869262475  0.4134685464646  0.3078624111510 1.0
C      1  0.6001885468897  0.8086577349696  0.2928799571415 1.0
C      1  0.1044902458178  0.5167517032841  0.6481260190477 1.0
C      1  0.2720880524406  0.3875816240018  0.7498229963142 1.0
C      1  0.3556164612869  0.4340836395670  0.5297413169114 1.0
C      1  0.8356423059925  0.5093025591460  0.6769814239696 1.0
C      1  0.7696743374292  0.4604408364709  0.2496333186854 1.0
C      1  0.5996585252011  0.8335256703992  0.5453201400594 1.0
C      1  0.6643005072608  0.4112891012121  0.4536241597986 1.0
C      1  0.4919536508831  0.4381987951192  0.6927458644035 1.0
C      1  0.5695426904946  0.6668398616129  0.1345337655856 1.0
C      1  0.6116097825406  0.2067404423038  0.3349496149893 1.0
C      1  0.8180275467079  0.6631907368108  0.4944470749176 1.0
C      1  0.3334071978821  0.1722521722482  0.4913714266433 1.0
C      1  0.4607521452102  0.6191367485911  0.6408407240999 1.0
C      1  0.4067487173983  0.6783026228766  0.8216561954999 1.0
C      1  0.1419647233804  0.6914164207855  0.6417751613582 1.0
C      1  0.7012175836066  0.5790500278412  0.6279941041383 1.0
C      1  0.5597850156791  0.7203988382833  0.8642587678143 1.0
C      1  0.7663233697355  0.7078518172007  0.5724576592791 1.0
C      1  0.6860800910892  0.2499547708810  0.7188657615834 1.0
C      1  0.4704356769046  0.3692611940969  0.6365447389434 1.0
C      1  0.4171264724496  0.6871872148231  0.1857296510921 1.0
C      1  0.5834393282599  0.2722856086705  0.1397181949385 1.0
C      1  0.6463559222652  0.4832566289642  0.8724598945009 1.0
C      1  0.7784167559887  0.3523146882695  0.6300921386262 1.0
C      1  0.3948583941859  0.4707068888925  0.6954830189421 1.0
C      1  0.2185706304999  0.3155225067962  0.5317557666914 1.0
C      1  0.3070141368212  0.5734039475560  0.5150977775283 1.0
C      1  0.7595625667781  0.3009090364285  0.3325686901719 1.0
C      1  0.3793757778001  0.7738084716462  0.4236040538004 1.0
C      1  0.6419394314500  0.3046732372232  0.2091345185879 1.0
C      1  0.3628525777768  0.6026201999092  0.1870929315132 1.0
C      1  0.3817988302346  0.2515316506959  0.3563459425801 1.0
C      1  0.6379008131656  0.3977201847740  0.2028230124405 1.0
C      1  0.7142571631575  0.4876360256147  0.7987795991319 1.0
C      1  0.3819144250949  0.5559988672981  0.6501913341669 1.0
C      1  0.1421031951755  0.5982877973574  0.6768266872428 1.0
C      1  0.4856410881449  0.8389147886846  0.7631604544060 1.0
C      1  0.5486610444608  0.3341411604399  0.8495580753965 1.0
C      1  0.4533831012870  0.4815247646153  0.3793142437476 1.0
C      1  0.2959334728681  0.3865806631492  0.2930253163026 1.0
C      1  0.3428323743216  0.3144307107404  0.1681322786968 1.0
C      1  0.1334506578426  0.4048315311296  0.4234159042599 1.0
C      1  0.6493051978316  0.6129306162803  0.1400137851139 1.0
C      1  0.7837806683566  0.6478079363572  0.6520173321045 1.0
C      1  0.6781136966246  0.2612102772491  0.2909327094130 1.0
C      1  0.3816176416818  0.2550972105345  0.7183090945313 1.0
C      1  0.2261593611775  0.8300953856976  0.6915569258408 1.0
C      1  0.5369093635130  0.6374213231515  0.9047169191060 1.0
C      1  0.5311055327441  0.4018134958202  0.3685044949124 1.0
C      1  0.3249114758987  0.2009791481785  0.5825611820082 1.0
C      1  0.6695177165161  0.6865572346076  0.5495213879756 1.0
C      1  0.2974953919404  0.8707998834720  0.6546208352270 1.0
C      1  0.5361752272508  0.2564925450085  0.7920791708092 1.0
C      1  0.1739206975221  0.3322717087117  0.3800723284471 1.0
C      1  0.3971291830318  0.1889371012022  0.6484279064958 1.0
C      1  0.4558666855789  0.8230952033055  0.4754601245769 1.0
C      1  0.5171747850766  0.4238043711969  0.0939142316571 1.0
C      1  0.3643634315435  0.8805530586099  0.6061267157086 1.0
C      1  0.5756684973562  0.4668850744455  0.7228301732507 1.0
C      1  0.3110712569377  0.5472065450208  0.2472533867946 1.0
C      1  0.8539649669348  0.5759070135940  0.5263377198282 1.0
C      1  0.7826567681666  0.2669833057949  0.5914584441342 1.0
C      1  0.5356684693865  0.2055527412639  0.4703208596053 1.0
C      1  0.8075908055026  0.3726515609889  0.2898622186349 1.0
C      1  0.3875004705080  0.6275660048850  0.3371571376871 1.0
C      1  0.6948151585054  0.3464464672758  0.6890144739774 1.0
C      1  0.6730377101138  0.4506833160196  0.2824010303997 1.0
C      1  0.6584277724812  0.1641745108569  0.5919179941466 1.0
C      1  0.2516925188383  0.7282088425436  0.5242581578767 1.0
C      1  0.3366261829164  0.4623382333205  0.7841775839848 1.0
C      1  0.1859574239216  0.4074299585050  0.7454448763537 1.0
C      1  0.4914747812984  0.6817641213242  0.4013076419406 1.0
C      1  0.8540644823970  0.5971826098402  0.3018272980529 1.0
C      1  0.7240648249177  0.2091486507868  0.6434795903960 1.0
C      1  0.5533927234285  0.8031340927728  0.4695362089590 1.0
C      1  0.1770943229551  0.4109269882279  0.5178123251964 1.0
C      1  0.1706649874144  0.7119779351696  0.5585177941774 1.0
C      1  0.4204610629216  0.5609158336333  0.1213098359430 1.0
C      1  0.4139036899820  0.2500137335166  0.1805244621611 1.0
C      1  0.3066178908920  0.5734710949958  0.3422348998204 1.0
C      1  0.7931849206449  0.3049128500796  0.4285801521645 1.0
C      1  0.5796412728556  0.6241559071567  0.2195718805499 1.0
C      1  0.3139915290764  0.3233442117337  0.6810275903758 1.0
C      1  0.4838567346427  0.1511188956511  0.6218977940551 1.0
C      1  0.2686302946143  0.3050034704224  0.2306730261173 1.0
C      1  0.4033142709031  0.4062359365308  0.4419738519978 1.0
C      1  0.2995635608125  0.2239845734956  0.4192450576880 1.0
C      1  0.4629281732829  0.1969518341880  0.3997354765489 1.0
C      1  0.3067770501589  0.6236549051739  0.6712360662896 1.0
C      1  0.7800631031025  0.6485085678289  0.2655134962244 1.0
C      1  0.3743050707264  0.3918695159190  0.6264771222056 1.0
C      1  0.2805299266657  0.7694637383627  0.4397621518022 1.0
C      1  0.8412141497003  0.5101796196587  0.3088044031790 1.0
C      1  0.3400415475084  0.6366621099652  0.7706201452423 1.0
C      1  0.6659091153425  0.5185640420859  0.1175410662330 1.0
C      1  0.5668584478122  0.5461491169624  0.8692756166516 1.0
END
