TITL C-22483-7956-1 -8.761 3375.00 -1566.67844362 0 0 190 () n - 1
REM
REM Run started: at 2020.12.25 04:26:55 in /gpfs/home/chem/mssmkc/CARBON/AIRSS/Generating-Clusters/Str-Search/Only-C1/C100-200
REM VASP from code version vasp.5.4.4.18Apr17-6-g9f103f2a35 (build Oct 11 2019 16:45:47) gamma-only
REM
REM
REM
REM
REM ./C.cell (efaf0b2bf1589a83377268d7ebe2c73f)
REM AIRSS Version 0.9.1 bugfix July 2018 build 013d7b7c2542+ Fri, 06 Jul 2018 19:26:36 +0100
REM compiler GCC version 6.3.0
REM options -cpp -iprefix /gpfs/warwick/csc/orac/software/Core/GCCcore/6.3.0/bin/../lib/gcc/x86_64-pc-linux-gnu/6.3.0/ -mtune=generic -march=x86-64 -g -O0
REM seed 1350451325 154280946 38386487 1292199242 -876941747 -592260158 -594556204 781764505 -1216094636 259392561 -1359938117 -2077941152
REM
REM C.POTCAR (d86ddea03c3ceb6dc662c8ad6801f873)
REM 
CELL 1.54180   15.00000   15.00000   15.00000   90.00000   90.00000   90.00000
LATT -1
SFAC C  
C      1  0.5379769494965  0.3731621040092  0.3260748484622 1.0
C      1  0.3673474467464  0.4749646773736  0.1358348864993 1.0
C      1  0.4291787947548  0.8449282179754  0.7102305648045 1.0
C      1  0.7820789136756  0.3893435442334  0.2549646166316 1.0
C      1  0.5476357624871  0.5726701225381  0.6606665721131 1.0
C      1  0.1597642443076  0.4652494704185  0.7669565137267 1.0
C      1  0.7971472887038  0.7742815156335  0.6228775820682 1.0
C      1  0.7868993639210  0.3736259304881  0.6807955431546 1.0
C      1  0.3746827093926  0.5607147337272  0.4815653266948 1.0
C      1  0.3120758574335  0.4603476624241  0.6280324009100 1.0
C      1  0.1949993218295  0.7336053224649  0.3729949480365 1.0
C      1  0.7342226399974  0.2627933934465  0.3410012538030 1.0
C      1  0.8436316911723  0.2975736142921  0.4976453048009 1.0
C      1  0.1337373337106  0.6472223419570  0.4866455301531 1.0
C      1  0.4180849267631  0.6636125933762  0.7797870218835 1.0
C      1  0.6459318394207  0.3174552226744  0.6426323430995 1.0
C      1  0.2646434811973  0.4219794786033  0.2123508829535 1.0
C      1  0.5235662209668  0.5474568254937  0.1326643312956 1.0
C      1  0.4805676266836  0.5639166478152  0.5851464976575 1.0
C      1  0.6633253622774  0.6504896259605  0.7939168739670 1.0
C      1  0.6711920074692  0.7983248513918  0.4180464698647 1.0
C      1  0.7783563834278  0.2533112170302  0.5560243765995 1.0
C      1  0.1594462532378  0.4276317255640  0.4382702639878 1.0
C      1  0.5250112038348  0.7299390039664  0.2657002593391 1.0
C      1  0.4866236080710  0.4585550684290  0.3351592864707 1.0
C      1  0.4147905118055  0.0943298682557  0.4693176779391 1.0
C      1  0.3074632057023  0.7748848474437  0.6458706776411 1.0
C      1  0.5045613020325  0.3571035704360  0.5915906345931 1.0
C      1  0.4795857248446  0.1278454530830  0.5883154020229 1.0
C      1  0.1919892461567  0.4777184838288  0.3554173541412 1.0
C      1  0.4374224047277  0.3119509358989  0.4487136283989 1.0
C      1  0.7029637729069  0.4807913675017  0.4962582091439 1.0
C      1  0.3750862539262  0.3160802774815  0.6864256803196 1.0
C      1  0.5002195061962  0.7049448261026  0.1750222976914 1.0
C      1  0.3627576004065  0.2456117313679  0.2628416173420 1.0
C      1  0.5968472751836  0.2988108649481  0.4642325483599 1.0
C      1  0.2852059826926  0.6544137722189  0.5212948561152 1.0
C      1  0.5270795612125  0.4219170797624  0.6437607481121 1.0
C      1  0.8769320156958  0.4269228393112  0.3854707475993 1.0
C      1  0.7815855481812  0.4732350362235  0.6486029887794 1.0
C      1  0.6207909226885  0.4460274771315  0.7595228210164 1.0
C      1  0.5195781425275  0.3457475787699  0.8546995233597 1.0
C      1  0.1960100529454  0.2673920880134  0.4943321000872 1.0
C      1  0.3680548274411  0.5475235656057  0.3810034433077 1.0
C      1  0.4878652310349  0.8538207064832  0.4527134414048 1.0
C      1  0.6691035108734  0.1525648808471  0.4421935038898 1.0
C      1  0.7170460966980  0.4690826307058  0.7894176971066 1.0
C      1  0.5291178185492  0.2232052937105  0.2320862541293 1.0
C      1  0.1261971051074  0.5358149138864  0.7177357377285 1.0
C      1  0.6157038112815  0.7175663013239  0.2783716575284 1.0
C      1  0.6699344367229  0.2526988734681  0.4205395695319 1.0
C      1  0.7489656711666  0.7875757812070  0.4752619548562 1.0
C      1  0.2969474262962  0.1757117373885  0.3954196272182 1.0
C      1  0.5943833793883  0.8772961750592  0.5435041539228 1.0
C      1  0.6674377523945  0.8608668857444  0.5999361632623 1.0
C      1  0.4272680684077  0.8607260017763  0.6092755445411 1.0
C      1  0.5749880182950  0.1052539558985  0.4382279448170 1.0
C      1  0.5569695162697  0.6330158492239  0.1533008658735 1.0
C      1  0.2034552204758  0.6432852895164  0.6835072578142 1.0
C      1  0.6834762155533  0.4833532514985  0.6043669983158 1.0
C      1  0.2640530056658  0.5448167640145  0.3940996524692 1.0
C      1  0.7742815020243  0.5577591431801  0.1932348294309 1.0
C      1  0.1930610343437  0.3369110036214  0.4307142553181 1.0
C      1  0.2940318371268  0.6796072311281  0.6870137702110 1.0
C      1  0.3090484775433  0.3919133100894  0.7121443315826 1.0
C      1  0.5380535961106  0.1163402662080  0.3491036739718 1.0
C      1  0.6797478911997  0.5776974801616  0.3629232146500 1.0
C      1  0.7412072850929  0.6876633537871  0.7446501749814 1.0
C      1  0.6513339171690  0.6482621808349  0.6968054936734 1.0
C      1  0.8272783619667  0.5259484692774  0.4046164337545 1.0
C      1  0.5824051998999  0.4671722467551  0.1559918858912 1.0
C      1  0.3535166327480  0.3902990874208  0.1827866743166 1.0
C      1  0.4954130275836  0.8779451514252  0.5473159019032 1.0
C      1  0.6879854441000  0.1316584364351  0.6071462024815 1.0
C      1  0.2372126424276  0.3240945063730  0.3448901188444 1.0
C      1  0.7086773404682  0.3395362192306  0.2866280785847 1.0
C      1  0.3719841925606  0.7837716430683  0.2146973749479 1.0
C      1  0.5955730189197  0.8392701498049  0.7441302821843 1.0
C      1  0.3912626441461  0.1549661491102  0.5409269193118 1.0
C      1  0.4978329305763  0.3212389515479  0.2484263467518 1.0
C      1  0.5920342557018  0.3500723558476  0.7928955018262 1.0
C      1  0.5139567891910  0.5466014782149  0.3156110348268 1.0
C      1  0.5722270162244  0.3794703355839  0.1352686602766 1.0
C      1  0.2372865546253  0.7768692779354  0.4507285523474 1.0
C      1  0.7519196957726  0.7780940308662  0.7059546460994 1.0
C      1  0.5068390362500  0.2227186572149  0.5803997587199 1.0
C      1  0.2283061256395  0.5916031451102  0.8384719346774 1.0
C      1  0.3122361013404  0.1783966213241  0.6551649885294 1.0
C      1  0.6089661929880  0.2820724190387  0.7323764038676 1.0
C      1  0.1667440745468  0.6116119261519  0.7646630347296 1.0
C      1  0.2814578236758  0.5047795980771  0.1674776575222 1.0
C      1  0.3903619316235  0.7809383751349  0.3233979870785 1.0
C      1  0.7460474537775  0.8260902406216  0.5601530842839 1.0
C      1  0.8385298713590  0.2759118871220  0.3445901530688 1.0
C      1  0.5111573573749  0.8119690353081  0.7527099930693 1.0
C      1  0.5261517977307  0.7153629947961  0.6005912406866 1.0
C      1  0.7358005110264  0.6599418266474  0.3584010575340 1.0
C      1  0.6755218138119  0.7343336191797  0.3473704668392 1.0
C      1  0.7481420640206  0.4821155223093  0.2493219887455 1.0
C      1  0.4037347224067  0.3886090573878  0.7514484284688 1.0
C      1  0.6725000171396  0.8377372426732  0.6964080497399 1.0
C      1  0.5433820022485  0.6503291651015  0.9197778599516 1.0
C      1  0.4600017206406  0.6404779374112  0.9345633497718 1.0
C      1  0.4402263673166  0.3610857714996  0.8367638374699 1.0
C      1  0.4041128012260  0.8304872562432  0.4122714088788 1.0
C      1  0.3849734838243  0.3914776457722  0.4469712063489 1.0
C      1  0.6345429675666  0.6416407033081  0.2159449121410 1.0
C      1  0.5816406368136  0.6720007753336  0.8384905777416 1.0
C      1  0.3675295563577  0.6285635166320  0.1460050356536 1.0
C      1  0.3781650358097  0.6540271507691  0.5100942703670 1.0
C      1  0.5509550031490  0.3004978385007  0.1681635041248 1.0
C      1  0.4814277604968  0.1817372709606  0.6760638372950 1.0
C      1  0.2266507556601  0.6334932480219  0.2547602917044 1.0
C      1  0.6618980081025  0.5655722073134  0.4624104506113 1.0
C      1  0.1205358792237  0.5689516580599  0.5373103511864 1.0
C      1  0.7718638356061  0.5264907858660  0.7318732571907 1.0
C      1  0.4257388380051  0.5477481619855  0.1268790026364 1.0
C      1  0.5908334257440  0.1707803966215  0.2934604484043 1.0
C      1  0.2077995755431  0.7108882101012  0.5164030938268 1.0
C      1  0.6367677881016  0.1385195692765  0.6744642340835 1.0
C      1  0.8577281357506  0.3655348231234  0.3108350000101 1.0
C      1  0.5102473475786  0.7053515886502  0.7680054804722 1.0
C      1  0.5399035028571  0.5147120008962  0.7453091722979 1.0
C      1  0.2235047564106  0.4938718746006  0.8358152871063 1.0
C      1  0.4663924765216  0.6577146444212  0.5495959000794 1.0
C      1  0.2981530531593  0.6541405339522  0.8566712472111 1.0
C      1  0.3704178920805  0.6117418260282  0.7037231492421 1.0
C      1  0.2299294656703  0.7232380056140  0.2870568839142 1.0
C      1  0.5550173332699  0.6753330566614  0.6837563871003 1.0
C      1  0.2751611534390  0.5577938712655  0.4973778634178 1.0
C      1  0.6112692390789  0.5628793222174  0.2880033349213 1.0
C      1  0.8127317278460  0.6428606346067  0.4101201350952 1.0
C      1  0.5242195691172  0.3205802494211  0.4110529866929 1.0
C      1  0.2501200268277  0.1924650627716  0.4837116685778 1.0
C      1  0.4094015450757  0.3348635629408  0.5918458219997 1.0
C      1  0.5770275620188  0.2923165442852  0.5654994334970 1.0
C      1  0.8084458885153  0.4853832215782  0.4961009809426 1.0
C      1  0.7249114067035  0.6230544734249  0.1850334255692 1.0
C      1  0.4502987461464  0.7007060701816  0.3262013477274 1.0
C      1  0.2271808632125  0.4052689962044  0.2948821949507 1.0
C      1  0.5610707501315  0.6867207849392  0.5222621214474 1.0
C      1  0.6292847927026  0.6186729025196  0.5273003744589 1.0
C      1  0.7261731381381  0.1661567871026  0.5314385916892 1.0
C      1  0.6417989616186  0.5771672488831  0.6200341207798 1.0
C      1  0.4077334532394  0.7131868623134  0.1577623149318 1.0
C      1  0.4409029563516  0.6082112195057  0.3363218141958 1.0
C      1  0.2392935700605  0.4184451912632  0.7769276217278 1.0
C      1  0.2796205268464  0.5971480695619  0.1838800738487 1.0
C      1  0.7453589692488  0.5035849327025  0.3506916440500 1.0
C      1  0.3252920528621  0.7171504318531  0.7786162089990 1.0
C      1  0.6413711344550  0.4773032846724  0.2423341171951 1.0
C      1  0.8355773563225  0.6140206767227  0.6194806946073 1.0
C      1  0.1866805225680  0.5809628445308  0.3350435074474 1.0
C      1  0.5058545506746  0.0831029396573  0.4997103638734 1.0
C      1  0.3455930251909  0.8209399455481  0.5703950320612 1.0
C      1  0.4003741406978  0.3271545648311  0.2286321505717 1.0
C      1  0.5934903329841  0.8469466596877  0.4520372725654 1.0
C      1  0.2897150149419  0.2434708458042  0.3271097280965 1.0
C      1  0.4260009588265  0.2550850329414  0.5299102475132 1.0
C      1  0.3904574687683  0.6365943456018  0.8760292368450 1.0
C      1  0.4343555403248  0.1831288324616  0.2536776165702 1.0
C      1  0.3843466332816  0.2150859815729  0.6983122151899 1.0
C      1  0.3811444061612  0.5250285631854  0.6759651740681 1.0
C      1  0.1454075019558  0.6528651966252  0.3939950416522 1.0
C      1  0.1642215817101  0.5688979804427  0.6274016498881 1.0
C      1  0.7981743336298  0.6129572564344  0.7118733858993 1.0
C      1  0.2956362747971  0.1627909627254  0.5672680957152 1.0
C      1  0.2310146147916  0.5035004506053  0.5786378360132 1.0
C      1  0.4588915128133  0.4636129539492  0.7105272712007 1.0
C      1  0.3052014903242  0.7760758210585  0.2711094666521 1.0
C      1  0.8670405830994  0.2475321411233  0.4238566253957 1.0
C      1  0.8311887494615  0.5264403994155  0.5837642058238 1.0
C      1  0.3256511206512  0.8176116953853  0.4737342915756 1.0
C      1  0.7607230278968  0.3872637706382  0.7671135184330 1.0
C      1  0.6897556123238  0.4329071912609  0.3950903531221 1.0
C      1  0.5744291990661  0.1897837137576  0.7175363147947 1.0
C      1  0.1490625508638  0.4765035146615  0.5185011329527 1.0
C      1  0.3747416814243  0.4196446676531  0.5485595623632 1.0
C      1  0.4033516900392  0.4550748099692  0.3779622953879 1.0
C      1  0.6253597838544  0.4196686459156  0.6571515638266 1.0
C      1  0.8135217229764  0.7095956479214  0.4797940881700 1.0
C      1  0.8496659742464  0.3945725840793  0.4714844982194 1.0
C      1  0.4441095254690  0.1218030329610  0.3230770423081 1.0
C      1  0.8338559026975  0.6988307803128  0.5744217924470 1.0
C      1  0.6751557932620  0.1838343893003  0.3404186101622 1.0
C      1  0.6333965459015  0.4009151766982  0.3129540035074 1.0
C      1  0.3752105661643  0.1162472206775  0.3884587216627 1.0
C      1  0.7438056765761  0.3035657630782  0.6266151791133 1.0
C      1  0.3468842268584  0.8035296743128  0.7297014856768 1.0
C      1  0.4321536133688  0.5037095871264  0.5356648300068 1.0
END
