TITL C-22483-7956-4 -7.063 3375.00 -1251.10846092 0 0 152 () n - 1
REM
REM Run started: at 2020.12.25 07:15:07 in /gpfs/home/chem/mssmkc/CARBON/AIRSS/Generating-Clusters/Str-Search/Only-C1/C100-200
REM VASP from code version vasp.5.4.4.18Apr17-6-g9f103f2a35 (build Oct 11 2019 16:45:47) gamma-only
REM
REM
REM
REM
REM ./C.cell (efaf0b2bf1589a83377268d7ebe2c73f)
REM AIRSS Version 0.9.1 bugfix July 2018 build 013d7b7c2542+ Fri, 06 Jul 2018 19:26:36 +0100
REM compiler GCC version 6.3.0
REM options -cpp -iprefix /gpfs/warwick/csc/orac/software/Core/GCCcore/6.3.0/bin/../lib/gcc/x86_64-pc-linux-gnu/6.3.0/ -mtune=generic -march=x86-64 -g -O0
REM seed -1264327934 222748009 2045196624 199067741 23277521 -391306922 1051566105 1972112755 -521860268 1896528804 1094578743 573212110
REM
REM C.POTCAR (d86ddea03c3ceb6dc662c8ad6801f873)
REM 
CELL 1.54180   15.00000   15.00000   15.00000   90.00000   90.00000   90.00000
LATT -1
SFAC C  
C      1  0.6744997504728  0.5180469011531  0.7025349915721 1.0
C      1  0.2866791309600  0.5010071132252  0.4844417371148 1.0
C      1  0.1599046581763  0.4899340217417  0.5623839227597 1.0
C      1  0.3304325355941  0.3536662304226  0.3253559835695 1.0
C      1  0.2783260106692  0.7145653744754  0.6309497801337 1.0
C      1  0.3031967590961  0.7021295563245  0.4626344719780 1.0
C      1  0.3701214882158  0.4324950288433  0.3559463536669 1.0
C      1  0.4028123215284  0.6389574674221  0.2437766187977 1.0
C      1  0.7458421121157  0.6599439769901  0.4549814457520 1.0
C      1  0.5564691732799  0.3103463921443  0.3999498999656 1.0
C      1  0.1898624470967  0.5283547189289  0.2717439365368 1.0
C      1  0.6736720773695  0.5952634982672  0.6224301188679 1.0
C      1  0.2449458449400  0.6797133658528  0.7095847393969 1.0
C      1  0.3206233427036  0.2288891547419  0.5443011516375 1.0
C      1  0.6753089597728  0.7278408015817  0.3271738186765 1.0
C      1  0.2548082152353  0.3816717594142  0.5991793559794 1.0
C      1  0.2734206433590  0.2803490264341  0.6157053925039 1.0
C      1  0.4458713458014  0.7162891965970  0.8194589456945 1.0
C      1  0.5442072096873  0.6101872914694  0.1594815797642 1.0
C      1  0.7910178768312  0.3860165543602  0.7201460871449 1.0
C      1  0.7889615154456  0.3603363492873  0.4239380438313 1.0
C      1  0.6115592668145  0.6026450614936  0.8192570005785 1.0
C      1  0.5997012151476  0.6856570358612  0.8032721274760 1.0
C      1  0.2533153615650  0.6547130847547  0.2873160226863 1.0
C      1  0.5301991295448  0.7368539747819  0.2482198978092 1.0
C      1  0.6545254890453  0.3484488862531  0.5334530862065 1.0
C      1  0.4443578593451  0.8334476101070  0.6742907518089 1.0
C      1  0.6983243441977  0.5419624184591  0.2275796727835 1.0
C      1  0.5457966007969  0.6723571367101  0.5355805821666 1.0
C      1  0.7097614566863  0.2608278075899  0.5291845300272 1.0
C      1  0.3970130838749  0.4711139886217  0.8656416590720 1.0
C      1  0.3698423628783  0.5587348356120  0.8634611355688 1.0
C      1  0.3471206804875  0.5642311549427  0.1964960133477 1.0
C      1  0.4662937039734  0.1725582293828  0.4899489937433 1.0
C      1  0.4349845226645  0.1876477189344  0.3277370019379 1.0
C      1  0.6383385505543  0.7972862724954  0.3843356867866 1.0
C      1  0.5201082173229  0.4699186125856  0.4005409631426 1.0
C      1  0.4135832309393  0.3965678282720  0.2020341255584 1.0
C      1  0.6323074599874  0.6150752270464  0.2074275453173 1.0
C      1  0.3258179971307  0.5568998288711  0.5628545763315 1.0
C      1  0.1988891163497  0.4865460277327  0.7303186298818 1.0
C      1  0.4171194273878  0.2419491881891  0.2482603050757 1.0
C      1  0.4178354496345  0.3348384896226  0.6587159873253 1.0
C      1  0.5918147433904  0.2173790905917  0.3817686494568 1.0
C      1  0.8060209436188  0.4126728786035  0.3431974671806 1.0
C      1  0.4091845839562  0.1953336930880  0.5655120024809 1.0
C      1  0.3618865679347  0.6515133208311  0.3955451579766 1.0
C      1  0.4389302854833  0.6200427581830  0.8258085708271 1.0
C      1  0.5022978230823  0.5152867337785  0.1724002284684 1.0
C      1  0.2167612836665  0.5656555568132  0.4379613862542 1.0
C      1  0.5646703889215  0.1793919263535  0.4823032822101 1.0
C      1  0.4466617592395  0.5006373206191  0.3373974216343 1.0
C      1  0.4273455059341  0.5953274501362  0.3384645272539 1.0
C      1  0.7822989305473  0.2912749454742  0.6001748935701 1.0
C      1  0.5296672452534  0.5421609895682  0.0857901278001 1.0
C      1  0.8492391682098  0.3644777027413  0.5813741453985 1.0
C      1  0.3643536555402  0.8119289984056  0.7256358386684 1.0
C      1  0.8377425575953  0.5103165034122  0.4557154711735 1.0
C      1  0.7479089998680  0.3083338599032  0.6862579165996 1.0
C      1  0.5106858583895  0.8294623069973  0.4741593435311 1.0
C      1  0.6274790747379  0.1990873863072  0.5558274695369 1.0
C      1  0.5161001503527  0.2403679052491  0.2274556951061 1.0
C      1  0.5909615941285  0.8304365752987  0.5369058692419 1.0
C      1  0.4935410020179  0.3719953481201  0.5333152803515 1.0
C      1  0.5250894466885  0.4604864041203  0.6821139023497 1.0
C      1  0.5199673867474  0.2189572604386  0.6949294736251 1.0
C      1  0.4826072440395  0.6751148464102  0.1970429726939 1.0
C      1  0.7633805337606  0.4755848819150  0.7174765722203 1.0
C      1  0.6885829326254  0.2520863334693  0.3560483697652 1.0
C      1  0.6899657413987  0.5076794004885  0.4758490524482 1.0
C      1  0.6489476778625  0.3486151245717  0.2067576840711 1.0
C      1  0.7413152638525  0.2731956440273  0.4303679616974 1.0
C      1  0.5575583280316  0.4342187088864  0.7847982987261 1.0
C      1  0.4436054289294  0.2374122537482  0.6413100807667 1.0
C      1  0.7044314701914  0.3074952964248  0.2734380919894 1.0
C      1  0.1567919362060  0.4467189129204  0.2906436396124 1.0
C      1  0.3422915705249  0.7000480119086  0.3033031521530 1.0
C      1  0.1485616294441  0.5686184828528  0.5100481666490 1.0
C      1  0.3221019848575  0.2370136765009  0.4469721470736 1.0
C      1  0.7577631562311  0.3884843511597  0.2717151236039 1.0
C      1  0.6171360144514  0.3658727385260  0.6261651080174 1.0
C      1  0.7359274107862  0.6617280881024  0.3613101911597 1.0
C      1  0.4024120734315  0.4861555710950  0.1762725784962 1.0
C      1  0.3601208939120  0.7476455466216  0.7954190709280 1.0
C      1  0.6996531598960  0.7196206465455  0.5119380991715 1.0
C      1  0.2190291240443  0.4214414223916  0.5119221017220 1.0
C      1  0.3742220043479  0.5060482462292  0.6222611849446 1.0
C      1  0.6510818438605  0.2985133492480  0.6952730563782 1.0
C      1  0.8665049464344  0.4121600326368  0.6596867919024 1.0
C      1  0.3660112806249  0.3077554020791  0.7452476035830 1.0
C      1  0.5455236516230  0.8261160734137  0.3791478875351 1.0
C      1  0.1575935169835  0.3993079615340  0.3612174382724 1.0
C      1  0.4048353189779  0.1916874258317  0.4148748858358 1.0
C      1  0.3665424023483  0.3201552890568  0.2416127167141 1.0
C      1  0.4504742071124  0.5267943748599  0.6802153718226 1.0
C      1  0.6214754014691  0.5189409901467  0.5514889090852 1.0
C      1  0.5007900784730  0.5968412020525  0.4948994700716 1.0
C      1  0.5253346641165  0.4860577248655  0.2635425461000 1.0
C      1  0.4633961295789  0.4141656794704  0.8353801380620 1.0
C      1  0.2596807597764  0.5797073169092  0.2216988036671 1.0
C      1  0.7213977901779  0.4143950994749  0.4901414154052 1.0
C      1  0.2933136148964  0.2713439714320  0.7064763507369 1.0
C      1  0.5136520556975  0.3737505699333  0.3551699695073 1.0
C      1  0.5899435531760  0.5019380890431  0.3402640156920 1.0
C      1  0.5101729131239  0.3771510073757  0.6307133467525 1.0
C      1  0.2163312690670  0.6479111198085  0.4942806043895 1.0
C      1  0.2240183532954  0.5287521495553  0.7981727959762 1.0
C      1  0.4128693268236  0.8369156487994  0.4989978280086 1.0
C      1  0.8593949713732  0.5842744637751  0.6230985918414 1.0
C      1  0.4411307000446  0.3247967271627  0.8071561650955 1.0
C      1  0.3922395902623  0.8396426946848  0.5891456076275 1.0
C      1  0.5362486634515  0.5158163900932  0.4919827101482 1.0
C      1  0.3584103502077  0.4431407059870  0.4502095269801 1.0
C      1  0.7696536306014  0.5724328285952  0.4952435857793 1.0
C      1  0.3877904102294  0.7825028573282  0.3423923005607 1.0
C      1  0.7435832860731  0.5653514110219  0.3224136701150 1.0
C      1  0.5045431275948  0.7267868392390  0.4748002788621 1.0
C      1  0.3550013961312  0.7963080437314  0.4322045082747 1.0
C      1  0.5666200214313  0.3407248825840  0.4884125689990 1.0
C      1  0.5593517276268  0.3236101730253  0.2067727625663 1.0
C      1  0.6669626181596  0.5260537898432  0.3779835715597 1.0
C      1  0.4514811020984  0.5833590546503  0.7466803496685 1.0
C      1  0.2054599657072  0.3635983040178  0.4292676332925 1.0
C      1  0.5946006927437  0.3350159792128  0.7723214549285 1.0
C      1  0.6201966673954  0.5181301042926  0.7889311767905 1.0
C      1  0.2832320439858  0.5919107202155  0.8334576170316 1.0
C      1  0.7017480710215  0.4434695106804  0.2135908046149 1.0
C      1  0.6222973214764  0.7009090923765  0.2539168554793 1.0
C      1  0.5275769180821  0.7935788602863  0.6927502837032 1.0
C      1  0.2847592422364  0.6822905146708  0.7922114291316 1.0
C      1  0.4025591500989  0.3972677653137  0.5152163885248 1.0
C      1  0.3596928475058  0.4055204143624  0.6051716876964 1.0
C      1  0.4569337833970  0.6515772811006  0.4234268012172 1.0
C      1  0.6042475007755  0.2168245531522  0.6491974431500 1.0
C      1  0.7711805458740  0.5912755430256  0.5922596923344 1.0
C      1  0.6598882821961  0.7966027705730  0.4772791975183 1.0
C      1  0.5305693716148  0.1885638485117  0.3068150042673 1.0
C      1  0.2963789581019  0.6537732313813  0.5537485488035 1.0
C      1  0.8194677592902  0.5049525851703  0.3645580592097 1.0
C      1  0.3198619093982  0.7986828251961  0.6404249914498 1.0
C      1  0.8457963601857  0.5077269336925  0.6743003411532 1.0
C      1  0.8247001239630  0.4136301962702  0.4993560012555 1.0
C      1  0.5207658907701  0.2799703904621  0.7730839688001 1.0
C      1  0.5310227484470  0.7420928810894  0.7766376628693 1.0
C      1  0.1905398999282  0.4501685393842  0.6470257982033 1.0
C      1  0.2794450292359  0.3048103714370  0.3979266622302 1.0
C      1  0.6356110417749  0.6905563686754  0.5886156027478 1.0
C      1  0.6177934033127  0.4650023739341  0.6386126017192 1.0
C      1  0.5911264746798  0.7817057923802  0.6196845027983 1.0
C      1  0.4852466779486  0.7934700954222  0.3144554987638 1.0
C      1  0.2056797281922  0.5925456690531  0.3424829394248 1.0
C      1  0.5034747389315  0.3896060475874  0.2531769687351 1.0
END
