TITL C-226756-4670-2 -6.894 3375.00 -1205.95141348 0 0 146 (C1) n - 1
REM
REM Run started: at 2021.01.11 07:41:13 in /rds/project/t2_vol4/rds-t2-cs072/BORA/CARBON/AIRSS/Generating-Clusters/Str-Search/Only-C1/C100-200
REM VASP from code version vasp.5.4.4.18Apr17-6-g9f103f2a35 (build Oct 11 2019 16:45:47) gamma-only
REM
REM
REM
REM
REM ./C.cell (efaf0b2bf1589a83377268d7ebe2c73f)
REM AIRSS Version 0.9.1 bugfix July 2018 build 013d7b7c2542+ Fri, 06 Jul 2018 19:26:36 +0100
REM compiler GCC version 4.8.5 20150623 (Red Hat 4.8.5-39)
REM options -cpp -mtune=generic -march=x86-64 -g -O0
REM seed -294127098 -1424140830 1479103741 1798261685 -1463994284 316092279 -1675729982 300162377 -1315258534 -1876976703 1825156208 -1755079997
REM
REM C.POTCAR (d86ddea03c3ceb6dc662c8ad6801f873)
REM 
CELL 1.54180   15.00000   15.00000   15.00000   90.00000   90.00000   90.00000
LATT -1
SFAC C  
C      1  0.5979440377108  0.3839278595873  0.8093289755196 1.0
C      1  0.4590093912039  0.3617822068951  0.1602009851276 1.0
C      1  0.3390408090595  0.5304579557078  0.5468056175500 1.0
C      1  0.2343944838271  0.3885323816648  0.5123830051851 1.0
C      1  0.2992299455619  0.3042640571125  0.3896030309287 1.0
C      1  0.5329164960104  0.2469605840144  0.3123813926934 1.0
C      1  0.6502249522305  0.4950321861944  0.5905688846346 1.0
C      1  0.8683913469181  0.5821123618744  0.4994419035950 1.0
C      1  0.2021576673076  0.5718747381246  0.6921519702319 1.0
C      1  0.2511114459041  0.3774239248715  0.3501148095882 1.0
C      1  0.5356140909839  0.6313397615401  0.1212396944741 1.0
C      1  0.7223433860976  0.7752196646349  0.4132488532990 1.0
C      1  0.5930881052919  0.2974953816299  0.7710179165035 1.0
C      1  0.3846513700102  0.7908716896424  0.4233859628231 1.0
C      1  0.4120690078506  0.4284375166696  0.6573899732703 1.0
C      1  0.7492282039134  0.4029018516548  0.3078488259725 1.0
C      1  0.6166994845808  0.1928600208152  0.4609085503394 1.0
C      1  0.5819332954001  0.4796436179736  0.1529064292935 1.0
C      1  0.8259085980304  0.5191057924081  0.5658124980537 1.0
C      1  0.7366813937752  0.3696949417497  0.7372807992596 1.0
C      1  0.7283179038409  0.5114585740448  0.5302484684967 1.0
C      1  0.2469404849870  0.7333188097906  0.5001739725364 1.0
C      1  0.6418802211719  0.7053268769001  0.2866649167906 1.0
C      1  0.3971235371796  0.8410672704815  0.5008350631589 1.0
C      1  0.5164287856016  0.5408784805403  0.1218459311371 1.0
C      1  0.3530736209012  0.8293484205157  0.5848417965040 1.0
C      1  0.6692062233442  0.8014123862287  0.6849561006388 1.0
C      1  0.6179854934626  0.6984004783366  0.6391545634567 1.0
C      1  0.6987372340633  0.2624819220602  0.6432657239022 1.0
C      1  0.8230365338917  0.3429119227908  0.5463841755379 1.0
C      1  0.6084817619683  0.5812583789941  0.7797660983067 1.0
C      1  0.1699050303041  0.5988656880916  0.4537713693087 1.0
C      1  0.5421205818511  0.2086680897793  0.6032862864644 1.0
C      1  0.4583153659360  0.5071047275909  0.6312223910182 1.0
C      1  0.5875156903182  0.7022817794614  0.5425858320788 1.0
C      1  0.4845117698746  0.7536349996123  0.4044692040009 1.0
C      1  0.1939746077958  0.6517418797404  0.5275226305501 1.0
C      1  0.4464251226760  0.5593244475572  0.8379198000748 1.0
C      1  0.3286258228360  0.3803704275416  0.2018455753787 1.0
C      1  0.5509389868176  0.1903787605582  0.3920623750982 1.0
C      1  0.3214473832142  0.6985723825771  0.7040668400064 1.0
C      1  0.3907166298611  0.3920729126947  0.4690704046377 1.0
C      1  0.5669846659023  0.7432510602648  0.2388522949052 1.0
C      1  0.2097748624097  0.4253418504917  0.4240904227163 1.0
C      1  0.6104376576052  0.2584396834364  0.2540941224599 1.0
C      1  0.4418899463412  0.8256991200499  0.6349761355701 1.0
C      1  0.2499858007955  0.7203628788860  0.6517818527973 1.0
C      1  0.5457267653500  0.1617668722874  0.5254065916146 1.0
C      1  0.3648295471625  0.2412480738300  0.3690164774189 1.0
C      1  0.2658255260290  0.4170807595543  0.2614131158494 1.0
C      1  0.4438045483872  0.6058595630948  0.3089413339986 1.0
C      1  0.1797993284457  0.4156748188184  0.5886470942755 1.0
C      1  0.5935774354112  0.4525389995292  0.3581019311193 1.0
C      1  0.6033902091536  0.4350380614133  0.5216394888590 1.0
C      1  0.8059019146103  0.5800455904934  0.6497045518733 1.0
C      1  0.5312704154514  0.7019667919823  0.1673495074867 1.0
C      1  0.1986484406448  0.6410006608458  0.6282505216289 1.0
C      1  0.5392256674185  0.5331761329863  0.8278168489928 1.0
C      1  0.4830251640998  0.8325300886149  0.5452658677426 1.0
C      1  0.4814705243987  0.1588097550813  0.4529191076162 1.0
C      1  0.2759362146999  0.4565564971683  0.5844027700964 1.0
C      1  0.3276319494222  0.3971324571622  0.6426923716273 1.0
C      1  0.6074558171665  0.5549575509093  0.3481650913002 1.0
C      1  0.6259547212663  0.3377695879321  0.2144063323487 1.0
C      1  0.3835056443513  0.2452505810224  0.6243714179574 1.0
C      1  0.7943830057358  0.6413946957655  0.4796157564973 1.0
C      1  0.4288879217186  0.2668904779717  0.2968891431682 1.0
C      1  0.5390728849441  0.4419450524622  0.4447419451935 1.0
C      1  0.3355033540464  0.3206743243730  0.7696095464877 1.0
C      1  0.6742004146779  0.4842415313584  0.1840332157181 1.0
C      1  0.7837718181905  0.6665202362536  0.6514442681960 1.0
C      1  0.8368916342233  0.4202983240758  0.6028320932330 1.0
C      1  0.5334668320863  0.4375343373867  0.8437725432091 1.0
C      1  0.8319715964560  0.4716056106296  0.3147273816228 1.0
C      1  0.3278602012614  0.3036097787519  0.6762066583445 1.0
C      1  0.4980803535698  0.4210817987177  0.6306586390225 1.0
C      1  0.6157948317376  0.6311637270186  0.4887018629568 1.0
C      1  0.1847420433640  0.5455223052872  0.3251778920276 1.0
C      1  0.7090119556646  0.5989615729879  0.4921982813537 1.0
C      1  0.7744281372110  0.5203167396761  0.7176556077295 1.0
C      1  0.7571791025504  0.2708026275199  0.5707843737415 1.0
C      1  0.4887819258361  0.3366817320240  0.3417935929212 1.0
C      1  0.8117530149897  0.3511640313762  0.4454084578775 1.0
C      1  0.8336420601864  0.3893782309519  0.3620814274548 1.0
C      1  0.4194157634235  0.5153906011843  0.1283962769521 1.0
C      1  0.3989494642061  0.3127268878705  0.2160733726613 1.0
C      1  0.5721284641473  0.6615076467445  0.7264370660431 1.0
C      1  0.5811600798126  0.3754394010322  0.6019992674837 1.0
C      1  0.2983020859225  0.7435249181063  0.4175279900185 1.0
C      1  0.4257687651556  0.3212548282650  0.8016888116676 1.0
C      1  0.4710424145613  0.2277766704203  0.6667646309324 1.0
C      1  0.3112112962186  0.3242536729606  0.4876260930562 1.0
C      1  0.2621483293130  0.6909805867781  0.3445655784864 1.0
C      1  0.4139286021873  0.6363292851557  0.8022947664889 1.0
C      1  0.1847626600485  0.3811779825315  0.7477646010761 1.0
C      1  0.7194346283918  0.5597351769268  0.2272721493434 1.0
C      1  0.3601655680721  0.2444166856118  0.5304165751284 1.0
C      1  0.6870000589074  0.2866698695103  0.7330100383550 1.0
C      1  0.2604739089187  0.5641602748693  0.7686019184515 1.0
C      1  0.2970541886471  0.4821094258583  0.8113561140936 1.0
C      1  0.3864396493653  0.4827486073921  0.8445978329871 1.0
C      1  0.6666012159691  0.4331246968167  0.7620828204418 1.0
C      1  0.4833034497062  0.6585637289853  0.3774512859299 1.0
C      1  0.2343269033901  0.5109356717717  0.2544705743990 1.0
C      1  0.2666816789252  0.3917289347210  0.7893510834773 1.0
C      1  0.7147480453427  0.7196125755934  0.6655889611895 1.0
C      1  0.6142337615779  0.2770077065247  0.5935278963320 1.0
C      1  0.3978882615464  0.2013282772056  0.4530013256243 1.0
C      1  0.7108433462857  0.3373994677309  0.4445626176561 1.0
C      1  0.2759564017480  0.7754744354233  0.5799819233759 1.0
C      1  0.5176917077646  0.4251101901902  0.2952112584299 1.0
C      1  0.7993231409338  0.5351513064720  0.2659466978530 1.0
C      1  0.6551591233440  0.7750424477357  0.3503977783613 1.0
C      1  0.2801602472994  0.5832585291393  0.2104408165081 1.0
C      1  0.6772330229164  0.2625039476794  0.4998736283604 1.0
C      1  0.6577203709147  0.6062717597698  0.2911630228516 1.0
C      1  0.5580054820619  0.7824792314864  0.3312363151080 1.0
C      1  0.5844106400345  0.7680290672042  0.7136270943552 1.0
C      1  0.1684576689365  0.5074326090312  0.4117683768877 1.0
C      1  0.3215014081342  0.6397633166718  0.7772516756200 1.0
C      1  0.4439348108383  0.4042848372051  0.8466427620898 1.0
C      1  0.1918047383810  0.6325732226469  0.3658567412103 1.0
C      1  0.3921794884723  0.4885988660158  0.4817834032037 1.0
C      1  0.5506415283682  0.5991114236178  0.4198095849459 1.0
C      1  0.4973308550258  0.2712281352605  0.7500569519490 1.0
C      1  0.2977012413088  0.6680102923252  0.2602530655862 1.0
C      1  0.6919555751283  0.5282885172235  0.7671758648113 1.0
C      1  0.3860545414072  0.6377924769671  0.2374062724281 1.0
C      1  0.6923586876096  0.4307326147926  0.4745251515783 1.0
C      1  0.3631613517845  0.5825801314531  0.1617899403175 1.0
C      1  0.5284719644143  0.7647386292474  0.5020753144057 1.0
C      1  0.5450826010500  0.3975845327437  0.1946191885249 1.0
C      1  0.4021560331531  0.6590112227008  0.6601140289504 1.0
C      1  0.4592356189550  0.5121605463105  0.3287286374958 1.0
C      1  0.4778539000310  0.5177539060721  0.4313990554901 1.0
C      1  0.3931129229077  0.4268473482167  0.1380511471855 1.0
C      1  0.6790728628110  0.4070072627537  0.3767845020938 1.0
C      1  0.8000839241387  0.4268679768232  0.6928536038955 1.0
C      1  0.7011430369920  0.3982095755952  0.2191694792847 1.0
C      1  0.4700904887181  0.6837891947672  0.7310965004552 1.0
C      1  0.4023375843584  0.5840551878048  0.6066716894406 1.0
C      1  0.6366702635027  0.4384566543803  0.6609330574360 1.0
C      1  0.4732135927671  0.3674293343920  0.4318202979912 1.0
C      1  0.1560711801970  0.3799107748742  0.6684275833827 1.0
C      1  0.4859009713440  0.7824332003515  0.7067177474052 1.0
C      1  0.7849268736682  0.7280210329930  0.4412924580207 1.0
END
