TITL C-22833-8900-46 -8.921 3375.00 -1583.53242020 0 0 192 () n - 1
REM
REM Run started: at 2020.12.27 02:15:48 in /gpfs/home/chem/mssmkc/CARBON/AIRSS/Generating-Clusters/Str-Search/Only-C1/C100-200
REM VASP from code version vasp.5.4.4.18Apr17-6-g9f103f2a35 (build Oct 11 2019 16:45:47) gamma-only
REM
REM
REM
REM
REM ./C.cell (efaf0b2bf1589a83377268d7ebe2c73f)
REM AIRSS Version 0.9.1 bugfix July 2018 build 013d7b7c2542+ Fri, 06 Jul 2018 19:26:36 +0100
REM compiler GCC version 6.3.0
REM options -cpp -iprefix /gpfs/warwick/csc/orac/software/Core/GCCcore/6.3.0/bin/../lib/gcc/x86_64-pc-linux-gnu/6.3.0/ -mtune=generic -march=x86-64 -g -O0
REM seed 375149860 432710695 -533382629 -1141042167 865972776 1404810109 898275628 1158091524 1479684885 -510141372 -501011827 539791781
REM
REM C.POTCAR (d86ddea03c3ceb6dc662c8ad6801f873)
REM 
CELL 1.54180   15.00000   15.00000   15.00000   90.00000   90.00000   90.00000
LATT -1
SFAC C  
C      1  0.7969970082096  0.3024184626358  0.5036662871648 1.0
C      1  0.4973013271709  0.2283825279841  0.7305710410439 1.0
C      1  0.6523303493494  0.2401595544208  0.2358439392237 1.0
C      1  0.7432497721763  0.7764731586517  0.3991672467948 1.0
C      1  0.7628734810429  0.3044954174078  0.6841087647900 1.0
C      1  0.5531344040422  0.0800313154958  0.3766693248865 1.0
C      1  0.2719889746781  0.7153744373869  0.5427911599804 1.0
C      1  0.7153891524964  0.4385830714721  0.7963088293231 1.0
C      1  0.2820058173241  0.3557803066471  0.6804569963302 1.0
C      1  0.6360296813202  0.1610042207659  0.7022091248868 1.0
C      1  0.2000417946739  0.7055311546931  0.3726742812079 1.0
C      1  0.3714759929671  0.7871843214643  0.2848358539615 1.0
C      1  0.2566979389731  0.8074786797961  0.5136389397820 1.0
C      1  0.4476981171915  0.6604986095728  0.3224001918325 1.0
C      1  0.1389066574539  0.5681145846762  0.6242312140679 1.0
C      1  0.3060226160459  0.6977987497163  0.6273208355307 1.0
C      1  0.1101108596102  0.4820748022060  0.4604959389197 1.0
C      1  0.8078045601961  0.6138439667069  0.2842044062158 1.0
C      1  0.5625736792868  0.3071387131251  0.8916726107763 1.0
C      1  0.6121038261964  0.1720921857133  0.4729931589189 1.0
C      1  0.5827269067302  0.3705254339235  0.1751983868896 1.0
C      1  0.4750789193603  0.0788271381933  0.4308377459930 1.0
C      1  0.3870146214667  0.5424022468916  0.5159183440562 1.0
C      1  0.1750023636380  0.6378680183326  0.4294662641568 1.0
C      1  0.5784474618752  0.4123289658750  0.4178271988304 1.0
C      1  0.4939552539380  0.4179869068663  0.1859191287374 1.0
C      1  0.3807945116145  0.8894924914840  0.5187382876759 1.0
C      1  0.5801701077691  0.4460454590960  0.3206154819971 1.0
C      1  0.2218763621433  0.5945130249532  0.2522153818876 1.0
C      1  0.3654169711220  0.2154595110258  0.2680066138462 1.0
C      1  0.1931475405144  0.5311916469395  0.3214291461186 1.0
C      1  0.6931063272926  0.2689335415784  0.7994807768251 1.0
C      1  0.3827681630278  0.1814237258868  0.5198837019207 1.0
C      1  0.6142448147145  0.2439678144768  0.8420738273558 1.0
C      1  0.6570770453041  0.8207371023100  0.2667707670028 1.0
C      1  0.3216353037519  0.8503427940151  0.4539068132962 1.0
C      1  0.5458143850065  0.2402610406117  0.4894248051938 1.0
C      1  0.5187021564058  0.4494667777322  0.4995699948585 1.0
C      1  0.7451006236373  0.5935832181509  0.7886127275961 1.0
C      1  0.2462450163834  0.6293248970614  0.5000787768661 1.0
C      1  0.7109938750194  0.2236220982082  0.7142289649245 1.0
C      1  0.4802844790387  0.5635029476574  0.2916739315740 1.0
C      1  0.7223729984162  0.7895099767228  0.6439099901528 1.0
C      1  0.1677891298292  0.3295071542702  0.3709017768620 1.0
C      1  0.5921477606846  0.5234583369049  0.6561167091184 1.0
C      1  0.8345213087094  0.4185127567933  0.3137924192003 1.0
C      1  0.5347263000894  0.3015582795376  0.5571877289622 1.0
C      1  0.2345171131996  0.5647909681650  0.5811910479350 1.0
C      1  0.6215088269588  0.5299787968314  0.1929273416290 1.0
C      1  0.7930626267059  0.7727377668405  0.4867364352121 1.0
C      1  0.5010003052111  0.6128237350016  0.1486150433449 1.0
C      1  0.6149994131920  0.5599996835913  0.8582807676505 1.0
C      1  0.5659606905564  0.7485311219832  0.5495253918630 1.0
C      1  0.3737005962384  0.3648971968274  0.5471519898865 1.0
C      1  0.7454298681529  0.1510246146949  0.5389742174065 1.0
C      1  0.6864237966680  0.5640189839470  0.4986658772659 1.0
C      1  0.7062190715121  0.3225595913035  0.2705590238933 1.0
C      1  0.4398212000054  0.3925219396464  0.1068060927924 1.0
C      1  0.3854716270102  0.8354469019695  0.6781028487097 1.0
C      1  0.3543321548241  0.5085014405409  0.1784415171246 1.0
C      1  0.5384227429253  0.8390801324753  0.5611275063809 1.0
C      1  0.4601836917314  0.4790867782867  0.7524025608920 1.0
C      1  0.7341465736119  0.3500444981006  0.7701201100500 1.0
C      1  0.5030615659700  0.6998430615244  0.3973770220423 1.0
C      1  0.5971207420300  0.6118970553270  0.1516084910949 1.0
C      1  0.5020334584846  0.1170202713482  0.6060591963070 1.0
C      1  0.5539584152087  0.8340257360428  0.6587326187154 1.0
C      1  0.6487046498734  0.6087411990553  0.6503357549697 1.0
C      1  0.2366350142725  0.4920753693873  0.7483954507567 1.0
C      1  0.6542663650498  0.7262721016331  0.5218760123131 1.0
C      1  0.5007625421079  0.3515131654423  0.3755257751351 1.0
C      1  0.3144015781432  0.2442953947264  0.3384758667126 1.0
C      1  0.4690041999856  0.7448934493753  0.7725854863037 1.0
C      1  0.4847285825090  0.3466558323060  0.9154901046439 1.0
C      1  0.5347512994101  0.4525976669744  0.6092203583436 1.0
C      1  0.3044540528398  0.6007780927926  0.6471761469316 1.0
C      1  0.2269776779328  0.7955065124008  0.6793071941446 1.0
C      1  0.4715295718020  0.1039410372731  0.3370563650798 1.0
C      1  0.5805824364871  0.5399557621616  0.2906074233036 1.0
C      1  0.3041056097896  0.7362487568368  0.2404709104624 1.0
C      1  0.7892888161832  0.3510323861711  0.5972551837451 1.0
C      1  0.4229360903904  0.4177566034718  0.3629920625892 1.0
C      1  0.3389879929254  0.5465059796758  0.3649723428469 1.0
C      1  0.7083599639834  0.6621290418496  0.7269083432446 1.0
C      1  0.4605048277527  0.7433802787191  0.2521014367318 1.0
C      1  0.8050426565798  0.2051358426125  0.5181280499244 1.0
C      1  0.3935210797022  0.3527114283039  0.8917721988702 1.0
C      1  0.1199223268744  0.6609421544454  0.6532017750771 1.0
C      1  0.3628729949486  0.2439134953946  0.4368907781585 1.0
C      1  0.8435851016683  0.6976110422867  0.5119449276800 1.0
C      1  0.1542723901463  0.3185006667666  0.4635529853695 1.0
C      1  0.4382522050800  0.6842585792984  0.1720247388959 1.0
C      1  0.4020284034126  0.5629673319805  0.6149670811357 1.0
C      1  0.6542914298509  0.1305157159020  0.5462300736881 1.0
C      1  0.4864035661798  0.3956078042622  0.2870431146216 1.0
C      1  0.4743152060294  0.6297816431564  0.6270325910121 1.0
C      1  0.8651850585723  0.6182403474155  0.4569181171219 1.0
C      1  0.3372263132695  0.3776559262761  0.8354982383895 1.0
C      1  0.6933862950364  0.6124972280256  0.8635052534704 1.0
C      1  0.6756432648174  0.6100522376726  0.4145241997599 1.0
C      1  0.6400371393240  0.3964748903040  0.2566636832921 1.0
C      1  0.6341379971491  0.7266460963929  0.7606979483407 1.0
C      1  0.2436906990599  0.3158149944670  0.3180914230025 1.0
C      1  0.4508815693065  0.5621652048836  0.8069388405796 1.0
C      1  0.2303565436435  0.6880694508384  0.2856476777415 1.0
C      1  0.7918031687759  0.5071004661681  0.6579415040460 1.0
C      1  0.2793008081883  0.4006996891174  0.7633210074232 1.0
C      1  0.6273344516845  0.1358443929698  0.3841689465908 1.0
C      1  0.2236763397666  0.3199408727433  0.5236965030002 1.0
C      1  0.8432298940963  0.5709566176121  0.6073349826238 1.0
C      1  0.8590779191394  0.4814424133948  0.3782278955359 1.0
C      1  0.7214715299420  0.8276124406094  0.3302178645678 1.0
C      1  0.7740199692053  0.7137336232168  0.6690894348348 1.0
C      1  0.5913148481401  0.7034483953750  0.3507484340963 1.0
C      1  0.5586613568736  0.4014069088536  0.8612358613254 1.0
C      1  0.4506627276453  0.1131208300278  0.5175753140500 1.0
C      1  0.7535144419521  0.6367834971988  0.2231539474871 1.0
C      1  0.4479384008605  0.1647996627872  0.2719810426714 1.0
C      1  0.4729247720610  0.8177444914835  0.7080368620894 1.0
C      1  0.4564419294376  0.5267600887349  0.1896469422402 1.0
C      1  0.6704765890527  0.3981456190569  0.4570848802283 1.0
C      1  0.6997451268646  0.4685311781178  0.5207350472076 1.0
C      1  0.1122814988906  0.3928655260462  0.4247058241189 1.0
C      1  0.4711077984131  0.5360252485522  0.4643335563334 1.0
C      1  0.1016737010495  0.4926071902746  0.5601164111512 1.0
C      1  0.5530055902406  0.6035168789612  0.6698526884021 1.0
C      1  0.8485293125530  0.5785867133520  0.3648338905679 1.0
C      1  0.5480238672957  0.6974675415734  0.7998629387802 1.0
C      1  0.7638681560114  0.5105108639737  0.7495215109602 1.0
C      1  0.5002626777029  0.6772205352000  0.5510831741683 1.0
C      1  0.5473845070794  0.3531183111503  0.6361307463042 1.0
C      1  0.5983121981836  0.1220109297478  0.6224584376033 1.0
C      1  0.2520210933298  0.8515771522629  0.6040224637258 1.0
C      1  0.5745647993539  0.1898812920170  0.7720289923875 1.0
C      1  0.7233135095938  0.7968371370743  0.5494789233827 1.0
C      1  0.3259707289282  0.4097793910373  0.4169832504937 1.0
C      1  0.4670695896565  0.2832181985988  0.4362983277566 1.0
C      1  0.4441496769858  0.4832911949561  0.6581369080889 1.0
C      1  0.3763519928932  0.8123334560121  0.3785520001074 1.0
C      1  0.3716632368662  0.3443139099496  0.1516956941599 1.0
C      1  0.4861454542010  0.2230333404646  0.2003911741552 1.0
C      1  0.3806746832006  0.7068692889960  0.7743071285169 1.0
C      1  0.3718768608836  0.6118986473461  0.7878541874950 1.0
C      1  0.4357411951257  0.5148081152196  0.3700505434934 1.0
C      1  0.8715640522282  0.4579071991216  0.4743522056605 1.0
C      1  0.3293442612995  0.5973430428265  0.4522169136294 1.0
C      1  0.3543983352856  0.3126649377516  0.6306751674885 1.0
C      1  0.5750290844399  0.2645615848501  0.1884628208902 1.0
C      1  0.4656657962262  0.3561897404956  0.5119931367494 1.0
C      1  0.3374727036186  0.4547825868513  0.5140034357117 1.0
C      1  0.6346752228785  0.4660495841527  0.8483007604228 1.0
C      1  0.8714769913764  0.5454731832267  0.5182936022295 1.0
C      1  0.3951971705311  0.2612039279952  0.1862554094463 1.0
C      1  0.3432601276475  0.8825892161001  0.6081414568641 1.0
C      1  0.1322105471930  0.4296403240891  0.6277896241679 1.0
C      1  0.1580199612861  0.4950449541541  0.6931309870004 1.0
C      1  0.6646746514387  0.1969492938935  0.3243953875862 1.0
C      1  0.5669836827467  0.7642576968894  0.2705092114687 1.0
C      1  0.8636635200505  0.3730604330164  0.5178984109671 1.0
C      1  0.5120562135444  0.4051456923730  0.7761766911375 1.0
C      1  0.2740344669618  0.3983165413707  0.2707245898159 1.0
C      1  0.2548766803510  0.4690052736075  0.5598442744261 1.0
C      1  0.3236162026616  0.7617638953760  0.7080585020468 1.0
C      1  0.6755861504280  0.6318959488952  0.5598144591339 1.0
C      1  0.4541149722524  0.1808162777409  0.6601143205691 1.0
C      1  0.7202127583916  0.3232472357722  0.4410751628505 1.0
C      1  0.1408176477469  0.5517558204651  0.4010097890426 1.0
C      1  0.2733453450245  0.4695852919429  0.3423228438277 1.0
C      1  0.3843808561635  0.2221827024786  0.6084090728111 1.0
C      1  0.3204007205037  0.4154224249332  0.1943408778717 1.0
C      1  0.1553240840618  0.7322670210327  0.6750646379578 1.0
C      1  0.4998749607607  0.6336058207668  0.4714363921312 1.0
C      1  0.5335209696881  0.6066034250345  0.8350266409869 1.0
C      1  0.6235651564164  0.6079148222670  0.3415846561124 1.0
C      1  0.6529026391569  0.4468002600292  0.1746527914338 1.0
C      1  0.7029112080286  0.2747597946342  0.3587071610312 1.0
C      1  0.3000447148821  0.5839477334658  0.1922426063876 1.0
C      1  0.3133547404796  0.3224953026446  0.4762466210592 1.0
C      1  0.6732724830176  0.6712809643334  0.1777619511942 1.0
C      1  0.2951400652803  0.5690109196767  0.7419509302792 1.0
C      1  0.6412180355547  0.7558863490965  0.2031501937611 1.0
C      1  0.6375676551078  0.7956182287739  0.6942042176654 1.0
C      1  0.7496605041789  0.4423423384187  0.5949668216720 1.0
C      1  0.7970368107892  0.3622756500689  0.2654193712365 1.0
C      1  0.3445856185361  0.6714041236611  0.1815677238094 1.0
C      1  0.5133073252543  0.3274127562992  0.7173522067342 1.0
C      1  0.4679827237315  0.8518605530941  0.5012970713377 1.0
C      1  0.6679223871390  0.7111179243345  0.4197474529953 1.0
C      1  0.4593081227020  0.7933794150015  0.4222094817281 1.0
C      1  0.3560559346664  0.6404512698404  0.3642408628407 1.0
C      1  0.2185247389633  0.3841833530066  0.6031705683427 1.0
C      1  0.8309494870313  0.6672026824961  0.6073183311960 1.0
END
