TITL C-22833-8900-11 -7.706 3375.00 -1338.02921979 0 0 162 () n - 1
REM
REM Run started: at 2020.12.25 13:39:47 in /gpfs/home/chem/mssmkc/CARBON/AIRSS/Generating-Clusters/Str-Search/Only-C1/C100-200
REM VASP from code version vasp.5.4.4.18Apr17-6-g9f103f2a35 (build Oct 11 2019 16:45:47) gamma-only
REM
REM
REM
REM
REM ./C.cell (efaf0b2bf1589a83377268d7ebe2c73f)
REM AIRSS Version 0.9.1 bugfix July 2018 build 013d7b7c2542+ Fri, 06 Jul 2018 19:26:36 +0100
REM compiler GCC version 6.3.0
REM options -cpp -iprefix /gpfs/warwick/csc/orac/software/Core/GCCcore/6.3.0/bin/../lib/gcc/x86_64-pc-linux-gnu/6.3.0/ -mtune=generic -march=x86-64 -g -O0
REM seed 1268153833 -1525124481 1663814407 -263670848 1776285472 -1423412099 961670913 -81898005 -1380015798 -1448859501 2062834190 2116542676
REM
REM C.POTCAR (d86ddea03c3ceb6dc662c8ad6801f873)
REM 
CELL 1.54180   15.00000   15.00000   15.00000   90.00000   90.00000   90.00000
LATT -1
SFAC C  
C      1  0.2879559985609  0.6265049438713  0.8140265565489 1.0
C      1  0.5919814737182  0.2286384100085  0.4728320723682 1.0
C      1  0.2032361613594  0.5479547788354  0.3675673763761 1.0
C      1  0.3719766780063  0.4603727634836  0.1858619082373 1.0
C      1  0.2857888789814  0.2074198454058  0.4469991713138 1.0
C      1  0.5603570300862  0.8357990319763  0.4969875762542 1.0
C      1  0.3108659409996  0.5389538064557  0.1938962134056 1.0
C      1  0.2580373976996  0.6863785095786  0.7398083802396 1.0
C      1  0.7267149706206  0.7804793193807  0.5744799583933 1.0
C      1  0.2183247344299  0.6978334698859  0.4257205668124 1.0
C      1  0.4485143184469  0.5074384586202  0.3919773576687 1.0
C      1  0.4919838751114  0.3168943396473  0.3731638720104 1.0
C      1  0.3769767076075  0.1795506931365  0.4258386203872 1.0
C      1  0.4851760909936  0.3127290163236  0.5416067989277 1.0
C      1  0.5101122726165  0.5811956374920  0.8466392237733 1.0
C      1  0.3735837797630  0.8111044134156  0.6359013378388 1.0
C      1  0.6200250477418  0.8085745951538  0.4193922060855 1.0
C      1  0.0831427837113  0.5313543166624  0.5937509551443 1.0
C      1  0.7720276903744  0.2263367137731  0.4362861966449 1.0
C      1  0.7779576287010  0.4435539869256  0.3105804507878 1.0
C      1  0.5935285442698  0.6972247148765  0.2962478224178 1.0
C      1  0.2291007633026  0.2627609695859  0.6102950600648 1.0
C      1  0.2830300503438  0.2560780679026  0.6947879949313 1.0
C      1  0.5249198107182  0.4615438345055  0.3493165129595 1.0
C      1  0.5785206203308  0.4194140255686  0.1490704491277 1.0
C      1  0.3560988844547  0.5684612212635  0.6314842315551 1.0
C      1  0.2975940319022  0.5250222811091  0.3902674849853 1.0
C      1  0.7527284839393  0.3111529447700  0.6554326069700 1.0
C      1  0.3663024859346  0.3730002619920  0.5014686274463 1.0
C      1  0.2800071793057  0.7845908140110  0.6156184367130 1.0
C      1  0.5666299449128  0.8252519919847  0.5949769078032 1.0
C      1  0.5902579486808  0.5229351516904  0.8423181051630 1.0
C      1  0.5612090700939  0.3840268097113  0.5322474472432 1.0
C      1  0.6139807071475  0.6439397105940  0.5495408271287 1.0
C      1  0.7305918167634  0.6356815920185  0.2103270926592 1.0
C      1  0.6676161739718  0.5495989527298  0.7936407068131 1.0
C      1  0.5366196369258  0.4771905313937  0.6817806372687 1.0
C      1  0.5764833861459  0.5410544470352  0.4671480898975 1.0
C      1  0.4233152602368  0.8355382976972  0.3922947234143 1.0
C      1  0.2218090245774  0.3137229266768  0.3267073878707 1.0
C      1  0.8177206662581  0.6039816351196  0.4397778551514 1.0
C      1  0.8198663312647  0.5254889998167  0.6171636056230 1.0
C      1  0.8408426066927  0.4408824141179  0.5654546032594 1.0
C      1  0.1644058703323  0.6662587189464  0.5928510359892 1.0
C      1  0.7324695666530  0.7111068512888  0.3321540773207 1.0
C      1  0.2765791905470  0.2450470425229  0.3572167992042 1.0
C      1  0.7917936398516  0.3155169490535  0.4885538107641 1.0
C      1  0.7163406506593  0.4719531690139  0.7598617967972 1.0
C      1  0.5042047763019  0.4420595185605  0.1000179682916 1.0
C      1  0.3871609344754  0.8426558795762  0.5431636801917 1.0
C      1  0.1855701334340  0.3865090608778  0.3086898783254 1.0
C      1  0.5152021256401  0.6758166330342  0.5556054668336 1.0
C      1  0.4347429158300  0.2215501143388  0.7379216673847 1.0
C      1  0.7460474786181  0.1842622319126  0.5215440986904 1.0
C      1  0.8526991018731  0.4275811857240  0.3849359124597 1.0
C      1  0.1721605418538  0.3315404308264  0.5799581531981 1.0
C      1  0.4875443423903  0.2644132947263  0.2074875092621 1.0
C      1  0.6283577570412  0.3162468749232  0.5093189739953 1.0
C      1  0.3306155237871  0.5444748900204  0.8476609983918 1.0
C      1  0.5266160205299  0.2062861185461  0.7341976834975 1.0
C      1  0.2280522740885  0.5015451022346  0.2110402878888 1.0
C      1  0.7811380088605  0.4716201246511  0.6904567882447 1.0
C      1  0.8125888167864  0.6647123943271  0.5161358207311 1.0
C      1  0.3874437149099  0.3981866981069  0.6584944417006 1.0
C      1  0.1052731980425  0.6041541168494  0.6280364386327 1.0
C      1  0.4461154519947  0.6317506722676  0.5115732712716 1.0
C      1  0.6612650857786  0.4646375530383  0.1733038652344 1.0
C      1  0.4373049483267  0.7634646686465  0.6790376530146 1.0
C      1  0.5195416177823  0.6358354425196  0.1594470131704 1.0
C      1  0.2907591317711  0.6753442102139  0.2772578618063 1.0
C      1  0.4278078075403  0.2315906461102  0.2580725770241 1.0
C      1  0.3248264218320  0.4557044777076  0.5284701511378 1.0
C      1  0.6835304982932  0.3096715133436  0.7290069555602 1.0
C      1  0.3381909556324  0.7554212153086  0.2927295916967 1.0
C      1  0.6479539151248  0.3330251454605  0.2558603703483 1.0
C      1  0.2288331990287  0.6457738270159  0.3456312943529 1.0
C      1  0.6695305774510  0.7090647189642  0.6117901855834 1.0
C      1  0.7157602154024  0.7723253832559  0.4142916274354 1.0
C      1  0.8489248415913  0.3991799916570  0.4793045745889 1.0
C      1  0.4293761558097  0.6932986266583  0.7471551161177 1.0
C      1  0.3673685350418  0.2118654200196  0.3294718745488 1.0
C      1  0.6003001566510  0.7522675385147  0.6668683986169 1.0
C      1  0.3691083647852  0.4867773562640  0.3461920696511 1.0
C      1  0.2715432550896  0.7777752729798  0.4401412783444 1.0
C      1  0.5281590914223  0.3545688786575  0.8874920278689 1.0
C      1  0.5801591895633  0.4619897843257  0.5992938807418 1.0
C      1  0.4354571024069  0.3775207912695  0.7408325787850 1.0
C      1  0.5808493140148  0.4172458113952  0.8299114561831 1.0
C      1  0.2967988996971  0.8120769331325  0.5244113141880 1.0
C      1  0.1863883919538  0.4786916677634  0.2892293757857 1.0
C      1  0.3615521948839  0.1827061398177  0.5788751198603 1.0
C      1  0.4409356848721  0.6623494820832  0.2152267668446 1.0
C      1  0.5982766965059  0.6947734503590  0.7519009481880 1.0
C      1  0.4922326980685  0.5529496574155  0.6907747869201 1.0
C      1  0.4889428070914  0.3854511029495  0.2966988414713 1.0
C      1  0.7974911409050  0.6171386738867  0.6024716362563 1.0
C      1  0.6699619778470  0.3907081592937  0.7796267410901 1.0
C      1  0.5533337807968  0.3453786855727  0.2181649998019 1.0
C      1  0.5189053258477  0.6681756571201  0.7952666035616 1.0
C      1  0.6773681860866  0.6346036988943  0.7465041340845 1.0
C      1  0.6740734561066  0.5644804864481  0.1601804209362 1.0
C      1  0.2277548348857  0.7160187720237  0.6506322177794 1.0
C      1  0.1422190899853  0.3955430508091  0.5361585684245 1.0
C      1  0.7110115481788  0.4947831739756  0.3679848067930 1.0
C      1  0.7372251308854  0.5598342567522  0.4409248557203 1.0
C      1  0.2672976827327  0.3845304209083  0.8125696924787 1.0
C      1  0.4793532386255  0.8026177855077  0.3211684079420 1.0
C      1  0.3177033605470  0.5355384011312  0.4844914601107 1.0
C      1  0.4212122180358  0.4388404072574  0.1086933850306 1.0
C      1  0.4594922248225  0.8468666049954  0.4792904112996 1.0
C      1  0.5951968880983  0.6058603762600  0.1312057263147 1.0
C      1  0.1728407985797  0.6456894612412  0.4953084051710 1.0
C      1  0.4822052771226  0.5677858556493  0.4511487274574 1.0
C      1  0.3981196083982  0.4309111441685  0.2698913034097 1.0
C      1  0.6190319033169  0.2383824586671  0.7321270094759 1.0
C      1  0.3380886202091  0.6985335625641  0.7861686461175 1.0
C      1  0.4258109912383  0.1704628416083  0.5074861372825 1.0
C      1  0.4013996240835  0.2974152045367  0.7963193805782 1.0
C      1  0.5790788447505  0.4463479796840  0.4370501343893 1.0
C      1  0.4393462796703  0.3319630026322  0.4524440792137 1.0
C      1  0.3663041365261  0.2063921750810  0.6722349479899 1.0
C      1  0.2990736052384  0.3048681520382  0.7752446446743 1.0
C      1  0.5855503666054  0.1533300057538  0.5853805204844 1.0
C      1  0.7631027454616  0.7486752451579  0.4951104140719 1.0
C      1  0.8503068953978  0.5929014350020  0.3433607659949 1.0
C      1  0.3442953400919  0.6224716349000  0.2166953612544 1.0
C      1  0.6484680818850  0.6111916704754  0.4552575617963 1.0
C      1  0.7696743710739  0.2602787768569  0.5741222939268 1.0
C      1  0.3428500186763  0.4735278583383  0.6231968487431 1.0
C      1  0.3337818037997  0.8039001978619  0.3740786382457 1.0
C      1  0.7083278070148  0.4041912314659  0.2381815397615 1.0
C      1  0.4258262219447  0.7541362653413  0.2576426724808 1.0
C      1  0.1196033565302  0.4864660075194  0.5204181871534 1.0
C      1  0.6545949046443  0.6461240317915  0.3598133494350 1.0
C      1  0.2757779282276  0.2129558362409  0.5424323180207 1.0
C      1  0.5152597715936  0.4159148768550  0.7519243592139 1.0
C      1  0.5731451406972  0.2651361486875  0.3831169553853 1.0
C      1  0.4029092795276  0.3424875125150  0.5846558765933 1.0
C      1  0.1538901181591  0.5563825811972  0.4598754790683 1.0
C      1  0.8611519139450  0.4978291657831  0.3267472563079 1.0
C      1  0.6511128749091  0.1602269951096  0.5218101532314 1.0
C      1  0.7278954932658  0.2277864748800  0.3592799557577 1.0
C      1  0.5117319585237  0.7491657101041  0.6202178574903 1.0
C      1  0.7303072443806  0.6530347911349  0.6670829421156 1.0
C      1  0.6720051235371  0.4260127651200  0.4233918059937 1.0
C      1  0.7985606424644  0.3918026517133  0.6435588731406 1.0
C      1  0.3569300215814  0.6041245599721  0.5411832904813 1.0
C      1  0.5255514907076  0.6261965118941  0.2663283887759 1.0
C      1  0.4235970500524  0.5480494293566  0.8627321845451 1.0
C      1  0.6812252941547  0.7099335230725  0.2444406787333 1.0
C      1  0.5144779427211  0.2087493746847  0.5330776036096 1.0
C      1  0.4556667563084  0.3153819132028  0.8780595007921 1.0
C      1  0.5673783690495  0.7816796851926  0.3420518245108 1.0
C      1  0.6485808393564  0.5553805446413  0.3217105548619 1.0
C      1  0.7986875442706  0.6467344662831  0.2874683049624 1.0
C      1  0.7038806606091  0.3573555108580  0.4712431712789 1.0
C      1  0.4216014797396  0.6038863352811  0.6933902256080 1.0
C      1  0.5619077373706  0.5404645180687  0.2993236930866 1.0
C      1  0.5989611217139  0.5418639603240  0.5607165065438 1.0
C      1  0.2884161335340  0.4602385018004  0.8394698717179 1.0
C      1  0.6538632608780  0.2697323947208  0.3263716917729 1.0
C      1  0.5899322464605  0.1684240267573  0.6780833098490 1.0
END
