TITL C-22833-8900-32 -8.44 3375.00 -1289.73168841 0 0 159 () n - 1
REM
REM Run started: at 2020.12.26 13:11:42 in /gpfs/home/chem/mssmkc/CARBON/AIRSS/Generating-Clusters/Str-Search/Only-C1/C100-200
REM VASP from code version vasp.5.4.4.18Apr17-6-g9f103f2a35 (build Oct 11 2019 16:45:47) gamma-only
REM
REM
REM
REM
REM ./C.cell (efaf0b2bf1589a83377268d7ebe2c73f)
REM AIRSS Version 0.9.1 bugfix July 2018 build 013d7b7c2542+ Fri, 06 Jul 2018 19:26:36 +0100
REM compiler GCC version 6.3.0
REM options -cpp -iprefix /gpfs/warwick/csc/orac/software/Core/GCCcore/6.3.0/bin/../lib/gcc/x86_64-pc-linux-gnu/6.3.0/ -mtune=generic -march=x86-64 -g -O0
REM seed -989543080 697305012 -1962548434 1599506334 1879410849 1276755835 -61837724 1480749099 -507342497 -1610367277 2030284007 1647730625
REM
REM C.POTCAR (d86ddea03c3ceb6dc662c8ad6801f873)
REM 
CELL 1.54180   15.00000   15.00000   15.00000   90.00000   90.00000   90.00000
LATT -1
SFAC C  
C      1  0.6977660468716  0.5431924136609  0.7233001216511 1.0
C      1  0.4968789148325  0.2681904929045  0.4916459443379 1.0
C      1  0.5893853954931  0.5506772129334  0.5906318601053 1.0
C      1  0.3429975461116  0.2665206601848  0.4352069590391 1.0
C      1  0.3517051963414  0.7808438642434  0.3144462552664 1.0
C      1  0.1629153856345  0.5397263422942  0.7863882496203 1.0
C      1  0.6606066142713  0.6338876169036  0.1955517971437 1.0
C      1  0.8858624932675  0.6739569387880  0.5190181869531 1.0
C      1  0.2393592806861  0.2517360744232  0.5936670243606 1.0
C      1  0.5184090625306  0.2377455050434  0.7158942933894 1.0
C      1  0.5912175700277  0.2621861625550  0.6516930267315 1.0
C      1  0.3754028178652  0.4642387751549  0.3913568915189 1.0
C      1  0.6103969412091  0.2352526897479  0.2432733694343 1.0
C      1  0.6795671994910  0.3742643985556  0.7265506073675 1.0
C      1  0.8632065473643  0.4436198010182  0.4181993491863 1.0
C      1  0.4962420673169  0.4143614357333  0.6927621091998 1.0
C      1  0.8236351782444  0.3569878084402  0.4079613804275 1.0
C      1  0.4694525950938  0.3256923246657  0.5620216715441 1.0
C      1  0.5791855418312  0.2213297970585  0.3300614720047 1.0
C      1  0.2750857844770  0.4028335516816  0.2681522146052 1.0
C      1  0.6174550241549  0.5924187586534  0.6814672390783 1.0
C      1  0.1754325254166  0.5027497670625  0.5828268085841 1.0
C      1  0.5552371010596  0.8327130446832  0.5864325755833 1.0
C      1  0.2767852915782  0.6501366749014  0.6156662885125 1.0
C      1  0.7778039826262  0.5681673477192  0.3728505569200 1.0
C      1  0.3309655047509  0.2481977050610  0.5448339573694 1.0
C      1  0.7226395865053  0.6717762204258  0.7756274484832 1.0
C      1  0.1272892122498  0.5725243575572  0.6274898115481 1.0
C      1  0.5931987538183  0.7840843671243  0.2866928059643 1.0
C      1  0.8425651186512  0.5027465288122  0.3378747814610 1.0
C      1  0.3396437748912  0.3404403648018  0.6791640272752 1.0
C      1  0.7485120229010  0.6655469048563  0.5933951901162 1.0
C      1  0.1314055402626  0.6289271055329  0.3329348417743 1.0
C      1  0.6590718580927  0.4497436278756  0.4841288379920 1.0
C      1  0.5100507835829  0.3995793965933  0.7911065238142 1.0
C      1  0.2943170424277  0.2165385502640  0.3670460133269 1.0
C      1  0.7091527746535  0.1765626741648  0.5764118240062 1.0
C      1  0.2827428061069  0.7268022127155  0.3646290163443 1.0
C      1  0.1895146578645  0.3280663353927  0.5756823596240 1.0
C      1  0.3385841161423  0.4077047515021  0.5140026044618 1.0
C      1  0.1576556592951  0.6717182790504  0.2676962102778 1.0
C      1  0.2348410791224  0.3898653197115  0.3606495852993 1.0
C      1  0.6525965523620  0.4672701199765  0.5774384791409 1.0
C      1  0.5638340978425  0.6313616081361  0.7552316877220 1.0
C      1  0.8074957785178  0.4561693420917  0.6347687463656 1.0
C      1  0.3532511674478  0.6911210158743  0.1701411301069 1.0
C      1  0.2443317428145  0.5706183017760  0.5497430188101 1.0
C      1  0.5211858452278  0.8202381598938  0.3293842350732 1.0
C      1  0.3861874717173  0.5347616383664  0.2309527604685 1.0
C      1  0.6188972596242  0.2055668667796  0.5728070130318 1.0
C      1  0.3306333674987  0.5561268516511  0.7813765718121 1.0
C      1  0.7779663710302  0.6362494535784  0.4316709402320 1.0
C      1  0.1208083526203  0.5635602728752  0.7188821758014 1.0
C      1  0.6589139059395  0.4386466970585  0.1363790775282 1.0
C      1  0.1480060202823  0.5952246727932  0.4201966675102 1.0
C      1  0.1742506045182  0.4099703377998  0.5817745689676 1.0
C      1  0.5692409336357  0.6838402634851  0.4815135919439 1.0
C      1  0.3971302485429  0.7614158618050  0.6406118463150 1.0
C      1  0.4353734727080  0.2023858079054  0.6816146529733 1.0
C      1  0.6698528877166  0.7518791126210  0.7880979588298 1.0
C      1  0.7138279696817  0.7671167361598  0.5631581975497 1.0
C      1  0.8446498900244  0.6219950755211  0.5808835497763 1.0
C      1  0.4259343498550  0.2463173637060  0.2584990763332 1.0
C      1  0.1179106609166  0.5001552302578  0.4263952828446 1.0
C      1  0.8400766816643  0.3872047279526  0.5757468476461 1.0
C      1  0.3290170482678  0.2410768986242  0.2649156060745 1.0
C      1  0.2338422743963  0.7247071902762  0.2739925934543 1.0
C      1  0.6130327450991  0.5989371933557  0.5025296009063 1.0
C      1  0.5676552287960  0.5996945063995  0.8535269714625 1.0
C      1  0.1657384330347  0.4404327782587  0.3889955493526 1.0
C      1  0.4118187046997  0.5448548004338  0.8420083210285 1.0
C      1  0.2650373136445  0.2571591173565  0.6896826803492 1.0
C      1  0.2632435169381  0.3414434896931  0.7488897133131 1.0
C      1  0.2461016886696  0.5059448666874  0.8063300037184 1.0
C      1  0.6398288160579  0.5626283520089  0.2672433151449 1.0
C      1  0.4411677811079  0.2500443295657  0.4178886487737 1.0
C      1  0.4610295470812  0.4579060154088  0.3476919456267 1.0
C      1  0.7152091105836  0.4559786235381  0.6749417804674 1.0
C      1  0.4292454454601  0.5632705097028  0.5127020148070 1.0
C      1  0.5369884153718  0.3004215492337  0.7927698755021 1.0
C      1  0.3001952729502  0.4922863290792  0.2560966375472 1.0
C      1  0.7215342119889  0.2614895742236  0.4068871867345 1.0
C      1  0.2866978530250  0.7860920090930  0.5150028083007 1.0
C      1  0.4256880984245  0.3296727906190  0.2065792764582 1.0
C      1  0.7050784147262  0.6416787435827  0.5016713346149 1.0
C      1  0.4890986861567  0.5380879231141  0.5833197492227 1.0
C      1  0.6438189655456  0.5832309264702  0.9006598262584 1.0
C      1  0.6123172558705  0.5251204275236  0.4328621399328 1.0
C      1  0.2617940802573  0.1744953597594  0.2991757101417 1.0
C      1  0.4713935476717  0.4806017683270  0.2448960878529 1.0
C      1  0.4227821166337  0.0949356263241  0.5509286312521 1.0
C      1  0.4710067435001  0.6144015206834  0.8498262715666 1.0
C      1  0.1797365378396  0.6469558470334  0.5861512511681 1.0
C      1  0.2457298268093  0.6007612265577  0.4543827011361 1.0
C      1  0.6042211536325  0.2898447381871  0.1817123322793 1.0
C      1  0.4856121308250  0.7038598435106  0.4503807412829 1.0
C      1  0.3748590917538  0.5330721449081  0.6957343459381 1.0
C      1  0.7446430822116  0.2557935044408  0.6172525968610 1.0
C      1  0.5275546941934  0.3477568733630  0.6314639474795 1.0
C      1  0.5569804743562  0.5262650384922  0.2790400416235 1.0
C      1  0.3155266560742  0.3722249926284  0.4231455739857 1.0
C      1  0.4156215331239  0.6368793519177  0.4526215469727 1.0
C      1  0.5405510879581  0.4986055931155  0.3690033356277 1.0
C      1  0.3250093481510  0.6282451855292  0.3952509933340 1.0
C      1  0.6292279390662  0.7874621817248  0.7141158545378 1.0
C      1  0.7796913252797  0.7937810038725  0.4690737966045 1.0
C      1  0.4920139043909  0.3973534795373  0.1887116760691 1.0
C      1  0.4023863200833  0.1755319214464  0.5889032483216 1.0
C      1  0.7120287255537  0.6337921376601  0.6809475538180 1.0
C      1  0.5819321325251  0.2237951277592  0.4911207329472 1.0
C      1  0.3838266084852  0.6150677458924  0.1783187391085 1.0
C      1  0.7643308399227  0.3738061576305  0.2602281190271 1.0
C      1  0.6831384331037  0.2943712816359  0.6783032054160 1.0
C      1  0.6399912188223  0.8088383537064  0.6231915031737 1.0
C      1  0.8518414706797  0.5263908965360  0.5855907007835 1.0
C      1  0.7347087868375  0.4311169492362  0.1926029449122 1.0
C      1  0.6518254189615  0.5726525540605  0.0054403726198 1.0
C      1  0.2674834959572  0.4156095602604  0.8202021426143 1.0
C      1  0.6532520979144  0.5171962774152  0.0780550487289 1.0
C      1  0.6541371202672  0.7211431174951  0.2440940005307 1.0
C      1  0.5826415413709  0.3773106522724  0.1573297415283 1.0
C      1  0.4299239468553  0.8136830404591  0.3414220165866 1.0
C      1  0.4062851551822  0.6989957182350  0.7090117712440 1.0
C      1  0.6548554444497  0.7342836065668  0.4816637281005 1.0
C      1  0.8082379403305  0.3014504798205  0.5609832922327 1.0
C      1  0.4503628538349  0.0224578795163  0.5153960874306 1.0
C      1  0.6915139688491  0.4250623620306  0.3943974192883 1.0
C      1  0.1744883922720  0.6730359487269  0.4864010366187 1.0
C      1  0.3377756192063  0.6253107294069  0.6994232782414 1.0
C      1  0.3286718570170  0.3335726640573  0.2314932233586 1.0
C      1  0.3555407034584  0.3173639161363  0.7790569113456 1.0
C      1  0.7051386246905  0.7797729360090  0.4124519381082 1.0
C      1  0.7948897947705  0.2864762241943  0.4654857119477 1.0
C      1  0.3769506750163  0.4865616020540  0.4871351010668 1.0
C      1  0.3611018924745  0.3939718712196  0.8387279606156 1.0
C      1  0.7425896921351  0.3451104223224  0.3511860839123 1.0
C      1  0.6577797636799  0.6081369205929  0.1053162063958 1.0
C      1  0.2335875701677  0.7468736270481  0.4529294873890 1.0
C      1  0.4773123842623  0.6872897522046  0.7755775752058 1.0
C      1  0.6051705097697  0.3656898391089  0.7876246092608 1.0
C      1  0.8386941194035  0.7168844301263  0.4553242154037 1.0
C      1  0.3572977044448  0.2378592411343  0.7244494934438 1.0
C      1  0.8720700351589  0.4581216037245  0.5133760706893 1.0
C      1  0.4916949012867  0.8452688472083  0.5155569480002 1.0
C      1  0.6806739570124  0.7652547217206  0.3212007861831 1.0
C      1  0.3205119683974  0.7388626129364  0.5846160722286 1.0
C      1  0.3119704612756  0.7508695717641  0.2306052449574 1.0
C      1  0.4820021759380  0.8021600278229  0.4242559269212 1.0
C      1  0.4357153791655  0.4473945397825  0.8456310710878 1.0
C      1  0.7109181148180  0.5892638069356  0.8191835128468 1.0
C      1  0.3702856113130  0.3390406146081  0.5791184637722 1.0
C      1  0.6325654192384  0.2227635139955  0.4081977551626 1.0
C      1  0.4494410677484  0.4923870362298  0.6585014484261 1.0
C      1  0.5694393497901  0.7318844482848  0.7715003326153 1.0
C      1  0.4817418636198  0.2279107781510  0.3359437601960 1.0
C      1  0.6861861939042  0.5256893421052  0.3587377899381 1.0
C      1  0.4637139060372  0.8194378306227  0.6012015863019 1.0
C      1  0.3374379560979  0.5433717794593  0.3296821618339 1.0
C      1  0.8081007875170  0.4549493779951  0.2591910848637 1.0
END
