TITL C-22632-9033-7 -8.279 3375.00 -1444.48250837 0 0 175 (C1) n - 1
REM
REM Run started: at 2020.12.06 16:09:42 in /rds/project/t2_vol4/rds-t2-cs072/BORA/CARBON/AIRSS/Generating-Clusters/Str-Search/Only-C1/C100-200
REM VASP from code version vasp.5.4.4.18Apr17-6-g9f103f2a35 (build Oct 11 2019 16:45:47) gamma-only
REM
REM
REM
REM
REM ./C.cell (efaf0b2bf1589a83377268d7ebe2c73f)
REM AIRSS Version 0.9.1 bugfix July 2018 build 013d7b7c2542+ Fri, 06 Jul 2018 19:26:36 +0100
REM compiler GCC version 4.8.5 20150623 (Red Hat 4.8.5-39)
REM options -cpp -mtune=generic -march=x86-64 -g -O0
REM seed -2075270354 1524746216 -382689799 2126661033 -1386939835 554186135 234247521 -936216381 -338110737 1082587194 -230261797 1966760939
REM
REM C.POTCAR (d86ddea03c3ceb6dc662c8ad6801f873)
REM 
CELL 1.54180   15.00000   15.00000   15.00000   90.00000   90.00000   90.00000
LATT -1
SFAC C  
C      1  0.1946135394464  0.4635179533131  0.3275130235901 1.0
C      1  0.6087440359399  0.3627326658884  0.3373977992991 1.0
C      1  0.3428796280481  0.2164069099106  0.2744743363328 1.0
C      1  0.7539026559267  0.4902722094462  0.3649889519339 1.0
C      1  0.3668119815719  0.7530660852174  0.4965015786108 1.0
C      1  0.7222678900856  0.8425204915564  0.5140689392242 1.0
C      1  0.4819143500893  0.5111615696297  0.4047863588850 1.0
C      1  0.6020024043954  0.8025523058140  0.7140043420376 1.0
C      1  0.2899059689982  0.8137755458213  0.4632363175087 1.0
C      1  0.3625256931018  0.3827096058243  0.1832075229996 1.0
C      1  0.6421825605911  0.7394115074471  0.7751353071036 1.0
C      1  0.8209607752669  0.6429859501557  0.4440110316494 1.0
C      1  0.1638526819678  0.4516387741348  0.5441135327265 1.0
C      1  0.3568928633245  0.4587747225152  0.8346348026755 1.0
C      1  0.2783289648032  0.7601258223178  0.6464662604487 1.0
C      1  0.4164550179697  0.6269452764833  0.7379298171087 1.0
C      1  0.5030184957332  0.6630105162139  0.8693714080771 1.0
C      1  0.7875601252724  0.5937841782245  0.3601924985932 1.0
C      1  0.2278132793926  0.5154926365407  0.6932592348062 1.0
C      1  0.2851176944277  0.4543736089235  0.7604612775741 1.0
C      1  0.4008272428915  0.1948208868683  0.2113140026002 1.0
C      1  0.2588038854410  0.5912966988125  0.1420936478843 1.0
C      1  0.2681429255796  0.2846843268643  0.2737162499830 1.0
C      1  0.7262095108480  0.5576037320595  0.6490103810134 1.0
C      1  0.1810673887223  0.6827569563972  0.4445071385746 1.0
C      1  0.4483501914228  0.1960161537308  0.6487806305463 1.0
C      1  0.3774139472282  0.2411520140838  0.3734463666367 1.0
C      1  0.7763422557256  0.2039572548229  0.4109585865338 1.0
C      1  0.4618218355324  0.7943073842360  0.4933740168510 1.0
C      1  0.1942832000951  0.3899856374799  0.3968456663529 1.0
C      1  0.3770504886935  0.3748974808951  0.5506089430982 1.0
C      1  0.4518085888500  0.4165567926292  0.4002563603623 1.0
C      1  0.6441053008706  0.3306858870588  0.5828053988429 1.0
C      1  0.6422778458602  0.7554104812755  0.3874809256223 1.0
C      1  0.3389775414673  0.4255509315625  0.6024549196551 1.0
C      1  0.2222100954109  0.4400273501443  0.2342930008956 1.0
C      1  0.1914475129328  0.5660572401799  0.2996857836411 1.0
C      1  0.5378461189026  0.4602628841783  0.2128963085406 1.0
C      1  0.6928893063464  0.2587671591359  0.7778844938698 1.0
C      1  0.5010912674711  0.5105537263058  0.8895417097678 1.0
C      1  0.7903889696691  0.4646252941317  0.7600836335798 1.0
C      1  0.3844023915628  0.4486934311434  0.2491013840629 1.0
C      1  0.7347604035492  0.6112806436775  0.7248834985195 1.0
C      1  0.5221211084623  0.3129544797785  0.4680614770428 1.0
C      1  0.8672225950082  0.5773777528224  0.2964009635617 1.0
C      1  0.1959056498185  0.2877399518637  0.5213753858151 1.0
C      1  0.7342752013938  0.5671329618187  0.9043014233673 1.0
C      1  0.7890918561858  0.3877235707304  0.8193156329016 1.0
C      1  0.1710585230069  0.6508976578430  0.6018356674423 1.0
C      1  0.4553862874628  0.6321915381732  0.5107923033476 1.0
C      1  0.2637386181316  0.6840946831612  0.7250776218465 1.0
C      1  0.2708534989374  0.5275857445941  0.4459948400155 1.0
C      1  0.7378586500032  0.5457516279370  0.8013332536849 1.0
C      1  0.5860111666936  0.7251742195702  0.2398285534670 1.0
C      1  0.6967580216027  0.4115554094352  0.6008665197719 1.0
C      1  0.6184508802424  0.3083937740946  0.7452125227674 1.0
C      1  0.4832462900424  0.5403393143306  0.4939974940674 1.0
C      1  0.4072623590426  0.8334898084537  0.3403406045257 1.0
C      1  0.8587244355717  0.1913632038378  0.3574837318686 1.0
C      1  0.6650454522091  0.8298887491470  0.6499284933515 1.0
C      1  0.6500218810557  0.6935817942546  0.3013653624372 1.0
C      1  0.4148733106406  0.6457524971780  0.6032308215989 1.0
C      1  0.4672876619212  0.1230712189956  0.4789606319918 1.0
C      1  0.5615061651882  0.2365853966701  0.1797437442229 1.0
C      1  0.1659067890926  0.3748399453427  0.4901881084733 1.0
C      1  0.6433249724670  0.5296394420991  0.8278712234093 1.0
C      1  0.4623588417077  0.5016153657859  0.2515391410902 1.0
C      1  0.4103770632897  0.6260119803584  0.8379788838780 1.0
C      1  0.7078700561790  0.1272350017093  0.5569371621373 1.0
C      1  0.3653271629145  0.1832375325720  0.6095143943776 1.0
C      1  0.3876864297361  0.3695700103340  0.8446555136401 1.0
C      1  0.6055861678198  0.2070553299919  0.2626367089351 1.0
C      1  0.5668069299063  0.9023401788030  0.5520243297874 1.0
C      1  0.7464358398400  0.1643498417456  0.4834421862614 1.0
C      1  0.3266124813595  0.2019795376861  0.4494723611942 1.0
C      1  0.5296039611114  0.4546872954498  0.7223513181248 1.0
C      1  0.4903145670805  0.4715106367602  0.5548513624196 1.0
C      1  0.2779003643712  0.4521612258483  0.3913782413690 1.0
C      1  0.3096633588715  0.6084567237856  0.4053376975971 1.0
C      1  0.3292716173902  0.3227094820233  0.3476187944902 1.0
C      1  0.6176709717559  0.3165695215038  0.4931648573079 1.0
C      1  0.3602106749233  0.4158152682292  0.3479041193991 1.0
C      1  0.6742038945241  0.3556951513165  0.4192930787484 1.0
C      1  0.2553469456445  0.3609319244677  0.7377693440061 1.0
C      1  0.5681641217411  0.1531611007037  0.3264253443682 1.0
C      1  0.4061803898413  0.5583921034883  0.6654982546163 1.0
C      1  0.3820239271710  0.1567004518737  0.5133764437216 1.0
C      1  0.5651824883125  0.8181724040711  0.3621680149397 1.0
C      1  0.5411536497139  0.0928359052240  0.5268303130911 1.0
C      1  0.6559692922883  0.6350536014134  0.5130984196823 1.0
C      1  0.6549344607203  0.8785322866519  0.5702359278010 1.0
C      1  0.4621427739796  0.5604934845362  0.3301949655034 1.0
C      1  0.6976262834985  0.6096862633451  0.3101594839193 1.0
C      1  0.5632636517631  0.4718213194187  0.8193113978699 1.0
C      1  0.4911585404397  0.8688747794735  0.5497351311091 1.0
C      1  0.4336625545715  0.7327117292563  0.2170634526251 1.0
C      1  0.6667396184500  0.2848970151213  0.2907361425073 1.0
C      1  0.9104374342404  0.5204455120852  0.6500564842113 1.0
C      1  0.4857479119141  0.4941190503693  0.6506620636410 1.0
C      1  0.7278837090254  0.1522315081802  0.6468812571510 1.0
C      1  0.5229379509671  0.6410599950379  0.1032233839235 1.0
C      1  0.5091344618129  0.1624458907295  0.3927980990560 1.0
C      1  0.5228219266865  0.3867801605457  0.1556200320161 1.0
C      1  0.5958269734231  0.2859020113262  0.6522615114351 1.0
C      1  0.2425948204405  0.2441849884729  0.4497621884565 1.0
C      1  0.5222452085530  0.2337958674410  0.6447394747528 1.0
C      1  0.3146715737657  0.8066512959361  0.3631357000793 1.0
C      1  0.5523535478686  0.7127029984473  0.8112494996530 1.0
C      1  0.5167138077150  0.3432762982881  0.3694350092081 1.0
C      1  0.3251460857088  0.4932743983245  0.6664377752901 1.0
C      1  0.1589762577702  0.6167916911708  0.5138979557947 1.0
C      1  0.4777952657794  0.8285094653719  0.4021809643857 1.0
C      1  0.3463079147991  0.7161288851229  0.5872688233905 1.0
C      1  0.3149103334598  0.6309255504621  0.1899329284260 1.0
C      1  0.4409759995548  0.3386030983017  0.1508412008425 1.0
C      1  0.7181639369523  0.7037065485272  0.7263253728568 1.0
C      1  0.8251263598199  0.3392355143868  0.3333121895261 1.0
C      1  0.6062580447029  0.6935893124896  0.4673825051911 1.0
C      1  0.6415903317330  0.5862077516436  0.9006263193839 1.0
C      1  0.5482174878415  0.8093650024434  0.2718504093430 1.0
C      1  0.2101761391684  0.6165955907992  0.6854133387105 1.0
C      1  0.7534020093008  0.3140677840677  0.8230201630101 1.0
C      1  0.6824121797254  0.5172823939813  0.3000681506580 1.0
C      1  0.6222605867730  0.0892361625402  0.5427836183781 1.0
C      1  0.1747523153095  0.4449776077929  0.6373774099483 1.0
C      1  0.3923750155566  0.6292067510179  0.3442535485925 1.0
C      1  0.2338454831255  0.3020480409594  0.3680032332070 1.0
C      1  0.5149834406091  0.6876962333298  0.1827752715145 1.0
C      1  0.6251814593177  0.4436600232459  0.2635011143140 1.0
C      1  0.2271045417467  0.6541606041798  0.3582618925394 1.0
C      1  0.5324690044263  0.6111382150588  0.0274899975243 1.0
C      1  0.8905592171368  0.4966029559693  0.2962346033243 1.0
C      1  0.2154743649058  0.2790513277069  0.6130489348530 1.0
C      1  0.9106305738681  0.5612296880205  0.5697573712160 1.0
C      1  0.7089524851052  0.4458662154680  0.4420595640129 1.0
C      1  0.8835293126813  0.2640272786763  0.3227203971068 1.0
C      1  0.8769050896601  0.5970646041459  0.5031059155051 1.0
C      1  0.4651413284149  0.6908714311838  0.6824905059624 1.0
C      1  0.5753476919440  0.3880047789663  0.7656545846456 1.0
C      1  0.5176649265387  0.7078257836695  0.4958842035386 1.0
C      1  0.4649960872358  0.2423418619657  0.1656597763953 1.0
C      1  0.6630053092147  0.3554083531773  0.2184244243884 1.0
C      1  0.8780998741666  0.4896478125169  0.7197042012135 1.0
C      1  0.3555696545493  0.6841487164254  0.2595127361978 1.0
C      1  0.6922835977558  0.5674024002706  0.5597735716864 1.0
C      1  0.3384820798440  0.6671598969783  0.7835376990215 1.0
C      1  0.7207959239932  0.1886293130903  0.7202916072239 1.0
C      1  0.7746622012288  0.7712408270903  0.5620345195413 1.0
C      1  0.2898898082153  0.8587538029795  0.6209705677189 1.0
C      1  0.1942678911052  0.3572738583430  0.6670380125339 1.0
C      1  0.7340458344679  0.4625809419594  0.6706056474304 1.0
C      1  0.1934514459976  0.5313860427662  0.4979625642435 1.0
C      1  0.7361550404310  0.7633047866691  0.6492002077613 1.0
C      1  0.4596531639035  0.3861885423428  0.5018534047613 1.0
C      1  0.7885656371584  0.7252180646182  0.4745006183809 1.0
C      1  0.7387970319277  0.2923457607389  0.3676139121679 1.0
C      1  0.5467835579247  0.5943817119691  0.9332032464447 1.0
C      1  0.3775155242832  0.2999823437551  0.7992496448977 1.0
C      1  0.2946649513282  0.8824547670375  0.5402340953138 1.0
C      1  0.6939482991941  0.4760429326894  0.5256727290365 1.0
C      1  0.2921565677136  0.2317081700613  0.6541184004844 1.0
C      1  0.3816417433285  0.6649503351232  0.4432169130351 1.0
C      1  0.5198272304535  0.7524492938449  0.7247729927408 1.0
C      1  0.7225727733345  0.7882651117374  0.4366086411614 1.0
C      1  0.4753704896003  0.2553029651520  0.3925488500048 1.0
C      1  0.8307462674276  0.4296905106719  0.3282096991225 1.0
C      1  0.4525157319241  0.8138057693305  0.2569167803066 1.0
C      1  0.2681578216672  0.3611851991651  0.2079741203411 1.0
C      1  0.3094560423374  0.2826120607645  0.7361803920816 1.0
C      1  0.2061561954513  0.7364249658469  0.5833427386402 1.0
C      1  0.4105183575494  0.5280563009948  0.8668493959658 1.0
C      1  0.2822790871168  0.7327514779419  0.3149773934617 1.0
C      1  0.5960685366848  0.3249006965605  0.1616058167549 1.0
C      1  0.2095729086051  0.7585342561855  0.4894363008276 1.0
C      1  0.2196734465109  0.5373258052230  0.2144268560219 1.0
END
