TITL C-22861-7234-3 -8.988 3375.00 -1529.71361268 0 0 188 (C1) n - 1
REM
REM Run started: at 2020.12.06 11:20:27 in /rds/project/t2_vol4/rds-t2-cs072/BORA/CARBON/AIRSS/Generating-Clusters/Str-Search/Only-C1/C100-200
REM VASP from code version vasp.5.4.4.18Apr17-6-g9f103f2a35 (build Oct 11 2019 16:45:47) gamma-only
REM
REM
REM
REM
REM ./C.cell (efaf0b2bf1589a83377268d7ebe2c73f)
REM AIRSS Version 0.9.1 bugfix July 2018 build 013d7b7c2542+ Fri, 06 Jul 2018 19:26:36 +0100
REM compiler GCC version 4.8.5 20150623 (Red Hat 4.8.5-39)
REM options -cpp -mtune=generic -march=x86-64 -g -O0
REM seed -949642844 1646852915 1789738303 517076509 -171443312 -221596600 -498641511 -974725303 -1944885026 648279087 494184354 606759491
REM
REM C.POTCAR (d86ddea03c3ceb6dc662c8ad6801f873)
REM 
CELL 1.54180   15.00000   15.00000   15.00000   90.00000   90.00000   90.00000
LATT -1
SFAC C  
C      1  0.4719584318919  0.5783524130401  0.1540248202379 1.0
C      1  0.7722093846776  0.6088703900421  0.4068217959335 1.0
C      1  0.5711369138455  0.5551112462011  0.5884116722065 1.0
C      1  0.3963733535335  0.6783334633324  0.3203302476984 1.0
C      1  0.5604210108387  0.2618003632828  0.4131137780421 1.0
C      1  0.5323735901170  0.7853612069504  0.7371745550750 1.0
C      1  0.7162211213120  0.4738117912128  0.8042220038655 1.0
C      1  0.3391130385484  0.4256360608874  0.8301676566280 1.0
C      1  0.4368154711752  0.5568863151456  0.6752109179047 1.0
C      1  0.5647737470297  0.5732588681619  0.1239097983571 1.0
C      1  0.3660273249702  0.4868530716694  0.6732187695739 1.0
C      1  0.0865689820939  0.3917064596633  0.5787821584295 1.0
C      1  0.2753987510660  0.4364923317563  0.5477993687179 1.0
C      1  0.3911007065304  0.6382497326665  0.8718402380693 1.0
C      1  0.6687329460222  0.6068180820584  0.3960330140088 1.0
C      1  0.4966376047733  0.5062098114519  0.4225429137438 1.0
C      1  0.6198194512426  0.6419192505599  0.1550771956726 1.0
C      1  0.7805047602731  0.3926408772694  0.4821141910869 1.0
C      1  0.3160163776327  0.4911337098888  0.7652238305463 1.0
C      1  0.0401145266462  0.5761984238053  0.5492560002912 1.0
C      1  0.6288295436044  0.7004041440836  0.4014622632977 1.0
C      1  0.5852510531681  0.3925429922488  0.6344462595707 1.0
C      1  0.2973221998026  0.2762928287989  0.2697057301694 1.0
C      1  0.7544951262577  0.5528172355345  0.6721605964330 1.0
C      1  0.7355943198523  0.1588610074676  0.4715250622061 1.0
C      1  0.7306568890802  0.7679773045587  0.2878021151645 1.0
C      1  0.8061531987732  0.7432520897784  0.5761207523877 1.0
C      1  0.6247047770005  0.7468648870528  0.3108346590423 1.0
C      1  0.8848749053906  0.5510869576729  0.2485666806045 1.0
C      1  0.1809363171390  0.6651018090391  0.6650273407148 1.0
C      1  0.4012539903225  0.7268043755813  0.5118600142015 1.0
C      1  0.3436833778104  0.1792364654955  0.6811472547725 1.0
C      1  0.5150591095541  0.4300761347667  0.1488314060498 1.0
C      1  0.5133157460265  0.4358435486975  0.9365776869479 1.0
C      1  0.5796842019914  0.2906865412571  0.7876273907211 1.0
C      1  0.5641061547003  0.2686735901011  0.2198914901475 1.0
C      1  0.2850798792542  0.1958785162646  0.6055616564702 1.0
C      1  0.7057286196207  0.3122617723635  0.6133578908135 1.0
C      1  0.7459489947905  0.3271788890204  0.8317883679194 1.0
C      1  0.7862516377371  0.8251131925648  0.3393575417809 1.0
C      1  0.5651704203054  0.4973714924662  0.4961579669013 1.0
C      1  0.6592117402822  0.5970769387321  0.5558054997562 1.0
C      1  0.5706437761949  0.6507785754195  0.8138586574535 1.0
C      1  0.4504269474634  0.5499359753010  0.2552153942280 1.0
C      1  0.7370409035524  0.4858975492244  0.4996519639466 1.0
C      1  0.3351472393020  0.4578436348020  0.4082473333001 1.0
C      1  0.0304460213515  0.5794645829669  0.6425088866046 1.0
C      1  0.7535414104829  0.3180780885444  0.4175619310392 1.0
C      1  0.6944935192881  0.0784672233730  0.5071147632587 1.0
C      1  0.4359320713031  0.3141374051467  0.2244069535691 1.0
C      1  0.6679609535806  0.3023164770545  0.8132640474701 1.0
C      1  0.2228227930232  0.6360822128182  0.5114508511288 1.0
C      1  0.1158189682348  0.6256707225323  0.5044413406970 1.0
C      1  0.3506705988553  0.3465521215057  0.2203022716727 1.0
C      1  0.4635667769850  0.8643703638479  0.5955819218709 1.0
C      1  0.6795637028141  0.1839961421081  0.4003427986850 1.0
C      1  0.3806261926318  0.8091299312471  0.5723767207706 1.0
C      1  0.3605445669327  0.1326069278978  0.4535828724016 1.0
C      1  0.2700370601196  0.4894715004522  0.2365426307986 1.0
C      1  0.5332201957521  0.8108654807365  0.2988232705681 1.0
C      1  0.4508052953843  0.1378101143402  0.4321593921760 1.0
C      1  0.4039272680121  0.7040479749459  0.8069097741342 1.0
C      1  0.2973729597879  0.1661065024734  0.5177813960111 1.0
C      1  0.2617965768160  0.6670659275707  0.7228724638051 1.0
C      1  0.1315931154052  0.4731023706859  0.3208628860097 1.0
C      1  0.1486022433420  0.5023222793603  0.7087549584781 1.0
C      1  0.5914814129632  0.1673520944804  0.4062735684366 1.0
C      1  0.6996627856737  0.4662661741097  0.1991290128365 1.0
C      1  0.2119690108345  0.4377829865770  0.2972051998257 1.0
C      1  0.7523338638009  0.7148194609968  0.6453271790842 1.0
C      1  0.5602903397678  0.3010549459586  0.5113847827989 1.0
C      1  0.3470575299777  0.7564667293520  0.3309991252774 1.0
C      1  0.8639429692470  0.4236191146968  0.4324742975020 1.0
C      1  0.2990278754071  0.5950992559388  0.5544809100158 1.0
C      1  0.5125246557906  0.9053456579645  0.5301582557630 1.0
C      1  0.6828123720979  0.5377286517798  0.2469226948066 1.0
C      1  0.0282415454866  0.4246419065915  0.5200843081258 1.0
C      1  0.8950835948494  0.5055776998379  0.4745298194160 1.0
C      1  0.4314656871004  0.5790601084675  0.9150530232280 1.0
C      1  0.4450781298678  0.4087539804170  0.5357352655187 1.0
C      1  0.3799542198766  0.8217223284684  0.3923485527211 1.0
C      1  0.2437814749258  0.2891918862206  0.6037658442006 1.0
C      1  0.6149073472060  0.6638926222657  0.2523050107908 1.0
C      1  0.1931657290657  0.7463314625798  0.3889475096138 1.0
C      1  0.8566813547653  0.4043356493971  0.3359343210316 1.0
C      1  0.4407802896924  0.6268162671084  0.6202798217597 1.0
C      1  0.3077148718957  0.2159344327490  0.4334271654322 1.0
C      1  0.5396062501513  0.1015143976356  0.4479074959807 1.0
C      1  0.3829370734350  0.2847754282584  0.4218248996661 1.0
C      1  0.7198540488947  0.4730429119668  0.7043415607758 1.0
C      1  0.6815001903665  0.3946573470949  0.6524297901779 1.0
C      1  0.1003461589584  0.6153131698135  0.4039421081517 1.0
C      1  0.5843385220073  0.4792371490868  0.1103884017793 1.0
C      1  0.7719719598996  0.6878460858662  0.2467357775082 1.0
C      1  0.3033283855397  0.3429900372213  0.5623602203717 1.0
C      1  0.4775939535586  0.2668643919126  0.5680165580228 1.0
C      1  0.6632646483466  0.2645833157042  0.2098103522177 1.0
C      1  0.3398906919858  0.7275876583207  0.7337731568113 1.0
C      1  0.3956180360879  0.3194995327759  0.5168956063954 1.0
C      1  0.3743071923316  0.6466495526473  0.5584257081245 1.0
C      1  0.5169786999270  0.3554068335924  0.9188262407192 1.0
C      1  0.6138295049325  0.5795952347331  0.3113073342909 1.0
C      1  0.4321836492328  0.4123281683785  0.6439042814956 1.0
C      1  0.2588548071791  0.4476012984447  0.4549719673214 1.0
C      1  0.5054203432119  0.2905166559366  0.8515358361577 1.0
C      1  0.1202824348605  0.5906924603982  0.6802186639447 1.0
C      1  0.4527024336555  0.7427293107889  0.1641079231421 1.0
C      1  0.5110981842647  0.5645902827541  0.3402584127414 1.0
C      1  0.8085823388056  0.5588941731867  0.4862359468795 1.0
C      1  0.3570777377032  0.3454271696413  0.8391799344649 1.0
C      1  0.4549130669276  0.3106211596207  0.6625928328727 1.0
C      1  0.8174811456283  0.6442305547560  0.3401230076146 1.0
C      1  0.7397240655353  0.6448508935611  0.7090253542855 1.0
C      1  0.5176800456175  0.1366129180455  0.6731806753312 1.0
C      1  0.1280451475592  0.4196356451695  0.6628715416292 1.0
C      1  0.4352124058642  0.4843276885480  0.1793606449288 1.0
C      1  0.1575283765671  0.3409400459746  0.6248795117833 1.0
C      1  0.7010968834850  0.3556334007590  0.0770860921906 1.0
C      1  0.4084065518295  0.1601886858509  0.2353571754055 1.0
C      1  0.4687432136895  0.6559122966666  0.3725432067983 1.0
C      1  0.5350343143848  0.5300494819367  0.6865408952843 1.0
C      1  0.4988260634124  0.7228102884949  0.8004264904350 1.0
C      1  0.5378219866970  0.6475260691249  0.6194904786863 1.0
C      1  0.2208929754086  0.5121439702183  0.7635494968926 1.0
C      1  0.3766214454738  0.7878359369505  0.6728333685033 1.0
C      1  0.6681348822237  0.2800256415408  0.3753946910760 1.0
C      1  0.6218729321314  0.7629608603018  0.7136510289768 1.0
C      1  0.8757117818926  0.4371830380556  0.8018664129794 1.0
C      1  0.7893587425137  0.3365251131925  0.3257299242897 1.0
C      1  0.8228130833963  0.7832878741627  0.5045852013868 1.0
C      1  0.6755264466718  0.4395855015504  0.1170100001941 1.0
C      1  0.4647462630310  0.2371877575322  0.3783508859792 1.0
C      1  0.3712016838481  0.6171373760273  0.2491978408421 1.0
C      1  0.6496707059745  0.6738386891987  0.7524798996628 1.0
C      1  0.4723953452435  0.2325152193936  0.2710698817347 1.0
C      1  0.2299760969443  0.7392166346064  0.4829150684153 1.0
C      1  0.4655304873586  0.8267020481825  0.6818923294861 1.0
C      1  0.7088650380414  0.2973866345325  0.2849686916150 1.0
C      1  0.7822037140483  0.2438728855890  0.4859177186858 1.0
C      1  0.3294213052874  0.7918091903630  0.4851981053088 1.0
C      1  0.6941118550889  0.2884281120422  0.1255741962223 1.0
C      1  0.7943230559835  0.4089512353122  0.8259610352859 1.0
C      1  0.0935097102472  0.5310916785172  0.3674859234604 1.0
C      1  0.5165120277510  0.3423252299305  0.1864493503121 1.0
C      1  0.4301161177441  0.1496435180126  0.6906198500188 1.0
C      1  0.2623635595110  0.3920979815752  0.3745228221151 1.0
C      1  0.4221846387767  0.4643441933927  0.4507190335177 1.0
C      1  0.7776576027538  0.3105628643110  0.5509704206562 1.0
C      1  0.4178019671582  0.2772718209565  0.8180202213878 1.0
C      1  0.2700265701391  0.5866639409544  0.7763502529711 1.0
C      1  0.5422360206669  0.3355315994221  0.7071246490930 1.0
C      1  0.7513260938085  0.5585345540767  0.5733172626707 1.0
C      1  0.8637061142914  0.6439051121912  0.2611377465367 1.0
C      1  0.4836055431326  0.7035865416010  0.4559918302914 1.0
C      1  0.9244712825477  0.4911078789232  0.7531307300659 1.0
C      1  0.6581636653053  0.5193787787382  0.8511233831006 1.0
C      1  0.1444438876188  0.6742725353736  0.3488082907612 1.0
C      1  0.3306226009786  0.1932195955960  0.2473059769380 1.0
C      1  0.7016800480144  0.6292088586069  0.2085847201798 1.0
C      1  0.8500711681854  0.8909605145970  0.3587554136342 1.0
C      1  0.6203790537245  0.2558267903953  0.5824123288875 1.0
C      1  0.4731840202817  0.8478572444145  0.3751096622016 1.0
C      1  0.6530431460580  0.5396064241116  0.4712196827739 1.0
C      1  0.3027776190320  0.5070509921025  0.5971136306912 1.0
C      1  0.9836154447195  0.5066010731929  0.5054640066899 1.0
C      1  0.2183697252218  0.6565978640050  0.2815885731930 1.0
C      1  0.8249019436237  0.8273903454594  0.4258630481091 1.0
C      1  0.5734834803306  0.7153201893739  0.4765172337917 1.0
C      1  0.5479268759029  0.1975158402817  0.6083884583066 1.0
C      1  0.6638625514203  0.7590683385920  0.6295970900801 1.0
C      1  0.5091518321646  0.8912948970730  0.4479036898086 1.0
C      1  0.9694713378919  0.5347485234965  0.6956443418140 1.0
C      1  0.6117657003004  0.0600400241985  0.4948373252585 1.0
C      1  0.5084109541257  0.5273305808313  0.9177128849040 1.0
C      1  0.6108264467522  0.6971961151804  0.5659496631861 1.0
C      1  0.4044820665673  0.2463512336308  0.7231743261510 1.0
C      1  0.4913960654968  0.7935621288967  0.2211179823984 1.0
C      1  0.2937090422164  0.2950710942434  0.3678415154411 1.0
C      1  0.4199795842523  0.6583723098583  0.1672485906394 1.0
C      1  0.1674160542103  0.7010131592923  0.5642954794595 1.0
C      1  0.2737902830581  0.5876355232182  0.2492743815949 1.0
C      1  0.5200459865189  0.4343864242086  0.6933225243427 1.0
C      1  0.8871368376588  0.4727925259803  0.2765900882112 1.0
C      1  0.5839144731950  0.5681472168031  0.8705308516147 1.0
C      1  0.2574614497673  0.7391020537142  0.3190100152579 1.0
C      1  0.5712222386957  0.6181130499089  0.7149223637165 1.0
C      1  0.5489184493223  0.3997869642679  0.5348116264841 1.0
C      1  0.3432123521743  0.4412780801700  0.2008274949354 1.0
END
