TITL C-22703-59-4 -6.285 3375.00 -1082.17498205 0 0 132 (C1) n - 1
REM
REM Run started: at 2020.12.06 12:56:23 in /rds/project/t2_vol4/rds-t2-cs072/BORA/CARBON/AIRSS/Generating-Clusters/Str-Search/Only-C1/C100-200
REM VASP from code version vasp.5.4.4.18Apr17-6-g9f103f2a35 (build Oct 11 2019 16:45:47) gamma-only
REM
REM
REM
REM
REM ./C.cell (efaf0b2bf1589a83377268d7ebe2c73f)
REM AIRSS Version 0.9.1 bugfix July 2018 build 013d7b7c2542+ Fri, 06 Jul 2018 19:26:36 +0100
REM compiler GCC version 4.8.5 20150623 (Red Hat 4.8.5-39)
REM options -cpp -mtune=generic -march=x86-64 -g -O0
REM seed -335992717 -1405838497 -1731127593 1680940084 1341804586 -1539452364 -93954921 1500877123 -393409902 460400900 -2023286263 -741291317
REM
REM C.POTCAR (d86ddea03c3ceb6dc662c8ad6801f873)
REM 
CELL 1.54180   15.00000   15.00000   15.00000   90.00000   90.00000   90.00000
LATT -1
SFAC C  
C      1  0.5794792903465  0.1867127763031  0.4017885151799 1.0
C      1  0.5441295736063  0.8195143364728  0.5078573508614 1.0
C      1  0.7361838541416  0.4111082236677  0.7229937342313 1.0
C      1  0.5345995443444  0.3100907962664  0.7962814114358 1.0
C      1  0.6874654499942  0.3011618343190  0.5370544525935 1.0
C      1  0.4596137971809  0.5621937764983  0.6683962145555 1.0
C      1  0.2299329230977  0.6540923260504  0.6940266968320 1.0
C      1  0.4469940181378  0.3697882694880  0.1660087481174 1.0
C      1  0.7414960310034  0.4985994246101  0.6701546727556 1.0
C      1  0.4596378939667  0.4005517793763  0.7113872733158 1.0
C      1  0.5281908440783  0.6257961450880  0.6672849570024 1.0
C      1  0.5562256691836  0.4335723201324  0.8902641327163 1.0
C      1  0.7833471411667  0.6506186479251  0.4947390255877 1.0
C      1  0.7962999706384  0.5458545777414  0.6038371949111 1.0
C      1  0.4916945506527  0.5320276988460  0.4020480520461 1.0
C      1  0.6393293020972  0.3289980575134  0.2147985395620 1.0
C      1  0.3402493390997  0.4498941579482  0.7773289650382 1.0
C      1  0.4425804409145  0.3880867097071  0.3712502422862 1.0
C      1  0.4894125424631  0.3737170798650  0.8552596744898 1.0
C      1  0.3695004020191  0.3343596046410  0.4176334183346 1.0
C      1  0.6064996316644  0.3396016453393  0.4208997553201 1.0
C      1  0.3251801466807  0.1463147465215  0.4322858244464 1.0
C      1  0.2399930531939  0.6089685210532  0.3989908014478 1.0
C      1  0.4416975273811  0.6608722331631  0.8462485961829 1.0
C      1  0.1919671772772  0.5257494117595  0.3889067174945 1.0
C      1  0.4818297194465  0.6709873049508  0.2522485864287 1.0
C      1  0.3053260580958  0.5217193353145  0.6270069633156 1.0
C      1  0.2126812547266  0.3261822612586  0.5651770546374 1.0
C      1  0.5571569737124  0.3058569532179  0.6302418035178 1.0
C      1  0.6251070930908  0.3785077036083  0.5094210943426 1.0
C      1  0.6401714647772  0.4096970186534  0.8489064896155 1.0
C      1  0.6037966249793  0.6600401817275  0.8176343069833 1.0
C      1  0.2858197106760  0.6725822325065  0.7630443258165 1.0
C      1  0.5477902256698  0.6649131653795  0.3241767391597 1.0
C      1  0.6853396475240  0.3302460215758  0.7145359161741 1.0
C      1  0.3540051208942  0.6674814281403  0.8114916860261 1.0
C      1  0.5409967122156  0.5240809645306  0.9123587283244 1.0
C      1  0.1964098153777  0.4864210194066  0.4831100353294 1.0
C      1  0.4444786907508  0.1795305305533  0.6082731099248 1.0
C      1  0.6519406260653  0.5118746355143  0.6213843176400 1.0
C      1  0.5081307229194  0.1511455239974  0.4562506878117 1.0
C      1  0.4158889999851  0.2522360262615  0.2398153217023 1.0
C      1  0.6902045362158  0.7241420942652  0.1948495156141 1.0
C      1  0.4133195395423  0.2454769673595  0.6668352696782 1.0
C      1  0.4964246989027  0.1487797757743  0.5476974061098 1.0
C      1  0.5815336372156  0.6049650053653  0.8899657689785 1.0
C      1  0.5053582982032  0.6264715411143  0.4022727982237 1.0
C      1  0.8160485503565  0.4089247312022  0.5170782185711 1.0
C      1  0.6716082432960  0.8369465532813  0.3699355172810 1.0
C      1  0.4501584209746  0.1970701860181  0.3099016266692 1.0
C      1  0.2877608450790  0.3816420736156  0.2338279084338 1.0
C      1  0.2752788833315  0.4845087499695  0.2408854764296 1.0
C      1  0.4176122578453  0.4122121385914  0.7999677499512 1.0
C      1  0.3947208189955  0.7017539997830  0.2762368861815 1.0
C      1  0.4786578793207  0.4686013553107  0.6561440470812 1.0
C      1  0.3590718764141  0.4941287618454  0.4556054720628 1.0
C      1  0.2789893844735  0.6727126912587  0.3439002417631 1.0
C      1  0.3846047649347  0.2461023861919  0.4520289994918 1.0
C      1  0.4088555462569  0.8573447878667  0.5847355569054 1.0
C      1  0.2821673494553  0.5602922101127  0.4753766214827 1.0
C      1  0.3167865003570  0.5688718495827  0.2052463747308 1.0
C      1  0.3244280433831  0.2005491316244  0.5091178255852 1.0
C      1  0.4888470167828  0.5939499756975  0.1936772603446 1.0
C      1  0.3641271326043  0.3336430679833  0.2088951116242 1.0
C      1  0.3142286264578  0.6530831520289  0.2525371699999 1.0
C      1  0.7051207677715  0.6481582777429  0.2551406524126 1.0
C      1  0.2961151495453  0.4547056084868  0.6987565588397 1.0
C      1  0.5074617465129  0.4547555347605  0.5623044793503 1.0
C      1  0.6444175452377  0.5266256508539  0.3489404690893 1.0
C      1  0.6267168287828  0.3314012685909  0.7945212055022 1.0
C      1  0.2614094577023  0.3625494832860  0.6754358148205 1.0
C      1  0.6520815846317  0.2908414329647  0.6330696219466 1.0
C      1  0.7943517747819  0.5704388336823  0.3621242508492 1.0
C      1  0.8154662375536  0.5678006874057  0.4548260713150 1.0
C      1  0.7187169007161  0.5457750703574  0.7581940483223 1.0
C      1  0.1994125292966  0.6213051631936  0.6225626412641 1.0
C      1  0.6531420361397  0.4057095918283  0.1864226649645 1.0
C      1  0.5680623720329  0.4810758843601  0.3696411714815 1.0
C      1  0.5027665528365  0.8387464796980  0.5931255356263 1.0
C      1  0.6381851981772  0.2564137679131  0.4418806299233 1.0
C      1  0.4924764097241  0.2882037709652  0.1943614264710 1.0
C      1  0.7530782891654  0.7080883055676  0.4243061048966 1.0
C      1  0.5140099141836  0.7161109741441  0.7010619832684 1.0
C      1  0.6745494688462  0.8002903891435  0.2244399588797 1.0
C      1  0.6178686883570  0.5964926163983  0.6552741613777 1.0
C      1  0.3873618458292  0.7856997376394  0.4353821355610 1.0
C      1  0.4688168139972  0.4596919224435  0.1511695053960 1.0
C      1  0.4073700788750  0.4874574145979  0.3637769669838 1.0
C      1  0.4820087572651  0.7690399295182  0.4560067350872 1.0
C      1  0.7671324092125  0.6359897334731  0.5886444779906 1.0
C      1  0.6396041423905  0.7521125217407  0.6084340880759 1.0
C      1  0.5590434278650  0.7829570154410  0.6515791210772 1.0
C      1  0.3659977644983  0.8312789214902  0.5156442650447 1.0
C      1  0.2309759379052  0.3876129869016  0.4873441616080 1.0
C      1  0.4898893437877  0.3046862300604  0.7037932010776 1.0
C      1  0.5466454389573  0.5222021149935  0.1635748175531 1.0
C      1  0.2335096323234  0.5496283404456  0.5611362828082 1.0
C      1  0.1729148628393  0.3662556170541  0.6408578981529 1.0
C      1  0.4349967308548  0.6051539105821  0.5380953702269 1.0
C      1  0.7378533710697  0.5083100655638  0.3122913996731 1.0
C      1  0.6918627316432  0.7801425572014  0.4413651951464 1.0
C      1  0.5471057921343  0.2058981558463  0.3117976380879 1.0
C      1  0.3267721606325  0.4038419930468  0.4723251622184 1.0
C      1  0.7073494894901  0.5495862563551  0.2276076824518 1.0
C      1  0.6721995944320  0.8627545286759  0.2903647553562 1.0
C      1  0.5161556752897  0.6976166843288  0.7960760205751 1.0
C      1  0.3525033616576  0.7350033576195  0.3619481441968 1.0
C      1  0.7683388426956  0.6588343322688  0.3373698103856 1.0
C      1  0.6355999513104  0.7837329609454  0.5187171692742 1.0
C      1  0.8236541813463  0.5021957969097  0.5218075528051 1.0
C      1  0.6281786768096  0.6216414765229  0.3169513387586 1.0
C      1  0.5735990579636  0.2659688026437  0.2374607441857 1.0
C      1  0.6109441679626  0.4669586886059  0.5530238902812 1.0
C      1  0.4207549838712  0.1703697080905  0.4009977306286 1.0
C      1  0.6411215913370  0.4987331320577  0.1792433830569 1.0
C      1  0.6716612113629  0.6311544795287  0.7453720400551 1.0
C      1  0.5394139137638  0.3600403108980  0.5573924220133 1.0
C      1  0.2358556274230  0.3815077007165  0.3151394314212 1.0
C      1  0.7058498949353  0.4616627521150  0.8012083639286 1.0
C      1  0.5361107036499  0.3882986979405  0.3742758055835 1.0
C      1  0.6901108662156  0.6726468949369  0.6461821907188 1.0
C      1  0.2673006169145  0.3505086500302  0.3988317220084 1.0
C      1  0.3233306674848  0.2794404196191  0.6517557593629 1.0
C      1  0.3685046895998  0.5061335375384  0.2753652687263 1.0
C      1  0.4860986487143  0.6005828313427  0.9069761743723 1.0
C      1  0.3795586451264  0.5795070454465  0.6194558522117 1.0
C      1  0.2053271491531  0.4722929262018  0.3126892193282 1.0
C      1  0.4778729227746  0.6706256532599  0.4757748502164 1.0
C      1  0.4529596601399  0.5150549494869  0.4968278562965 1.0
C      1  0.2770124244538  0.2495711643125  0.5769830842636 1.0
C      1  0.4101366594340  0.5336985133348  0.1882508341274 1.0
C      1  0.7778633049786  0.3365094961495  0.5268216743529 1.0
END
