TITL C-22430-617-2 -6.744 3375.00 -1050.02238660 0 0 127 (C1) n - 1
REM
REM Run started: at 2020.12.24 00:24:32 in /rds/project/t2_vol4/rds-t2-cs072/BORA/CARBON/AIRSS/Generating-Clusters/Str-Search/Only-C1/C100-200
REM VASP from code version vasp.5.4.4.18Apr17-6-g9f103f2a35 (build Oct 11 2019 16:45:47) gamma-only
REM
REM
REM
REM
REM ./C.cell (efaf0b2bf1589a83377268d7ebe2c73f)
REM AIRSS Version 0.9.1 bugfix July 2018 build 013d7b7c2542+ Fri, 06 Jul 2018 19:26:36 +0100
REM compiler GCC version 4.8.5 20150623 (Red Hat 4.8.5-39)
REM options -cpp -mtune=generic -march=x86-64 -g -O0
REM seed 1321890538 -1565995295 -2007194469 2035645331 1490067094 -1041985347 -488176556 -183719937 -1155490312 284909260 -373531046 -207871213
REM
REM C.POTCAR (d86ddea03c3ceb6dc662c8ad6801f873)
REM 
CELL 1.54180   15.00000   15.00000   15.00000   90.00000   90.00000   90.00000
LATT -1
SFAC C  
C      1  0.4921517363379  0.1369379575204  0.4399797976201 1.0
C      1  0.4580239084966  0.6662009523160  0.7839831861329 1.0
C      1  0.3785325410436  0.1724256011709  0.5493144325168 1.0
C      1  0.4319293552909  0.5536550530795  0.1618965620872 1.0
C      1  0.7628046300565  0.6413856919076  0.5320224619396 1.0
C      1  0.3167442168449  0.4699947033314  0.5050444537685 1.0
C      1  0.1384110088654  0.4911386407506  0.4236713933425 1.0
C      1  0.6916113916631  0.7056788517795  0.6596270768105 1.0
C      1  0.5153239735189  0.1588342529807  0.3632932257297 1.0
C      1  0.5653108567758  0.2301765297786  0.6579847020528 1.0
C      1  0.3957349518880  0.4077596450341  0.7464382609184 1.0
C      1  0.7269137831101  0.6756399254134  0.3488321788897 1.0
C      1  0.1844689227097  0.5810566325714  0.4037929944364 1.0
C      1  0.6430206850878  0.7016608771791  0.7426523743718 1.0
C      1  0.1899664861827  0.5237689364990  0.7177411970905 1.0
C      1  0.2915072829171  0.3182847893506  0.3323473568328 1.0
C      1  0.2761682578968  0.4105729922630  0.3364665359584 1.0
C      1  0.6403297260324  0.4470198198110  0.7559394981361 1.0
C      1  0.5283352123023  0.4025857850555  0.3747097221123 1.0
C      1  0.4308154739120  0.7952192735120  0.5096102612332 1.0
C      1  0.5423847476878  0.5814084402276  0.4594188487286 1.0
C      1  0.5931400700377  0.2835609567752  0.4867583008242 1.0
C      1  0.6201091569069  0.6132102214314  0.7767294052883 1.0
C      1  0.2136741001161  0.4513781076586  0.4884586804092 1.0
C      1  0.4488700771800  0.5624741890882  0.4255985321339 1.0
C      1  0.7055866127381  0.3996192187038  0.7046220470935 1.0
C      1  0.3701050861973  0.7707338705712  0.5782546759472 1.0
C      1  0.4009641260821  0.4843875192931  0.8027377912991 1.0
C      1  0.5590672727623  0.2394197604859  0.3239906679829 1.0
C      1  0.5213557415827  0.5566026235862  0.9066462671924 1.0
C      1  0.2453159827039  0.5297891854360  0.7778816807815 1.0
C      1  0.6537758819515  0.3654043874514  0.5000157473020 1.0
C      1  0.6694712186775  0.7243779401633  0.4102308425672 1.0
C      1  0.6056611642608  0.2852543242380  0.2396776688250 1.0
C      1  0.5828041769419  0.7439192297978  0.3573967827109 1.0
C      1  0.2418981687832  0.3629153115984  0.6269626616772 1.0
C      1  0.5053941753409  0.7517954778419  0.8157519816007 1.0
C      1  0.1977120782893  0.4071557382836  0.4004702630036 1.0
C      1  0.3589856675512  0.6403504049460  0.7808890147205 1.0
C      1  0.5264374718067  0.4840326856580  0.3123479680176 1.0
C      1  0.5272449970788  0.4484828101710  0.5663437858530 1.0
C      1  0.5921011181513  0.8107376306865  0.5697851267257 1.0
C      1  0.4392346582828  0.5113978923385  0.3461928378763 1.0
C      1  0.3802067918920  0.5519423610704  0.4940819631129 1.0
C      1  0.6668912153263  0.7572684839403  0.5808482889091 1.0
C      1  0.2522174812341  0.6753143732116  0.6321747835475 1.0
C      1  0.5498493366761  0.4295800364618  0.7829605167103 1.0
C      1  0.4695767379597  0.1413689996184  0.5335277913086 1.0
C      1  0.3940220609752  0.7347535941721  0.6619463202903 1.0
C      1  0.3012264440421  0.6757407898244  0.3272849332855 1.0
C      1  0.5250724541164  0.6790813453547  0.2216802850778 1.0
C      1  0.5283002274377  0.5988920593639  0.8174298725769 1.0
C      1  0.4837654564769  0.4105856000800  0.4653577741934 1.0
C      1  0.6244987115276  0.2593403857282  0.3959358500453 1.0
C      1  0.2609112035866  0.7089242692398  0.4771605750494 1.0
C      1  0.3443778832965  0.4680735600348  0.6025467368947 1.0
C      1  0.4962397993458  0.3256138679428  0.3126979164339 1.0
C      1  0.2227699980871  0.3057296268281  0.4061900216961 1.0
C      1  0.4014134579693  0.3027837945179  0.4498972898313 1.0
C      1  0.4508645896857  0.7122224123944  0.2717142072063 1.0
C      1  0.6631058385576  0.2510893628002  0.6345673897894 1.0
C      1  0.6825816254353  0.6590613206725  0.2662582198415 1.0
C      1  0.3330323908360  0.5519601160791  0.8031906250966 1.0
C      1  0.6075964339288  0.4640544459401  0.3665053814888 1.0
C      1  0.3191153038787  0.6848014710323  0.7042819219392 1.0
C      1  0.7768630993054  0.4018199682332  0.5833796727486 1.0
C      1  0.3363331233966  0.2275667536180  0.6101589675774 1.0
C      1  0.2477295593888  0.2624667599923  0.4843751063717 1.0
C      1  0.6014639603898  0.7060309379755  0.2697568634811 1.0
C      1  0.6659841359725  0.4303853889295  0.2837279405123 1.0
C      1  0.4106604978204  0.7662923955641  0.4197014662383 1.0
C      1  0.6694556489516  0.5402192081716  0.7477735878842 1.0
C      1  0.7982340662971  0.4126359021997  0.4884485651045 1.0
C      1  0.0374863234111  0.4883022696543  0.4366368593227 1.0
C      1  0.3972735609256  0.3271215441254  0.3451557483267 1.0
C      1  0.7900789653421  0.6134631898161  0.3781324349615 1.0
C      1  0.2852758843984  0.7348372670029  0.5632770874421 1.0
C      1  0.5793460748880  0.4497657774044  0.2306683703462 1.0
C      1  0.4327343607200  0.4609747013453  0.1382560166893 1.0
C      1  0.5988856855142  0.5393393744545  0.1877134580739 1.0
C      1  0.7986009816092  0.5247510861596  0.3428510147912 1.0
C      1  0.5802648832613  0.7629480032706  0.7785265888717 1.0
C      1  0.6144973046148  0.5158637914021  0.4501043398850 1.0
C      1  0.5090721014286  0.3111919585556  0.6700712629072 1.0
C      1  0.5404209497992  0.6182078088345  0.5449526327827 1.0
C      1  0.4946130580486  0.3166238537102  0.4983783604299 1.0
C      1  0.4865702723364  0.3705462715619  0.7430692113442 1.0
C      1  0.3595433454580  0.5958174013624  0.2020570902956 1.0
C      1  0.4689503891092  0.3870098493957  0.1480319955819 1.0
C      1  0.4704120420343  0.6882478238958  0.6863001871012 1.0
C      1  0.4963266393080  0.5012640437947  0.8247167691753 1.0
C      1  0.7149088679804  0.3287209903417  0.6406009415398 1.0
C      1  0.3665974383757  0.6714614715654  0.2599432062165 1.0
C      1  0.7314836800168  0.3597740792079  0.4450783551458 1.0
C      1  0.2573159185039  0.2819506221281  0.5812649198192 1.0
C      1  0.1878715783822  0.4351249436520  0.5837147875344 1.0
C      1  0.2348779579564  0.6068198665575  0.3300826548794 1.0
C      1  0.7339532909101  0.5024761007956  0.2770802457363 1.0
C      1  0.4959494975434  0.5378467562644  0.6043286665276 1.0
C      1  0.3272347044650  0.4064215068623  0.6689868369619 1.0
C      1  0.5248057036432  0.6329001248294  0.6292796981960 1.0
C      1  0.3813618582498  0.4062632580479  0.4560397690995 1.0
C      1  0.7027684781456  0.7156647174009  0.5013454001649 1.0
C      1  0.6148776699158  0.2173174661730  0.5587477280453 1.0
C      1  0.8099701659517  0.5908537342569  0.4682271157101 1.0
C      1  0.7387583216862  0.5503007074659  0.6785796174949 1.0
C      1  0.1974066787131  0.6085369567924  0.5826194925598 1.0
C      1  0.3716791055629  0.4313143947084  0.3563010747877 1.0
C      1  0.3417607550812  0.2296482160756  0.4814658880308 1.0
C      1  0.5336139948298  0.3559283064569  0.2163910942414 1.0
C      1  0.6163016223735  0.4510797099524  0.5216197488707 1.0
C      1  0.5433298222437  0.1616088079876  0.5900442191490 1.0
C      1  0.4035417946599  0.5387119904859  0.5832579653233 1.0
C      1  0.4966873021471  0.3546487447834  0.5914743783552 1.0
C      1  0.7013704469240  0.3024389526757  0.3694881289391 1.0
C      1  0.1756835670858  0.5206285182219  0.6245336836055 1.0
C      1  0.9539197543884  0.4888088370839  0.4379663839877 1.0
C      1  0.6811724872689  0.5717067458561  0.2299901104677 1.0
C      1  0.2025916265232  0.6326354073737  0.4853011717040 1.0
C      1  0.3208459562465  0.7267520315063  0.4050176685670 1.0
C      1  0.7635489625696  0.4605139181914  0.6577417764537 1.0
C      1  0.8497615411008  0.4925942046741  0.4405362218315 1.0
C      1  0.4813708377851  0.7524425944689  0.3558730413186 1.0
C      1  0.6769476217651  0.3314370699032  0.2800149432650 1.0
C      1  0.7428388800020  0.6301300591226  0.6286121419509 1.0
C      1  0.5218940381054  0.5958318465750  0.1753330490738 1.0
C      1  0.5168877648543  0.8184257970822  0.5361479613340 1.0
END
