TITL C-233893-4476-1 -7.865 3375.00 -1388.06313821 0 0 169 (C1) n - 1
REM
REM Run started: at 2021.01.08 13:17:49 in /rds/project/t2_vol4/rds-t2-cs072/BORA/CARBON/AIRSS/Generating-Clusters/Str-Search/Only-C1/C100-200
REM VASP from code version vasp.5.4.4.18Apr17-6-g9f103f2a35 (build Oct 11 2019 16:45:47) gamma-only
REM
REM
REM
REM
REM ./C.cell (efaf0b2bf1589a83377268d7ebe2c73f)
REM AIRSS Version 0.9.1 bugfix July 2018 build 013d7b7c2542+ Fri, 06 Jul 2018 19:26:36 +0100
REM compiler GCC version 4.8.5 20150623 (Red Hat 4.8.5-39)
REM options -cpp -mtune=generic -march=x86-64 -g -O0
REM seed 123529458 1546369040 -1128187697 -1945643563 -1332941246 -1236803899 -430469952 214236538 -1305800540 -488291654 1492598630 -780290683
REM
REM C.POTCAR (d86ddea03c3ceb6dc662c8ad6801f873)
REM 
CELL 1.54180   15.00000   15.00000   15.00000   90.00000   90.00000   90.00000
LATT -1
SFAC C  
C      1  0.2577731336139  0.2007294721706  0.4083418838948 1.0
C      1  0.5197428181079  0.2818308086552  0.4849900586849 1.0
C      1  0.6160524362166  0.3628683945920  0.8095380043748 1.0
C      1  0.5476290712594  0.5521587702393  0.6017463644229 1.0
C      1  0.1317836717440  0.4214807499834  0.6000658648060 1.0
C      1  0.4727478738096  0.8633809011852  0.3483552962498 1.0
C      1  0.4832663400860  0.7789848063369  0.6330513844884 1.0
C      1  0.4181870996394  0.6769724314068  0.1973972989443 1.0
C      1  0.4474125162404  0.3882930017551  0.6786680395030 1.0
C      1  0.4888233898295  0.3780197025504  0.3687773380998 1.0
C      1  0.3794083465409  0.3361345598535  0.4514225417844 1.0
C      1  0.5276755038063  0.4849886026716  0.2378701932007 1.0
C      1  0.6060081342456  0.6029062955702  0.1518074206015 1.0
C      1  0.2500927354845  0.3317637178348  0.6654009906762 1.0
C      1  0.3241390220307  0.1923702785993  0.3580198733599 1.0
C      1  0.3902306005595  0.2119983318905  0.5509000415583 1.0
C      1  0.7902838946119  0.6712317297018  0.2962955379733 1.0
C      1  0.7932614377386  0.5980702275447  0.2382441032290 1.0
C      1  0.9439247306411  0.6074599434241  0.3385415960480 1.0
C      1  0.3121083822229  0.8035969975126  0.3873137768624 1.0
C      1  0.7629204805004  0.3143999495038  0.6246878971677 1.0
C      1  0.4534159476131  0.2314687359535  0.2424970908644 1.0
C      1  0.1548436322533  0.5128261219933  0.5934499548556 1.0
C      1  0.7829446879745  0.5956207832736  0.5717348257048 1.0
C      1  0.6357313976985  0.7886387711754  0.6323828247156 1.0
C      1  0.3281167098380  0.8003295532840  0.6285242220075 1.0
C      1  0.5600109167595  0.7890294434325  0.6868717632298 1.0
C      1  0.4038373359870  0.7960446234620  0.6823831241454 1.0
C      1  0.6537293418215  0.5368619446386  0.8251915462237 1.0
C      1  0.6149919923774  0.6459235364776  0.4701385034977 1.0
C      1  0.6118768367196  0.1115646109379  0.5326345632982 1.0
C      1  0.5523118887467  0.8713946007458  0.4039065409643 1.0
C      1  0.5949035808939  0.6765597442583  0.7936330379269 1.0
C      1  0.4666057370216  0.3076133904315  0.7326189374198 1.0
C      1  0.7622001969565  0.7561721868997  0.4380756129090 1.0
C      1  0.4750078134552  0.4693165748289  0.7178372451108 1.0
C      1  0.2224011105383  0.5571114443934  0.6447250170853 1.0
C      1  0.5479934489737  0.2093697300573  0.2318812607548 1.0
C      1  0.2775837125614  0.7889812561784  0.4820203448361 1.0
C      1  0.6126788074179  0.2970293202713  0.6505933715360 1.0
C      1  0.3710902152640  0.2852274509478  0.7835294898567 1.0
C      1  0.5190669118518  0.3544114131920  0.8137748263200 1.0
C      1  0.8170144957966  0.4588115958987  0.5603966613717 1.0
C      1  0.7369710403739  0.4462211330741  0.3628546329499 1.0
C      1  0.2658302424852  0.6127369466527  0.4550426503409 1.0
C      1  0.6742068583598  0.7882949747960  0.3116531547728 1.0
C      1  0.7938788067356  0.3731094193017  0.3819563956726 1.0
C      1  0.4041488805191  0.2351522250989  0.3277509197557 1.0
C      1  0.1679057641567  0.2722353066039  0.6347866642216 1.0
C      1  0.7178975497113  0.1716171053369  0.4646594741215 1.0
C      1  0.5280525645114  0.6733256238905  0.4046886009495 1.0
C      1  0.2327454007401  0.2442185332105  0.4854078754466 1.0
C      1  0.3377969476693  0.6204838798474  0.5187400701976 1.0
C      1  0.6611261534846  0.2999187442474  0.7467711876495 1.0
C      1  0.4678159751270  0.7942069614211  0.2857515355755 1.0
C      1  0.1658107923933  0.5012710522815  0.4336731543554 1.0
C      1  0.7697440198386  0.5156001225079  0.7196250305741 1.0
C      1  0.5188863804406  0.2496020501815  0.6613218810015 1.0
C      1  0.6774904939925  0.6667789071622  0.7390983923455 1.0
C      1  0.4943025017265  0.5651197704494  0.3959678129025 1.0
C      1  0.6006211253516  0.4441789768328  0.1803443905271 1.0
C      1  0.7439910106041  0.3462981218865  0.7118723536633 1.0
C      1  0.7297080918760  0.5184311698805  0.4244948066075 1.0
C      1  0.1915362503084  0.6485377440259  0.4987069193649 1.0
C      1  0.3459132720706  0.8229984796745  0.5402201510375 1.0
C      1  0.6602984524076  0.3809288948949  0.3316508768485 1.0
C      1  0.3816094106536  0.4987377423455  0.6063378309826 1.0
C      1  0.5594225256559  0.6331313020283  0.5571598356208 1.0
C      1  0.6948318026379  0.7154732587044  0.6566167739324 1.0
C      1  0.4552386231590  0.2874583707195  0.4041271733508 1.0
C      1  0.3857692357830  0.3991320748330  0.2297832927836 1.0
C      1  0.5110433451896  0.4669480731112  0.1307890714013 1.0
C      1  0.4576677961288  0.4390574014248  0.2935735613268 1.0
C      1  0.4449407164450  0.1418020157112  0.5487007263393 1.0
C      1  0.5997789792003  0.3831657505787  0.5820678641002 1.0
C      1  0.3395901136589  0.5996829822877  0.8338612705177 1.0
C      1  0.7364914978025  0.6750498411172  0.5796791286954 1.0
C      1  0.2487141861939  0.5360212182013  0.3998350018491 1.0
C      1  0.3148890372216  0.5030073454366  0.3440783244894 1.0
C      1  0.6056131315572  0.1093452384144  0.3550018684429 1.0
C      1  0.2266405483211  0.2161735590887  0.6935096267164 1.0
C      1  0.4798321450680  0.2463974387355  0.5660267306986 1.0
C      1  0.2874139167194  0.5308859991587  0.1961112832625 1.0
C      1  0.6872164297188  0.1720494562551  0.5571346557193 1.0
C      1  0.4598637019624  0.4802551825707  0.8894306989930 1.0
C      1  0.5036665386358  0.5719141140037  0.8968989362552 1.0
C      1  0.3056934109530  0.7596246816537  0.2983013935900 1.0
C      1  0.8079638361442  0.3613518756069  0.5520417458426 1.0
C      1  0.3880359968622  0.7608427611851  0.2459421343404 1.0
C      1  0.3183729251028  0.5753437333218  0.6072688383369 1.0
C      1  0.7562198916693  0.2465249018223  0.4277047630755 1.0
C      1  0.9962599203677  0.5956776584395  0.4056426760470 1.0
C      1  0.7514004228611  0.7425475887305  0.3425418731946 1.0
C      1  0.6375127055464  0.8349341108581  0.3847317298969 1.0
C      1  0.8077151219055  0.3226591655111  0.4664612538270 1.0
C      1  0.7457844742003  0.5263372842161  0.2055521020283 1.0
C      1  0.3953038664117  0.8519562840198  0.4006118150500 1.0
C      1  0.4083232113057  0.6722409907325  0.5183424904952 1.0
C      1  0.6261077716573  0.3636602055696  0.2326894545139 1.0
C      1  0.6386164802507  0.6917594482925  0.1747290435034 1.0
C      1  0.5315402421304  0.7173808266755  0.3028721846566 1.0
C      1  0.5425955668723  0.1514011472536  0.6737149316440 1.0
C      1  0.5961660938239  0.2832897839738  0.2133338229082 1.0
C      1  0.4107836745915  0.5672601350404  0.8873089820118 1.0
C      1  0.5359337861453  0.8648555007042  0.4981968017775 1.0
C      1  0.3650920514219  0.5288590237399  0.1385518683365 1.0
C      1  0.6687976867294  0.4410793110292  0.8150253710166 1.0
C      1  0.5793936585678  0.4056164039603  0.4011177496960 1.0
C      1  0.7895253975895  0.5286480505036  0.4993849169957 1.0
C      1  0.5355744644421  0.5778427458602  0.2194089503562 1.0
C      1  0.3806079170422  0.4082476296535  0.6143901205068 1.0
C      1  0.4890664327365  0.7025681685127  0.5666006624825 1.0
C      1  0.8697565582420  0.6195662425583  0.2939083968421 1.0
C      1  0.2514733462394  0.6893042428885  0.2637765723831 1.0
C      1  0.5817675552846  0.5967518521344  0.8490410214708 1.0
C      1  0.6204112952053  0.8302407456729  0.5434412479304 1.0
C      1  0.4339822573773  0.8324710198589  0.4900525206819 1.0
C      1  0.5804865949690  0.3517872041937  0.4897292552519 1.0
C      1  0.4217689321245  0.6047678327173  0.1251497837762 1.0
C      1  0.2604981723539  0.6885025147072  0.7147076020569 1.0
C      1  0.6087459966676  0.1471063859675  0.7381921975746 1.0
C      1  0.8036149826911  0.5230611361737  0.6335649774294 1.0
C      1  0.3088293115614  0.3502811387089  0.5924491071426 1.0
C      1  0.4564031294347  0.5428018897806  0.6573710082855 1.0
C      1  0.6195644216058  0.7368178268957  0.2499289012564 1.0
C      1  0.3843456703837  0.6086729109991  0.6777107420397 1.0
C      1  0.6449214243403  0.5578464900349  0.4346244915371 1.0
C      1  0.2577499359328  0.6138183361207  0.2271618594495 1.0
C      1  0.2954608109710  0.4487114001988  0.2594214263382 1.0
C      1  0.2241636056975  0.5989890816821  0.7324466998029 1.0
C      1  0.1254831621859  0.3659043909339  0.5175188232982 1.0
C      1  0.2925110361599  0.2629034099960  0.7324541884094 1.0
C      1  0.4864949134272  0.6513829920288  0.2495922758985 1.0
C      1  0.6413244661104  0.1151311408642  0.4401175580603 1.0
C      1  0.7125698558608  0.5810135046409  0.7629437911914 1.0
C      1  0.3223497627603  0.2847330136618  0.5195273917910 1.0
C      1  0.5698659544299  0.5091951740443  0.4072720436361 1.0
C      1  0.2511258668784  0.7427381022811  0.6357972369270 1.0
C      1  0.7322183973762  0.3072586084188  0.3551687483634 1.0
C      1  0.1410802502534  0.4097210999751  0.4330226872457 1.0
C      1  0.3575570104742  0.6683398588952  0.7553255497162 1.0
C      1  0.6833049811242  0.8128753890578  0.4680800162393 1.0
C      1  0.1558472440561  0.2765743810979  0.5373459911189 1.0
C      1  0.4162427313529  0.4473430008103  0.1438166160078 1.0
C      1  0.3694142148385  0.3292998969803  0.8646193765310 1.0
C      1  0.1321519733843  0.5633711617504  0.5065387913869 1.0
C      1  0.4460299261370  0.3759126934202  0.8899479450231 1.0
C      1  0.5320380191527  0.1132695208301  0.5847118814931 1.0
C      1  0.5842981714170  0.1366013714658  0.2798037939160 1.0
C      1  0.4151892965131  0.4169539825276  0.4249629773308 1.0
C      1  0.2174801119215  0.7335501660402  0.5403913032115 1.0
C      1  0.2580598756861  0.5624851785324  0.8113806492417 1.0
C      1  0.5143902742742  0.5696417310405  0.1145932181843 1.0
C      1  0.4658597879443  0.7286675676462  0.4701318745513 1.0
C      1  0.6995396782454  0.7039258555617  0.4906943313668 1.0
C      1  0.6905499177012  0.2488181545303  0.6069572068556 1.0
C      1  0.6661587490769  0.5206277597268  0.1656888016472 1.0
C      1  0.4121614673685  0.5028444631367  0.3673593961379 1.0
C      1  0.1569650656635  0.3642099502732  0.6738252707096 1.0
C      1  0.0425687273668  0.5743741754882  0.4733303891242 1.0
C      1  0.4887422004032  0.4488285137667  0.8034340664216 1.0
C      1  0.4283063905396  0.7392124584172  0.7541665324951 1.0
C      1  0.7452476357611  0.4300717708134  0.7543346247797 1.0
C      1  0.5315377931603  0.7380647341943  0.7620130910032 1.0
C      1  0.3962963101505  0.2992883014965  0.2423750176211 1.0
C      1  0.1721930175178  0.3745225988867  0.3509578371389 1.0
C      1  0.5908938629834  0.4720537358444  0.5918670388278 1.0
C      1  0.2203146767672  0.3923715660513  0.2866586784727 1.0
C      1  0.6545662211181  0.2050098430157  0.7781284443234 1.0
END
