TITL C-24382-6865-26 -2.056 3375.00 -348.28163571 0 0 42 (C1) n - 1
REM
REM Run started: at 2020.12.22 18:33:37 in /rds/project/t2_vol4/rds-t2-cs072/BORA/CARBON/AIRSS/Generating-Clusters/Str-Search/Only-C1/C10-100
REM VASP from code version vasp.5.4.4.18Apr17-6-g9f103f2a35 (build Oct 11 2019 16:45:47) gamma-only
REM
REM
REM
REM
REM ./C.cell (67c5d0192afd7a3ce4a0888e5fe73b87)
REM AIRSS Version 0.9.1 bugfix July 2018 build 013d7b7c2542+ Fri, 06 Jul 2018 19:26:36 +0100
REM compiler GCC version 4.8.5 20150623 (Red Hat 4.8.5-39)
REM options -cpp -mtune=generic -march=x86-64 -g -O0
REM seed -1172905032 1348511585 -706032110 -227305397 2026538855 -525979099 1817099484 1032330190 -1310146793 1066761060 -1979830750 -976845173
REM
REM C.POTCAR (d86ddea03c3ceb6dc662c8ad6801f873)
REM 
CELL 1.54180   15.00000   15.00000   15.00000   90.00000   90.00000   90.00000
LATT -1
SFAC C  
C      1  0.6792295542441  0.5927409818835  0.5394917635794 1.0
C      1  0.3703913084872  0.5272726036113  0.6279227023135 1.0
C      1  0.5784756927308  0.3795512923261  0.5438307318971 1.0
C      1  0.6520883952151  0.4850404775795  0.6473962337187 1.0
C      1  0.4015985397861  0.5448894606035  0.3568353589596 1.0
C      1  0.6546612173589  0.4390054532311  0.5623522774458 1.0
C      1  0.3775392029100  0.6287806880942  0.4838491913345 1.0
C      1  0.2018985246369  0.4811201668382  0.4967930498905 1.0
C      1  0.6840363128501  0.5187616800778  0.4043324774083 1.0
C      1  0.4218761059005  0.4537252953552  0.3309611652975 1.0
C      1  0.5394586630856  0.6760059168236  0.5085758574749 1.0
C      1  0.3686871066414  0.6133475193251  0.5766943042849 1.0
C      1  0.6573217694140  0.5818632643383  0.6289620683715 1.0
C      1  0.5091573599586  0.3708634577903  0.6143532476852 1.0
C      1  0.5622323474358  0.5836846664561  0.3377125240578 1.0
C      1  0.5753587345244  0.4958277168965  0.2963057614951 1.0
C      1  0.3982916797992  0.3213210276328  0.5072875368602 1.0
C      1  0.6259170004032  0.6456791797349  0.4788866306161 1.0
C      1  0.2899367659762  0.4339789332819  0.5111721528780 1.0
C      1  0.4393624401986  0.5676389809563  0.6899724220250 1.0
C      1  0.6134669600825  0.3469685891511  0.3822915128883 1.0
C      1  0.4623031616639  0.3266384849601  0.4372061630442 1.0
C      1  0.6574703066841  0.4571533730825  0.3354352222977 1.0
C      1  0.5796123686578  0.4708005208618  0.7066674416702 1.0
C      1  0.4366742552524  0.6474144914875  0.6333552869252 1.0
C      1  0.5059711974560  0.4376719624445  0.2883316750953 1.0
C      1  0.3343353099194  0.5716215552157  0.4202154217363 1.0
C      1  0.5223895271621  0.6730069353226  0.6046297513074 1.0
C      1  0.6931951274633  0.5046425817259  0.4973665609621 1.0
C      1  0.2610860877133  0.5247032891833  0.4518605119381 1.0
C      1  0.4645369704368  0.6562194045383  0.4500977876659 1.0
C      1  0.5290143749218  0.3933391818510  0.7013496362702 1.0
C      1  0.3303508549594  0.3676027032575  0.4547970553983 1.0
C      1  0.3922405676284  0.3775717990759  0.3821459557194 1.0
C      1  0.5813442525089  0.6231849052325  0.6638413340841 1.0
C      1  0.4760989425651  0.6075542331750  0.3672323998642 1.0
C      1  0.4154607737100  0.3652038975653  0.5865108014420 1.0
C      1  0.6860269861810  0.3644144891920  0.3395420381733 1.0
C      1  0.5297170395450  0.5542803204952  0.7131392762038 1.0
C      1  0.3525308416290  0.4414219064051  0.5911848803493 1.0
C      1  0.5538761426783  0.3450441262638  0.4544190271259 1.0
C      1  0.6347793296248  0.6024425866773  0.3946929022452 1.0
END
