TITL C-244961-7859-4 -9.856 3375.00 0 0 0 437 (C1) n - 1
REM
REM Run started: at 2020.03.20 14:50:18 in /rds/user/bk393/hpc-work/AIRSS.pl-DENE/CARBON/New-Try
REM VASP from code version vasp.5.4.4.18Apr17-6-g9f103f2a35 (build Oct 11 2019 16:45:47) gamma-only
REM
REM
REM
REM
REM ./C.cell (90889e035cd0f9d0e5f9cb6dd9eb5d52)
REM AIRSS Version 0.9.1 bugfix July 2018 build 013d7b7c2542+ Fri, 06 Jul 2018 19:26:36 +0100
REM compiler GCC version 4.8.5 20150623 (Red Hat 4.8.5-39)
REM options -cpp -mtune=generic -march=x86-64 -g -O0
REM seed -134894532 -192916920 -1672603516 -24524828 -165900053 479576941 45874454 1039886224 1480701462 1679411556 705826424 -1296500375
REM
REM C.POTCAR (d86ddea03c3ceb6dc662c8ad6801f873)
REM 
CELL 1.54180   15.00000   15.00000   15.00000   90.00000   90.00000   90.00000
LATT -1
SFAC C  
C      1  0.1853292235939  0.1443417878033  0.3101195665872 1.0
C      1  0.1133765351287  0.4524977019461  0.8684681106445 1.0
C      1  0.4183126566774  0.7975968788741  0.9624956565965 1.0
C      1  0.6247936360514  0.4676469658345  0.2057707643406 1.0
C      1  0.7646948746534  0.1190898082724  0.3835223978631 1.0
C      1  0.7201586150418  0.6448712345086  0.2322518009507 1.0
C      1  0.5857368131801  0.8215060804589  0.5199951780366 1.0
C      1  0.1532190499752  0.7960337833447  0.4179777420412 1.0
C      1  0.7642972104060  0.4886992267306  0.1199477939008 1.0
C      1  0.3441858064224  0.6263185709247  0.7100157320429 1.0
C      1  0.5844072414715  0.7445181773626  0.5889302779112 1.0
C      1  0.9151967484388  0.4012468127472  0.8368647173259 1.0
C      1  0.7968119685694  0.6863462825529  0.0720019081140 1.0
C      1  0.8416191489594  0.6050571597313  0.3811273088286 1.0
C      1  0.2184733214140  0.0792671577965  0.8118838751554 1.0
C      1  0.8180273797049  0.5175297459283  0.4378351645463 1.0
C      1  0.0908748123231  0.1585504285691  0.3042066931081 1.0
C      1  0.1933452939098  0.9434412569096  0.3585621858410 1.0
C      1  0.6633296423100  0.2068775340667  0.3206869725975 1.0
C      1  0.0611892537850  0.4052045951297  0.4518643478247 1.0
C      1  0.5908688660811  0.5782093216644  0.9341601440495 1.0
C      1  0.7803265273039  0.2364398174109  0.0561967761601 1.0
C      1  0.8857639875554  0.5642269087084  0.8797132268306 1.0
C      1  0.9980654905791  0.7931955397346  0.3686062669239 1.0
C      1  0.7811341206572  0.8611824426953  0.2695614098878 1.0
C      1  0.6334825924447  0.8461623048544  0.8605364405511 1.0
C      1  0.3541103500269  0.8753817956767  0.8104617692503 1.0
C      1  0.8513305137348  0.4845911774185  0.5244157065216 1.0
C      1  0.6511390410839  0.7313718561541  0.0408871736247 1.0
C      1  0.3661642717876  0.9673163411385  0.6727697954420 1.0
C      1  0.7200080189490  0.6559390183936  0.0123801310661 1.0
C      1  0.5112527219259  0.3849398091270  0.7845356590531 1.0
C      1  0.4283200585239  0.1198089889825  0.6809600645494 1.0
C      1  0.1579870422446  0.7169984476334  0.8411499140767 1.0
C      1  0.4260900938371  0.7842287846680  0.6254649690653 1.0
C      1  0.4788054135817  0.2432055374169  0.8302458692394 1.0
C      1  0.9939704817889  0.4809176643627  0.4635164929630 1.0
C      1  0.6054476433511  0.9294899452177  0.1681732730359 1.0
C      1  0.5296593589353  0.1159478044382  0.7016408975012 1.0
C      1  0.2016214592866  0.4253930109579  0.2367920098958 1.0
C      1  0.5884244879882  0.6998968950058  0.2954389651768 1.0
C      1  0.2971007559754  0.3860381873116  0.8901693268088 1.0
C      1  0.2691361424458  0.6817168286092  0.9673344769676 1.0
C      1  0.4491055523847  0.2135312968237  0.1007030825905 1.0
C      1  0.4335716182295  0.0592496455069  0.2357149642313 1.0
C      1  0.2472148950082  0.6863468245017  0.3286263338221 1.0
C      1  0.3812114851491  0.2817483849075  0.2256920688088 1.0
C      1  0.7056114798415  0.4068108280938  0.2565082693041 1.0
C      1  0.1231159340838  0.8841753088566  0.3718212315217 1.0
C      1  0.2309389476854  0.7811406114599  0.2860161088031 1.0
C      1  0.0393751503901  0.6269899111549  0.2261195887230 1.0
C      1  0.0716212486356  0.2401581699210  0.6072141781413 1.0
C      1  0.2419532974123  0.2511495882468  0.8316611343469 1.0
C      1  0.3395862294247  0.2407061338918  0.5654284665647 1.0
C      1  0.7679396961863  0.5886486479394  0.7072280963628 1.0
C      1  0.4919819429501  0.8528408638790  0.6648285736338 1.0
C      1  0.0097962899776  0.5996439237266  0.3790007619806 1.0
C      1  0.9998422529003  0.5042142240060  0.3619345133874 1.0
C      1  0.7407338170493  0.4914073788158  0.9358282372759 1.0
C      1  0.7910784701519  0.9549081205854  0.3039879076276 1.0
C      1  0.5004884556975  0.3785134262712  0.2992368516668 1.0
C      1  0.5316499460695  0.5471213514444  0.7226905985996 1.0
C      1  0.2377991101851  0.0762789416111  0.5548538146783 1.0
C      1  0.1395718739633  0.7977784541680  0.3205181033820 1.0
C      1  0.2661887528215  0.9840807799569  0.6888158753928 1.0
C      1  0.0724574913077  0.4721755278458  0.6496372030640 1.0
C      1  0.0991191681914  0.2873408370378  0.7819888788337 1.0
C      1  0.2850196886247  0.8129061153147  0.5354357265381 1.0
C      1  0.2090015588362  0.1825100842067  0.1615120485236 1.0
C      1  0.2419519188396  0.5185983554800  0.3854819336239 1.0
C      1  0.3796947548534  0.6512929618072  0.1626885897481 1.0
C      1  0.4623690861821  0.8059512603658  0.2274913559333 1.0
C      1  0.5419450900774  0.7549112682821  0.4510136601901 1.0
C      1  0.6870198037476  0.6808112861490  0.8490146575535 1.0
C      1  0.7716846231623  0.3243732154391  0.8055451718789 1.0
C      1  0.3539237427899  0.6116804815714  0.6064777506934 1.0
C      1  0.5535775319372  0.7048920362922  0.0565100146228 1.0
C      1  0.6844572068854  0.1707723032771  0.9136043596872 1.0
C      1  0.9037472444797  0.1954857134359  0.3294969907315 1.0
C      1  0.5557002212231  0.9227675337729  0.3264404832910 1.0
C      1  0.6814179452107  0.3571951268564  0.8479656364560 1.0
C      1  0.8490011197799  0.1310193375914  0.7388742481673 1.0
C      1  0.9032548198320  0.2816537660014  0.6850828481837 1.0
C      1  0.2719704763229  0.7600561609769  0.2023558120857 1.0
C      1  0.6274099765817  0.4964428069256  0.0568052056849 1.0
C      1  0.7465186274914  0.2325378424805  0.2755641957976 1.0
C      1  0.1243832288341  0.5415798047827  0.5871254318974 1.0
C      1  0.6973278586413  0.5878524592401  0.3619980196009 1.0
C      1  0.8776274470793  0.7796216885976  0.5609141891625 1.0
C      1  0.3216555414238  0.8827285892201  0.1520721083434 1.0
C      1  0.2434118672329  0.5752076008254  0.9962197233528 1.0
C      1  0.3440745919440  0.8844323264874  0.3307346218851 1.0
C      1  0.8710386783343  0.6677531984275  0.1303506809632 1.0
C      1  0.6056815018588  0.5930917000219  0.3260019101241 1.0
C      1  0.4500683869150  0.9319343917593  0.4436702199660 1.0
C      1  0.4060128090642  0.3427356766287  0.4431238087190 1.0
C      1  0.4987906232231  0.8385964744177  0.3120847037336 1.0
C      1  0.7610785005976  0.8209459318715  0.4625505998493 1.0
C      1  0.3648636188782  0.9310586707666  0.4033243667761 1.0
C      1  0.0564925662873  0.2793838185453  0.3810967693718 1.0
C      1  0.9286001852007  0.4902164795063  0.8304835260652 1.0
C      1  0.8308407368318  0.8563964750582  0.4133426898222 1.0
C      1  0.9113998980603  0.6794204458503  0.6767043227553 1.0
C      1  0.1010091347799  0.6862796114035  0.7667185209756 1.0
C      1  0.7055800924102  0.0597010011223  0.7886616305253 1.0
C      1  0.7928178939672  0.1443901013332  0.5431360049832 1.0
C      1  0.1107676431898  0.7037569215533  0.6617427237639 1.0
C      1  0.6874817182673  0.0591397896057  0.6385291431414 1.0
C      1  0.5972612878483  0.3115929112310  0.4776454130126 1.0
C      1  0.1592001732062  0.5735378376496  0.9336945541646 1.0
C      1  0.8237792498793  0.1239292153999  0.1972139328431 1.0
C      1  0.2691762455559  0.9141875923982  0.7618356723948 1.0
C      1  0.9280024599932  0.2701692386387  0.2637806008348 1.0
C      1  0.8563252778850  0.8803687264286  0.5961397427783 1.0
C      1  0.9755796111027  0.5636672409959  0.2111782514655 1.0
C      1  0.4207715505809  0.5155873507298  0.9477935036356 1.0
C      1  0.5361230923220  0.2869351929034  0.9012480501925 1.0
C      1  0.1875534911182  0.4400848929262  0.0343231033357 1.0
C      1  0.1173697808374  0.4198457581425  0.1817732146965 1.0
C      1  0.4629867041773  0.7197317038676  0.7795183914263 1.0
C      1  0.5294904960158  0.8889529519911  0.5779554511228 1.0
C      1  0.5607213425751  0.7782001090189  0.3564552833889 1.0
C      1  0.5225495298002  0.6425684618788  0.9853259774565 1.0
C      1  0.0806024486221  0.4464562608669  0.3573707793403 1.0
C      1  0.0718058292723  0.6484029451487  0.3186099058624 1.0
C      1  0.5448564353347  0.2635105280122  0.3973661260101 1.0
C      1  0.7286198649716  0.0185246560328  0.2689867640491 1.0
C      1  0.6997614442493  0.3250353398168  0.9441737886582 1.0
C      1  0.4396271894407  0.9027903513626  0.5340963080623 1.0
C      1  0.0974042905794  0.7965233565926  0.6138180494562 1.0
C      1  0.6073749468030  0.2837229567760  0.3231275067413 1.0
C      1  0.6595967819842  0.6179204573048  0.1673014479679 1.0
C      1  0.4638613260660  0.4372827312814  0.0055235472861 1.0
C      1  0.6828507197676  0.0540039600716  0.3493092627383 1.0
C      1  0.3398427337578  0.3116854839616  0.9299408868698 1.0
C      1  0.3903664323313  0.7270675917741  0.3862620249551 1.0
C      1  0.2612115021806  0.9096689446612  0.5371783262679 1.0
C      1  0.4999844430481  0.2352634640199  0.5681943456725 1.0
C      1  0.8338008352146  0.7173233916255  0.8684949911016 1.0
C      1  0.3775949493096  0.3802811395414  0.2199052776803 1.0
C      1  0.4629087777664  0.4323629511572  0.2209208937268 1.0
C      1  0.8583780845715  0.3395301967369  0.2929667220836 1.0
C      1  0.2341093575677  0.7641856962017  0.4646334944680 1.0
C      1  0.2181762171270  0.3031900092195  0.6667138208865 1.0
C      1  0.2467071474731  0.6633433303302  0.4817942380478 1.0
C      1  0.4032529153952  0.9814184707378  0.5845297121597 1.0
C      1  0.5586578148034  0.8179581297153  0.9109547223504 1.0
C      1  0.3352368241921  0.4255178433730  0.2978386668601 1.0
C      1  0.6323834393529  0.5103318895859  0.6069063035527 1.0
C      1  0.2743546485626  0.2511059602700  0.7319435301608 1.0
C      1  0.7374848395735  0.6872080258116  0.5824080125673 1.0
C      1  0.8560469276368  0.7573620265276  0.1777752720187 1.0
C      1  0.1646033949345  0.6274632287680  0.3416829406693 1.0
C      1  0.0122720545971  0.3256653679890  0.4565168941050 1.0
C      1  0.6031993383901  0.1193362650188  0.3200547165941 1.0
C      1  0.7642149254636  0.2774729697418  0.4469455496730 1.0
C      1  0.3407021913220  0.4754503800489  0.8905989219942 1.0
C      1  0.7417260561201  0.4005273609618  0.0925642256996 1.0
C      1  0.1331088577496  0.3295498977725  0.1308320567374 1.0
C      1  0.4759464147295  0.5700845150225  0.5150888158229 1.0
C      1  0.3958887638176  0.5706410206566  0.1078987107541 1.0
C      1  0.0480115877889  0.4067247773258  0.2628871429330 1.0
C      1  0.7707249739601  0.5750432385012  0.2968323038893 1.0
C      1  0.6218828154134  0.5139668656346  0.7072003197322 1.0
C      1  0.5844772795300  0.0099689796179  0.4860893858615 1.0
C      1  0.7371608221627  0.5671136652471  0.4634063987018 1.0
C      1  0.1554519575466  0.3029598744075  0.3827739253911 1.0
C      1  0.3512004838795  0.8771923558909  0.7143020161875 1.0
C      1  0.4579659060054  0.0960415058943  0.8656254768782 1.0
C      1  0.2825792817092  0.7218989524384  0.0579378084901 1.0
C      1  0.5282236429282  0.0695650433212  0.7961307715318 1.0
C      1  0.6092528940158  0.7584670193188  0.6873877847900 1.0
C      1  0.2035143061823  0.2040910547043  0.3924664574340 1.0
C      1  0.2831643094952  0.0740737110621  0.7405963899084 1.0
C      1  0.2821487430349  0.3667799928744  0.3494618727662 1.0
C      1  0.4872384857173  0.1404268089618  0.5351594276545 1.0
C      1  0.7838980263951  0.3848598048439  0.9589374920218 1.0
C      1  0.6766427681801  0.1286624098463  0.1447756796688 1.0
C      1  0.6149847546311  0.6759875788639  0.4532930403686 1.0
C      1  0.2546000054616  0.8930418809028  0.2956515321976 1.0
C      1  0.6152369936558  0.0170289125899  0.7755832984239 1.0
C      1  0.2562231207882  0.7785088528885  0.6310977122252 1.0
C      1  0.6999383653685  0.7813833623099  0.8481642999991 1.0
C      1  0.9239694767480  0.6269803389245  0.5965207660975 1.0
C      1  0.2998043052821  0.5334685012575  0.8254184562737 1.0
C      1  0.8158078539061  0.1638901358024  0.3027470596144 1.0
C      1  0.8485172383585  0.1916913046024  0.1319046721585 1.0
C      1  0.6923645732837  0.6254562007264  0.7590302442927 1.0
C      1  0.5208950031489  0.8848320498541  0.7591619207341 1.0
C      1  0.4288218563098  0.6413581935296  0.3489008320845 1.0
C      1  0.0758055627709  0.2269231685740  0.2416557999683 1.0
C      1  0.4575371518704  0.3115009452640  0.3652645760324 1.0
C      1  0.2039922245462  0.3533832758083  0.3102535078332 1.0
C      1  0.9041165843736  0.5834587277575  0.1495199926307 1.0
C      1  0.3815438749437  0.4434273158254  0.4481752674751 1.0
C      1  0.2711835746575  0.2909538732272  0.0616405404426 1.0
C      1  0.6694631141729  0.8676691722501  0.4545847248820 1.0
C      1  0.4428814114622  0.2837229057220  0.0437407138624 1.0
C      1  0.9114163211355  0.2474151612163  0.5013117937388 1.0
C      1  0.4835005222945  0.5891828802198  0.4188547114046 1.0
C      1  0.3564556939470  0.3126628811131  0.7329928465150 1.0
C      1  0.3620444186273  0.7199856504068  0.7496838752789 1.0
C      1  0.8680941151754  0.5529543190348  0.5941252494856 1.0
C      1  0.0308478603064  0.5769201209848  0.4741941187029 1.0
C      1  0.5283470248320  0.7918631636945  0.7363746297765 1.0
C      1  0.8572134647043  0.7989655848251  0.2605808342760 1.0
C      1  0.7626637287202  0.6565661385715  0.9144350715648 1.0
C      1  0.3277027235367  0.3963185752522  0.7192925825666 1.0
C      1  0.2398081982794  0.9085815376509  0.1967625171344 1.0
C      1  0.9691279922171  0.4275739613478  0.6155814883914 1.0
C      1  0.1814263966615  0.5810751825340  0.0847811725288 1.0
C      1  0.5389771103896  0.1853948281473  0.1077224172520 1.0
C      1  0.1975064246890  0.8510709410759  0.7558129062965 1.0
C      1  0.6727306240313  0.4593200552651  0.8634183546375 1.0
C      1  0.7486132797909  0.2357458124699  0.9514479991633 1.0
C      1  0.3506816250017  0.1283525156665  0.2372407314021 1.0
C      1  0.8536677985733  0.5075663726959  0.1231427795910 1.0
C      1  0.9160169250165  0.6308418219623  0.7526870376406 1.0
C      1  0.2594679436971  0.6308064006262  0.5727327688089 1.0
C      1  0.8133332169869  0.2516972761244  0.8697815743631 1.0
C      1  0.2401723327572  0.2802398385337  0.5719949120515 1.0
C      1  0.7588045839011  0.7500734610179  0.6546728152579 1.0
C      1  0.4300990268600  0.6533770435408  0.5465586916899 1.0
C      1  0.4392974665843  0.5899380734603  0.0127767655074 1.0
C      1  0.3835805463877  0.0452044985751  0.7368988453143 1.0
C      1  0.3708560367330  0.1662951530853  0.3317892582174 1.0
C      1  0.1441204910643  0.2143993240944  0.8215021104496 1.0
C      1  0.7018647748322  0.1373209783975  0.5818644899263 1.0
C      1  0.4224981932571  0.4794332701792  0.5344458012312 1.0
C      1  0.4284426589227  0.3059378217359  0.5335721071408 1.0
C      1  0.6926481308379  0.8006238612318  0.0879897209774 1.0
C      1  0.6359422637826  0.6689170063610  0.5496705903318 1.0
C      1  0.9265941945430  0.6443444829508  0.3813954230384 1.0
C      1  0.2808596433034  0.2156385765807  0.1127762768706 1.0
C      1  0.3840972680796  0.7154091043606  0.0881749274311 1.0
C      1  0.5122264907794  0.2801059892225  0.6679250936534 1.0
C      1  0.5701083258218  0.3223656043834  0.1621530416545 1.0
C      1  0.7735177045634  0.4450901880549  0.5794496276577 1.0
C      1  0.5684342592942  0.4376539209699  0.3406022456855 1.0
C      1  0.8169307499895  0.1637392024976  0.8197686107633 1.0
C      1  0.2865753316763  0.6080756927307  0.2726226205453 1.0
C      1  0.1335309505874  0.4751041104225  0.9545998083700 1.0
C      1  0.6001892415171  0.2433065995852  0.5470084032395 1.0
C      1  0.0011628710287  0.6444975118943  0.5452578241577 1.0
C      1  0.2424462905638  0.1318429205362  0.2360010601612 1.0
C      1  0.2373199831256  0.4019594220531  0.6760942939858 1.0
C      1  0.2091152991652  0.6688955836361  0.1188217481644 1.0
C      1  0.4064527295229  0.1154239779563  0.4835773819255 1.0
C      1  0.4449012130942  0.7209214480631  0.8769324240391 1.0
C      1  0.9669057216895  0.4775823958120  0.2713912098931 1.0
C      1  0.5279501470877  0.9637557360847  0.4143085964672 1.0
C      1  0.6455141493178  0.1656282360371  0.4988478200103 1.0
C      1  0.4059308326812  0.2531341428284  0.3066562515920 1.0
C      1  0.5608959685264  0.6492940640127  0.1399954133976 1.0
C      1  0.4390639183322  0.1159926766338  0.3865536206117 1.0
C      1  0.1951857966131  0.1362763819548  0.6247836435456 1.0
C      1  0.5091793667537  0.4551279990548  0.8492684358354 1.0
C      1  0.4419128353628  0.0161754955993  0.8138950636118 1.0
C      1  0.8044386283478  0.0867975639081  0.4707418395616 1.0
C      1  0.8904082813863  0.4238522559239  0.1566583657994 1.0
C      1  0.9570668525517  0.3318900557097  0.6274438451669 1.0
C      1  0.6773748852677  0.9762717082422  0.4551407697587 1.0
C      1  0.1603800995260  0.3806038022137  0.4610583354150 1.0
C      1  0.5695701606993  0.5162371145326  0.2790443746295 1.0
C      1  0.9006482871111  0.2614502773651  0.1643567532730 1.0
C      1  0.4908164904471  0.4489150452529  0.7073386305649 1.0
C      1  0.8009561333601  0.9497671917589  0.5709803538772 1.0
C      1  0.6081604856586  0.6628846237731  0.7148835137201 1.0
C      1  0.5749428804853  0.5803040836335  0.4156140961965 1.0
C      1  0.3686385234414  0.4242333909004  0.0464461674329 1.0
C      1  0.4514832552395  0.3026302935883  0.7546539690440 1.0
C      1  0.0508220004700  0.1807630543774  0.3974550701705 1.0
C      1  0.5942934390673  0.4691945013143  0.4322894970744 1.0
C      1  0.0577971057953  0.7498295630777  0.2976973500142 1.0
C      1  0.5293654622398  0.4782925813200  0.0751456395062 1.0
C      1  0.8364963974444  0.3479261465094  0.3939204527865 1.0
C      1  0.6859383302830  0.5075926113572  0.7774624757613 1.0
C      1  0.1375440126016  0.5439305776862  0.8369538195500 1.0
C      1  0.4928514443675  0.5639573675440  0.1022363840328 1.0
C      1  0.1371483774954  0.3781746740649  0.8070367670770 1.0
C      1  0.8980184081361  0.6531413270301  0.8413352656852 1.0
C      1  0.4533951562112  0.7578134274219  0.0474865695819 1.0
C      1  0.5438980931422  0.0774939754856  0.2380017603748 1.0
C      1  0.9986409563921  0.2793083706405  0.5511586407179 1.0
C      1  0.8083091172989  0.3287141815862  0.7049501745810 1.0
C      1  0.8081638895933  0.3393205963897  0.0541842648078 1.0
C      1  0.2812540947676  0.4844970858854  0.0320407358009 1.0
C      1  0.7860277366676  0.4397577505231  0.3869814923635 1.0
C      1  0.7198962066806  0.5284397999337  0.5649451696370 1.0
C      1  0.2259236414519  0.3494583401533  0.8448522194778 1.0
C      1  0.6984617735396  0.6837228502420  0.3886551976218 1.0
C      1  0.9458876375972  0.1793870697372  0.4126129674233 1.0
C      1  0.3942327815237  0.8107256767503  0.5331732672938 1.0
C      1  0.6639077882680  0.2244232848310  0.6300238121957 1.0
C      1  0.2135287824131  0.6879264106174  0.6450771524710 1.0
C      1  0.8430124534757  0.3513875608418  0.8768697377898 1.0
C      1  0.0458345093479  0.8082003325119  0.5361041114852 1.0
C      1  0.6959973659810  0.8062313407997  0.6861023030646 1.0
C      1  0.8874914855114  0.3433209884316  0.1159244304304 1.0
C      1  0.0628962315438  0.8375206866204  0.4379807629373 1.0
C      1  0.8129608159871  0.2381184565714  0.5318256094182 1.0
C      1  0.7032991300049  0.8195722785358  0.2907904805280 1.0
C      1  0.3565492545895  0.3275053926086  0.0273070588935 1.0
C      1  0.8052964045288  0.8674482906477  0.7646744080256 1.0
C      1  0.9021797998331  0.4843408991485  0.6658197565852 1.0
C      1  0.2416252468480  0.3694829531558  0.5189401705811 1.0
C      1  0.7845692667195  0.4715451902360  0.2885388176844 1.0
C      1  0.1263177165731  0.5459218602215  0.4840186092508 1.0
C      1  0.3899232242183  0.4703437086534  0.7016261890996 1.0
C      1  0.1324360697783  0.2422702552976  0.1700804254239 1.0
C      1  0.0836028877058  0.5986222939073  0.7762759694791 1.0
C      1  0.6879968857364  0.7211138057448  0.2913707271632 1.0
C      1  0.5929448836511  0.6530253882923  0.8678446551554 1.0
C      1  0.5390525168466  0.6386132391463  0.7841031654366 1.0
C      1  0.3763122498353  0.5658343690197  0.3161318296676 1.0
C      1  0.1416196820282  0.1252891501972  0.7855237442763 1.0
C      1  0.1332568409051  0.4065702331532  0.7005110335772 1.0
C      1  0.7924372503169  0.7368100973103  0.5096521874092 1.0
C      1  0.6731043975791  0.5261033275864  0.1401578366925 1.0
C      1  0.6097549895264  0.2598158716980  0.0900183778961 1.0
C      1  0.9678402339458  0.7448247440571  0.5180485219116 1.0
C      1  0.2729206797607  0.8077000471012  0.1097032771766 1.0
C      1  0.7769510680768  0.9922691334375  0.4801620289309 1.0
C      1  0.5428339560278  0.4199036631799  0.1565742693023 1.0
C      1  0.5346175328247  0.1498882104347  0.3918127363781 1.0
C      1  0.1930557091918  0.5990610779723  0.4346495562733 1.0
C      1  0.2227292161843  0.5566379076034  0.7895658219394 1.0
C      1  0.7422667092807  0.0752270049623  0.1917963895095 1.0
C      1  0.5665018742094  0.1106540149409  0.4795809800869 1.0
C      1  0.2122149770368  0.5455827070763  0.2948935468593 1.0
C      1  0.4323040888815  0.5097986264268  0.8513280151494 1.0
C      1  0.0228802329437  0.3020076220421  0.2831016441265 1.0
C      1  0.1621563280044  0.4686721358475  0.4174785052658 1.0
C      1  0.4485415196893  0.9151590828888  0.8335179633595 1.0
C      1  0.3417875382584  0.0403133786435  0.5281171828076 1.0
C      1  0.1395971918887  0.1611554922539  0.4643712653847 1.0
C      1  0.7701326491759  0.0593696711484  0.7139829501360 1.0
C      1  0.9280336430320  0.1856156278022  0.6937279702967 1.0
C      1  0.3012099423092  0.9742832751079  0.4651418759108 1.0
C      1  0.1058314839765  0.1194785689840  0.6947197577005 1.0
C      1  0.3442169661552  0.7860398691562  0.6786998324195 1.0
C      1  0.3594346538109  0.5021995546102  0.6073066106077 1.0
C      1  0.4516178397922  0.6404288838736  0.2433640378088 1.0
C      1  0.5506488820644  0.9869037580781  0.5837687715189 1.0
C      1  0.2183880483158  0.5468984264451  0.6111344674978 1.0
C      1  0.2970858281390  0.4381830875941  0.2028258381999 1.0
C      1  0.3673675277749  0.2033680756238  0.1630068109089 1.0
C      1  0.8015037459964  0.5631244040401  0.9112825665239 1.0
C      1  0.7796591709145  0.6622102790437  0.4409752007080 1.0
C      1  0.7933867967732  0.7955847572744  0.8304329209400 1.0
C      1  0.6148211910908  0.4130667754220  0.5899264820770 1.0
C      1  0.7129497737661  0.8976838740501  0.7222347411201 1.0
C      1  0.6944028322420  0.3414037646807  0.4768480063100 1.0
C      1  0.7483124649152  0.9799932477537  0.6519540089966 1.0
C      1  0.5733623759282  0.5834133287301  0.5723845990501 1.0
C      1  0.2159850208901  0.9331785164332  0.6150878086616 1.0
C      1  0.3281672345779  0.2279568088866  0.8867356678423 1.0
C      1  0.4877564906572  0.7015841875399  0.6108374297796 1.0
C      1  0.5626968221316  0.4025740454027  0.5032373841829 1.0
C      1  0.1780650956423  0.8470000014662  0.6545648274706 1.0
C      1  0.5334826638347  0.7170716913606  0.9153825389818 1.0
C      1  0.6043854134726  0.2051280934172  0.8885381155059 1.0
C      1  0.2172543876293  0.7846668969508  0.8158980984205 1.0
C      1  0.9399433222534  0.7318244528532  0.4162594960413 1.0
C      1  0.7334578310347  0.1205217159478  0.8483582135814 1.0
C      1  0.6947584459185  0.2100500550783  0.1028481110751 1.0
C      1  0.5127938269251  0.3360427869418  0.9870989883119 1.0
C      1  0.1461100495625  0.4973528320827  0.1081337484857 1.0
C      1  0.6591497273637  0.4048716806478  0.0577671709116 1.0
C      1  0.8968054369432  0.8043821017535  0.3591322455041 1.0
C      1  0.5773516344132  0.2285990175499  0.7966267263333 1.0
C      1  0.1871934353929  0.8287324901702  0.1482166519871 1.0
C      1  0.1352942934786  0.7426231139089  0.1473852861996 1.0
C      1  0.7837968204691  0.7716929576070  0.1072028721767 1.0
C      1  0.4141953880062  0.1767521034292  0.8651563360797 1.0
C      1  0.3409170675282  0.1872142805726  0.4828248000429 1.0
C      1  0.5294255125007  0.3831377009286  0.6388907981715 1.0
C      1  0.3331082350509  0.4868885417449  0.1166877515010 1.0
C      1  0.4649279478243  0.5328486201891  0.2565281227459 1.0
C      1  0.3161391713215  0.7787274719511  0.8321337097221 1.0
C      1  0.5234561213874  0.7020527465936  0.2185270921252 1.0
C      1  0.5902392995250  0.3261394548207  0.8201431356211 1.0
C      1  0.5821608396360  0.2096398857196  0.7007789497615 1.0
C      1  0.6911049275930  0.4166953376475  0.4151591652804 1.0
C      1  0.7077461130441  0.1961411260469  0.4142170041868 1.0
C      1  0.0397353115666  0.5538715618000  0.7011752732976 1.0
C      1  0.5804686616017  0.1214446815830  0.1570965968287 1.0
C      1  0.1746525976325  0.6758189777103  0.9229475348822 1.0
C      1  0.5543365785605  0.3087163008102  0.2483232337241 1.0
C      1  0.9472609423973  0.5358708722638  0.7402981968604 1.0
C      1  0.6492914275576  0.3793964831998  0.3332400803610 1.0
C      1  0.8140694616129  0.4337900517534  0.6785024718971 1.0
C      1  0.0617433318553  0.7185960793347  0.1970857085392 1.0
C      1  0.6726483692605  0.5572520693719  0.9905664904504 1.0
C      1  0.5379747771821  0.6205729561366  0.6540504353413 1.0
C      1  0.4756776245560  0.3953464329562  0.5564192963817 1.0
C      1  0.8630162374869  0.7595591320939  0.6587490012371 1.0
C      1  0.3770233976221  0.5476067869856  0.7687337175530 1.0
C      1  0.7660484152089  0.3187904411697  0.2538140138856 1.0
C      1  0.6226208626167  0.9172942836489  0.7840261509068 1.0
C      1  0.1824947030369  0.0713598586903  0.4792714679396 1.0
C      1  0.8135884854520  0.9468075658611  0.3940670846735 1.0
C      1  0.9292693640204  0.4310960245804  0.5169860965433 1.0
C      1  0.6438757502289  0.8724660908899  0.1242237163044 1.0
C      1  0.4375212986329  0.7379186538409  0.4742755037375 1.0
C      1  0.3521887832751  0.7351093517668  0.9140450426413 1.0
C      1  0.1576066740279  0.2074971153902  0.5592800825265 1.0
C      1  0.4145555106410  0.8886028771466  0.1806195228746 1.0
C      1  0.3620496099800  0.1730274376465  0.6414065787288 1.0
C      1  0.4513589579416  0.9699257664032  0.2095662192841 1.0
C      1  0.3000197325974  0.1929558298008  0.4031141525368 1.0
C      1  0.4050043534998  0.8072781957577  0.3178490372420 1.0
C      1  0.8629024127258  0.8539248154607  0.6911224736201 1.0
C      1  0.9141634014878  0.3426236880127  0.4600061913086 1.0
C      1  0.2847469503828  0.6618080290855  0.1905993833357 1.0
C      1  0.1926626533364  0.3449248969366  0.0621978719764 1.0
C      1  0.2756780113911  0.1584403998405  0.6861628134867 1.0
C      1  0.6165093491065  0.3303598126106  0.0147133095388 1.0
C      1  0.4771571503193  0.8639232111095  0.9156993259441 1.0
C      1  0.2192378899842  0.0082185111789  0.4193439700711 1.0
C      1  0.1144745674142  0.3042240084596  0.6821119001448 1.0
C      1  0.6328767762917  0.8524188323308  0.3550329231447 1.0
C      1  0.7721936514127  0.5017847477879  0.7355889198249 1.0
C      1  0.7758287951028  0.5971197774178  0.6118637653990 1.0
C      1  0.8786822154773  0.4318450828903  0.2557659735887 1.0
C      1  0.2640221274390  0.4561407638873  0.5947112158921 1.0
C      1  0.5817762291013  0.4880847718924  0.8904772835530 1.0
C      1  0.3426745131574  0.4942917666099  0.3711308972855 1.0
C      1  0.5931697099645  0.0390106311752  0.6667788007602 1.0
C      1  0.0257635933891  0.1679181697329  0.6687832298837 1.0
C      1  0.0662936898044  0.6214217943966  0.6221961303488 1.0
C      1  0.7458977953916  0.2910604929947  0.6249356087414 1.0
C      1  0.2952978713324  0.7098427373066  0.4088402032571 1.0
C      1  0.3108115595163  0.3680910451648  0.4437953238614 1.0
C      1  0.5502277842498  0.9731907876187  0.2349756874232 1.0
C      1  0.7095815157141  0.3692737830196  0.5723251044625 1.0
C      1  0.2428555401375  0.6019804476842  0.7035192781223 1.0
END
