TITL C-247578-3281-2 -8.692 3375.00 -1453.94620255 0 0 177 (C1) n - 1
REM
REM Run started: at 2021.01.08 12:10:05 in /rds/project/t2_vol4/rds-t2-cs072/BORA/CARBON/AIRSS/Generating-Clusters/Str-Search/Only-C1/C100-200
REM VASP from code version vasp.5.4.4.18Apr17-6-g9f103f2a35 (build Oct 11 2019 16:45:47) gamma-only
REM
REM
REM
REM
REM ./C.cell (efaf0b2bf1589a83377268d7ebe2c73f)
REM AIRSS Version 0.9.1 bugfix July 2018 build 013d7b7c2542+ Fri, 06 Jul 2018 19:26:36 +0100
REM compiler GCC version 4.8.5 20150623 (Red Hat 4.8.5-39)
REM options -cpp -mtune=generic -march=x86-64 -g -O0
REM seed -932111273 912611269 -545769 1884416722 822997202 284628997 2113295361 1078300123 1096970628 -460728353 237343879 467424317
REM
REM C.POTCAR (d86ddea03c3ceb6dc662c8ad6801f873)
REM 
CELL 1.54180   15.00000   15.00000   15.00000   90.00000   90.00000   90.00000
LATT -1
SFAC C  
C      1  0.3326431646861  0.4837432053183  0.7315744550284 1.0
C      1  0.2206473527057  0.3298149265749  0.5434863108056 1.0
C      1  0.5407660544117  0.4972601158708  0.3614138137252 1.0
C      1  0.3240673700516  0.5372345843730  0.1953034151408 1.0
C      1  0.4018506215252  0.4171071690576  0.3355247453697 1.0
C      1  0.4950048799197  0.7879979803125  0.6192787421076 1.0
C      1  0.4374416416123  0.4002182665849  0.8888708715348 1.0
C      1  0.2432631466738  0.3035063613090  0.3946741504418 1.0
C      1  0.6686590160446  0.5146541473400  0.2961906247490 1.0
C      1  0.4389184005186  0.6072183480856  0.4197233779196 1.0
C      1  0.4815979066565  0.7750673387208  0.4193940811038 1.0
C      1  0.6867405639166  0.2520178657776  0.5869317143838 1.0
C      1  0.3821589197308  0.1493248772619  0.5807471269787 1.0
C      1  0.7585696016871  0.7221580185647  0.6943879102899 1.0
C      1  0.6957010286962  0.5551953320198  0.8085414640140 1.0
C      1  0.6788744486632  0.3594532160536  0.2341582932734 1.0
C      1  0.4031358767423  0.2081149348696  0.2601330903194 1.0
C      1  0.5685963425800  0.4758683397394  0.5878682675107 1.0
C      1  0.1265533669881  0.5968677470094  0.3363235526275 1.0
C      1  0.7348897906911  0.8029121407918  0.5406109058481 1.0
C      1  0.5777977285175  0.7639330979433  0.4402581643778 1.0
C      1  0.5251604165988  0.1663693566633  0.4974287738851 1.0
C      1  0.4115444654977  0.4134982160684  0.1351921901930 1.0
C      1  0.5893762546089  0.3882508270049  0.5994531836645 1.0
C      1  0.4344931203596  0.8466946668386  0.2780932648207 1.0
C      1  0.5983336073426  0.1507576270619  0.4516490645009 1.0
C      1  0.4602544785954  0.3316599076018  0.1413916529266 1.0
C      1  0.8306382776947  0.3211221720957  0.4029864617534 1.0
C      1  0.4780707780319  0.4833145860839  0.1095711470151 1.0
C      1  0.5848452514376  0.5679731520248  0.3009523355336 1.0
C      1  0.2104534661716  0.5747048785257  0.7761092422724 1.0
C      1  0.6365998086396  0.7834257460521  0.7021598877044 1.0
C      1  0.6738196741828  0.3972794894734  0.7988378221164 1.0
C      1  0.0575422534836  0.6572959655386  0.4872907699967 1.0
C      1  0.5419559792785  0.5789982250677  0.9159498165703 1.0
C      1  0.2669472901052  0.3952284766167  0.2508129248791 1.0
C      1  0.1413736708891  0.5029583221879  0.3442430702188 1.0
C      1  0.5062343724330  0.7269719201157  0.8581946296570 1.0
C      1  0.4570677334107  0.2609650463240  0.2042330273957 1.0
C      1  0.6866411474343  0.7156615440813  0.7552792237100 1.0
C      1  0.5431435628693  0.7954101911425  0.7051840240635 1.0
C      1  0.5000109583322  0.5989895079440  0.7706473991470 1.0
C      1  0.2583435414419  0.4515609237777  0.4301731922584 1.0
C      1  0.1061518713243  0.6927339804829  0.5636246148863 1.0
C      1  0.7077572463205  0.7170299272682  0.2594992789145 1.0
C      1  0.3466736689281  0.7102280232497  0.8341487526220 1.0
C      1  0.2910783055312  0.6288115207299  0.7984425942874 1.0
C      1  0.7910473528194  0.2824389986707  0.3174501285735 1.0
C      1  0.5554115073264  0.3540966119345  0.1291535084415 1.0
C      1  0.8842103307730  0.5218133903553  0.6336991382686 1.0
C      1  0.8431345826595  0.4384218765215  0.5986631187903 1.0
C      1  0.8414889067137  0.2537781884604  0.4824310595632 1.0
C      1  0.7766890337249  0.3393850136696  0.2490805032306 1.0
C      1  0.6588419256997  0.5149869428815  0.4608553218014 1.0
C      1  0.1433628906098  0.6117263081077  0.7243006604555 1.0
C      1  0.2433205212400  0.2320976316838  0.5343073407854 1.0
C      1  0.6034423795753  0.3019846743727  0.5602610058681 1.0
C      1  0.1838438130389  0.7518001313938  0.5454936790000 1.0
C      1  0.4265063791462  0.7008790127565  0.4033041179682 1.0
C      1  0.8157752547077  0.4761392567985  0.3296009037005 1.0
C      1  0.3943008640372  0.6049357585799  0.1839797438435 1.0
C      1  0.4537723163747  0.8420034124750  0.3599857627860 1.0
C      1  0.4010601869728  0.1399808169861  0.4066811539926 1.0
C      1  0.5552487024540  0.7394699573953  0.2591118576657 1.0
C      1  0.5759237546592  0.4917608040326  0.9077366665630 1.0
C      1  0.6102957640513  0.3068823234711  0.1850702377188 1.0
C      1  0.6997329274216  0.4582186448444  0.2134287450750 1.0
C      1  0.3495049964433  0.3541410727714  0.6614030456634 1.0
C      1  0.6595302820494  0.6447657002074  0.8095311245635 1.0
C      1  0.2421316963014  0.5511079223434  0.2373737129017 1.0
C      1  0.3164604467477  0.2227263729982  0.2954991651142 1.0
C      1  0.7958181641279  0.4341841210688  0.2478795263810 1.0
C      1  0.1451299927732  0.6602316596013  0.6502289202519 1.0
C      1  0.4856933784433  0.7833344443849  0.7868135015475 1.0
C      1  0.2158284805421  0.3708213417708  0.7429498193000 1.0
C      1  0.4116726191979  0.8273801673169  0.6317761461853 1.0
C      1  0.4320252860053  0.1346659758824  0.5012418567552 1.0
C      1  0.3994631273739  0.6831166903900  0.2390540866646 1.0
C      1  0.2066742639447  0.4700821319319  0.2740707619525 1.0
C      1  0.6930523509263  0.2250458782076  0.6750355494410 1.0
C      1  0.7518833126218  0.5165177317123  0.4953506698747 1.0
C      1  0.3353668128216  0.4400994820957  0.1863423333886 1.0
C      1  0.5245654423343  0.2757929983926  0.4996185359581 1.0
C      1  0.2022837520047  0.6266544272688  0.2799889363498 1.0
C      1  0.3612345345483  0.4980829366619  0.5653287219957 1.0
C      1  0.5107962186870  0.4234921652962  0.9221210721831 1.0
C      1  0.4773072615166  0.2555179212129  0.6976500224068 1.0
C      1  0.5527198456185  0.6160812939698  0.1532120742486 1.0
C      1  0.3129919355815  0.2136978108570  0.6891265893820 1.0
C      1  0.6363722005693  0.4562486172678  0.3750050805192 1.0
C      1  0.4920139872696  0.4277292820931  0.3111484991347 1.0
C      1  0.7588749309669  0.2671179903089  0.5291013076714 1.0
C      1  0.6422341169276  0.3554055175438  0.3323800529931 1.0
C      1  0.6491105805606  0.4781253806216  0.8457689030526 1.0
C      1  0.4916926726338  0.5264965715220  0.4502956828733 1.0
C      1  0.4178130284062  0.6524381593397  0.6203970620897 1.0
C      1  0.2187917414715  0.7816853997064  0.4658253235761 1.0
C      1  0.4445235803658  0.5932573657161  0.9091891658317 1.0
C      1  0.4298312052912  0.3125554962104  0.6322635143344 1.0
C      1  0.6948847748662  0.2635400075021  0.3631019269526 1.0
C      1  0.6486209943230  0.8123096164878  0.3902953808457 1.0
C      1  0.4334918896846  0.5447099554667  0.8232128044476 1.0
C      1  0.6645410692930  0.2402371393927  0.7514956116229 1.0
C      1  0.5663948408547  0.6457788759132  0.8433655680492 1.0
C      1  0.1713281548707  0.4182894381029  0.6805408318700 1.0
C      1  0.7615452524915  0.5207891335889  0.7488256383755 1.0
C      1  0.8892412614478  0.6731812251475  0.6127187724874 1.0
C      1  0.7481132714530  0.4242197755962  0.7368250744094 1.0
C      1  0.5467604701230  0.2590267783848  0.2451591793897 1.0
C      1  0.3495506336277  0.6766931396791  0.3306996027413 1.0
C      1  0.6207249466781  0.6948101121329  0.4838533725851 1.0
C      1  0.8372724175286  0.4217018839510  0.4109912543008 1.0
C      1  0.9628333160566  0.6264793524890  0.4996655080072 1.0
C      1  0.8275149367743  0.6617319424544  0.6818407215114 1.0
C      1  0.3610003086819  0.5747567265488  0.7584586879583 1.0
C      1  0.7856504366677  0.7218370531660  0.5003023813188 1.0
C      1  0.4225994288498  0.4463731375009  0.7988969004491 1.0
C      1  0.2761371271466  0.3656615378309  0.4691899635897 1.0
C      1  0.4952055837792  0.4070553267551  0.7404290391848 1.0
C      1  0.2677766953812  0.3076811404860  0.3008834691836 1.0
C      1  0.1651513293254  0.4702315119263  0.4331044998502 1.0
C      1  0.5688556204088  0.4477198906915  0.1100429604587 1.0
C      1  0.6437733726681  0.5918755459032  0.1380514961613 1.0
C      1  0.5263662406396  0.3132969324668  0.7580003637976 1.0
C      1  0.4588615424363  0.1603745160003  0.3271679414465 1.0
C      1  0.7045806499551  0.6456914789567  0.1921606917219 1.0
C      1  0.7294472322465  0.5815540071790  0.4270772656060 1.0
C      1  0.6271031333018  0.1862263422763  0.3719288794580 1.0
C      1  0.8221055772394  0.4551932055253  0.5004615028668 1.0
C      1  0.5433612816652  0.4381545973390  0.6697235981661 1.0
C      1  0.7437498493042  0.2909580627809  0.4424683715662 1.0
C      1  0.4355764545560  0.6213979355978  0.7092253971527 1.0
C      1  0.7572000861550  0.5614156644677  0.3319302347010 1.0
C      1  0.4021770604518  0.4677947184782  0.4799708185272 1.0
C      1  0.1128270834606  0.6619110169929  0.4075717221745 1.0
C      1  0.7610320653609  0.6384879860172  0.2665050665595 1.0
C      1  0.3835468198653  0.3646155255394  0.4823391209134 1.0
C      1  0.2482692225409  0.6929673821562  0.3265370830591 1.0
C      1  0.3453444932115  0.4865537823603  0.3928756966536 1.0
C      1  0.6429876979849  0.7768173614951  0.2965304163285 1.0
C      1  0.2903174504185  0.3080770626840  0.7156830063562 1.0
C      1  0.6197671749002  0.3136668695106  0.7873196443410 1.0
C      1  0.5707127095051  0.5431526030257  0.5163890274160 1.0
C      1  0.1309958607465  0.4540860820917  0.5175065734984 1.0
C      1  0.3469221513990  0.4490888570179  0.6412330511996 1.0
C      1  0.4426945449848  0.3143698962665  0.5430009004249 1.0
C      1  0.5022380202148  0.3052595889215  0.4036653862900 1.0
C      1  0.3851631324392  0.7809402692931  0.7777779785801 1.0
C      1  0.7175057222415  0.6695768391610  0.4677639625699 1.0
C      1  0.9321451540470  0.5892837126816  0.5861445588564 1.0
C      1  0.4658091080095  0.7623597040447  0.2400424612309 1.0
C      1  0.3652565384402  0.5817171998635  0.3733339447173 1.0
C      1  0.7014059461868  0.8400076417480  0.4611485756540 1.0
C      1  0.4702266962639  0.5742180930403  0.1326734715007 1.0
C      1  0.4981440000108  0.6944078095013  0.5824487398462 1.0
C      1  0.6484681576756  0.4955679364676  0.1335762202940 1.0
C      1  0.4065648511039  0.1862902677361  0.6757075466543 1.0
C      1  0.3600356743864  0.8244056295440  0.6989894264839 1.0
C      1  0.3163860914677  0.6657723437200  0.5998471293244 1.0
C      1  0.1909056886061  0.7226802768660  0.3998293407593 1.0
C      1  0.2295712573793  0.7045810421968  0.6128369416998 1.0
C      1  0.7131012646500  0.7891009128964  0.6361359410870 1.0
C      1  0.2337041552460  0.4732107533517  0.7489405233297 1.0
C      1  0.2906918275234  0.1826081692270  0.5985502254310 1.0
C      1  0.4190016760510  0.3423624603306  0.3964693543766 1.0
C      1  0.5457201806024  0.3373631277023  0.3212063669282 1.0
C      1  0.8276175025662  0.5666312980458  0.7006139780743 1.0
C      1  0.5616406435310  0.6444037029141  0.2457093662186 1.0
C      1  0.2564703379351  0.2199753767017  0.4397736796699 1.0
C      1  0.7915012159545  0.3938205919994  0.6604293847836 1.0
C      1  0.3146980247136  0.1732990808702  0.3819094003599 1.0
C      1  0.4210705819587  0.6844835376142  0.8892948157600 1.0
C      1  0.5506158108469  0.1847212616456  0.3126407520147 1.0
C      1  0.3544130519612  0.5913445297856  0.5749697729713 1.0
C      1  0.1666105934015  0.4002671010133  0.5844332953257 1.0
C      1  0.8803575425776  0.6940010508366  0.5220853442630 1.0
C      1  0.5648555736574  0.6438349612947  0.5409859540414 1.0
END
