TITL C-24382-6865-15 -2.024 3375.00 -339.66730604 0 0 42 (C1) n - 1
REM
REM Run started: at 2020.12.22 15:26:58 in /rds/project/t2_vol4/rds-t2-cs072/BORA/CARBON/AIRSS/Generating-Clusters/Str-Search/Only-C1/C10-100
REM VASP from code version vasp.5.4.4.18Apr17-6-g9f103f2a35 (build Oct 11 2019 16:45:47) gamma-only
REM
REM
REM
REM
REM ./C.cell (67c5d0192afd7a3ce4a0888e5fe73b87)
REM AIRSS Version 0.9.1 bugfix July 2018 build 013d7b7c2542+ Fri, 06 Jul 2018 19:26:36 +0100
REM compiler GCC version 4.8.5 20150623 (Red Hat 4.8.5-39)
REM options -cpp -mtune=generic -march=x86-64 -g -O0
REM seed -801507403 -426380618 -859801612 -1098527600 -293066109 1168261073 1208130666 -968696867 515106691 181029397 -365866740 2045230023
REM
REM C.POTCAR (d86ddea03c3ceb6dc662c8ad6801f873)
REM 
CELL 1.54180   15.00000   15.00000   15.00000   90.00000   90.00000   90.00000
LATT -1
SFAC C  
C      1  0.4793560652989  0.7063062421005  0.5191243981743 1.0
C      1  0.4535055708423  0.5517526646922  0.3507149276581 1.0
C      1  0.4468435969970  0.6553573591163  0.5962071851348 1.0
C      1  0.4011224346048  0.4918146232230  0.6725953004386 1.0
C      1  0.4260186311602  0.6867674760585  0.4419875903577 1.0
C      1  0.4266592281955  0.4691335369644  0.5753052993385 1.0
C      1  0.5622467853417  0.4426586581367  0.6529414473589 1.0
C      1  0.3534483723552  0.4102549892904  0.5280012715435 1.0
C      1  0.2638362066720  0.6083206093646  0.4573647304114 1.0
C      1  0.5378354418188  0.2939811419874  0.4678119785930 1.0
C      1  0.5244719309474  0.4873800608216  0.3280834745616 1.0
C      1  0.5099423385842  0.3922476246658  0.3453413420966 1.0
C      1  0.4661108147558  0.4178722328274  0.6540387385734 1.0
C      1  0.5316310047848  0.5966424553817  0.5838670050362 1.0
C      1  0.3585437306307  0.6282112366280  0.5832542571099 1.0
C      1  0.2452691246233  0.5317944681329  0.4902281268354 1.0
C      1  0.6135248992993  0.3793057686465  0.5978433490149 1.0
C      1  0.3411668189967  0.6522063984720  0.4853932034039 1.0
C      1  0.4296543223728  0.5148384256334  0.4359596137245 1.0
C      1  0.6063909941968  0.5360065806261  0.3510508556029 1.0
C      1  0.6602019866731  0.3839585457012  0.3954537976792 1.0
C      1  0.4261289512901  0.3639175577372  0.3878682585599 1.0
C      1  0.4825895628273  0.6396037377730  0.3757340026943 1.0
C      1  0.4423519228095  0.2984476198549  0.4569559762726 1.0
C      1  0.3337359535022  0.5370627554381  0.6183881231775 1.0
C      1  0.6873245476487  0.4305596432720  0.5581804865916 1.0
C      1  0.7230007041415  0.5902628190407  0.5527989076033 1.0
C      1  0.6812486975901  0.5194375313019  0.5942954504107 1.0
C      1  0.5812738958781  0.6286237185528  0.3794810845312 1.0
C      1  0.5542387330500  0.3145196011931  0.5622914498617 1.0
C      1  0.6725197195548  0.4773538637913  0.3849853716195 1.0
C      1  0.4766402167915  0.5264475282854  0.5182493110849 1.0
C      1  0.6282774487077  0.6661474509253  0.4532718432671 1.0
C      1  0.5769942284516  0.3411519455331  0.3921682758685 1.0
C      1  0.7120190567820  0.6403425187846  0.4873437379248 1.0
C      1  0.5923565419678  0.5299560789993  0.6345681295526 1.0
C      1  0.4642223660883  0.3267937157410  0.6053568241916 1.0
C      1  0.3963498123413  0.3178101690410  0.5422286551872 1.0
C      1  0.5668179207347  0.6772463022888  0.5263294716452 1.0
C      1  0.7017572492409  0.4284921645027  0.4652541990421 1.0
C      1  0.3821709851757  0.4309621156265  0.4360738838711 1.0
C      1  0.2802008862746  0.4780505638466  0.5556087643950 1.0
END
