TITL C-242626-5572-3 -10.837 3375.00 0 0 0 228 (C1) n - 1
REM
REM Run started: at 2020.03.10 21:06:47 in /rds/user/bk393/hpc-work/AIRSS.pl-DENE/CARBON/New-Try
REM VASP from code version vasp.5.4.4.18Apr17-6-g9f103f2a35 (build Oct 11 2019 16:45:47) gamma-only
REM
REM
REM
REM
REM ./C.cell (67df479faaa1345d4e7bfe0367c0c0c2)
REM AIRSS Version 0.9.1 bugfix July 2018 build 013d7b7c2542+ Fri, 06 Jul 2018 19:26:36 +0100
REM compiler GCC version 4.8.5 20150623 (Red Hat 4.8.5-39)
REM options -cpp -mtune=generic -march=x86-64 -g -O0
REM seed -1505205158 900375022 -1778527597 1394417844 -715696460 -11565836 -1363522965 -1563386975 1267329159 955678898 -1234048227 943333313
REM
REM C.POTCAR (d86ddea03c3ceb6dc662c8ad6801f873)
REM 
CELL 1.54180   15.00000   15.00000   15.00000   90.00000   90.00000   90.00000
LATT -1
SFAC C  
C      1  0.7365299280578  0.5928820925666  0.4098217804548 1.0
C      1  0.2303649151183  0.4631937764921  0.7803903631211 1.0
C      1  0.2719527585222  0.7014685737012  0.4748646742849 1.0
C      1  0.7321146460751  0.3936562592563  0.4083959992437 1.0
C      1  0.8319058895676  0.4387763641550  0.7518489434897 1.0
C      1  0.2862357699856  0.2474178897387  0.1992427288405 1.0
C      1  0.4735739075691  0.5168320147161  0.5387256041473 1.0
C      1  0.7161848622841  0.4412735514026  0.5989617111381 1.0
C      1  0.1143338882193  0.4388595724423  0.4355952872727 1.0
C      1  0.7092057218818  0.6395157027389  0.4934252244859 1.0
C      1  0.6379334230631  0.1326680441144  0.4697060952601 1.0
C      1  0.4104091499167  0.5243541413924  0.3515373724716 1.0
C      1  0.3592224871342  0.8840966901536  0.4861255785428 1.0
C      1  0.2485289834335  0.6789321592400  0.2413015143770 1.0
C      1  0.1464878624171  0.5628302335785  0.6542327348921 1.0
C      1  0.1833546614086  0.3758635302750  0.1952327832478 1.0
C      1  0.5114667454656  0.4398572570412  0.2500247843478 1.0
C      1  0.2537308583923  0.6249537210502  0.7525117167182 1.0
C      1  0.7281366950034  0.4587917002996  0.3466576798360 1.0
C      1  0.3252039078059  0.6701931314432  0.3909756555950 1.0
C      1  0.6997841543986  0.2666597424284  0.8302524281121 1.0
C      1  0.2238179396413  0.2483775577207  0.6385038307647 1.0
C      1  0.2742387318893  0.3380846067654  0.1761288718870 1.0
C      1  0.2572243421577  0.3476065916743  0.4972606527773 1.0
C      1  0.5944527926382  0.8494677151555  0.3498763921529 1.0
C      1  0.8765471062825  0.7391248836731  0.4840486590842 1.0
C      1  0.5274265770378  0.2884615133297  0.0098330481321 1.0
C      1  0.2102324865175  0.4680725138389  0.2844005399843 1.0
C      1  0.1417036242553  0.3604485547490  0.3863720260214 1.0
C      1  0.7703292992360  0.6568334225678  0.2768680997129 1.0
C      1  0.0677126312705  0.6452766141052  0.5166770539633 1.0
C      1  0.5208647044753  0.6811534201052  0.3471243667731 1.0
C      1  0.6130886413141  0.6370240060676  0.5236989054629 1.0
C      1  0.5302352569391  0.4637156973330  0.7471787835254 1.0
C      1  0.5255723116902  0.8423984191148  0.6013489159885 1.0
C      1  0.3711374999568  0.4206616491253  0.3608101052880 1.0
C      1  0.7267378462935  0.7404686263291  0.4962244343901 1.0
C      1  0.9081057705626  0.6009604991392  0.5688049668766 1.0
C      1  0.7279853707880  0.1399868000587  0.4243214208586 1.0
C      1  0.1967230098926  0.6987843714868  0.7194873764180 1.0
C      1  0.3030243524294  0.0531372169674  0.4487259430503 1.0
C      1  0.7550583381802  0.7586080692543  0.2809835993028 1.0
C      1  0.7470916403561  0.7849192052892  0.5817516528294 1.0
C      1  0.3557322457277  0.5599553690052  0.8578195229902 1.0
C      1  0.5194961947433  0.5567112448195  0.7014795627462 1.0
C      1  0.1066698421661  0.7100651352322  0.5809775076934 1.0
C      1  0.4862721616599  0.2983586403677  0.0852582763505 1.0
C      1  0.4760151946695  0.2758200535412  0.2768613319257 1.0
C      1  0.4435717772693  0.5289497994950  0.8943107567926 1.0
C      1  0.6946417191524  0.8438724473641  0.6304528494442 1.0
C      1  0.9329218523679  0.5403007885930  0.4828031379143 1.0
C      1  0.2600840469481  0.3978657731752  0.6340474410393 1.0
C      1  0.3882730448269  0.6198926374446  0.5977715796242 1.0
C      1  0.5029032181072  0.4190760040529  0.5208170648115 1.0
C      1  0.4337164418794  0.5281887226593  0.1410735456771 1.0
C      1  0.2982025463723  0.9148185376569  0.3437477852507 1.0
C      1  0.6163614638783  0.8750476867912  0.5939461692290 1.0
C      1  0.7024754156644  0.3540108512013  0.1167863596145 1.0
C      1  0.7600033637882  0.5918277398397  0.7677299358688 1.0
C      1  0.6988286659857  0.8137259220749  0.7198942560939 1.0
C      1  0.2234017374027  0.4343486345844  0.5431150504384 1.0
C      1  0.7838489373717  0.4629411704941  0.1951249802210 1.0
C      1  0.7504561644047  0.6869867269317  0.7880950830661 1.0
C      1  0.5725355954385  0.8963045547580  0.5198908411566 1.0
C      1  0.3025119966634  0.8258343112778  0.3179414644657 1.0
C      1  0.6546020138076  0.1302054479475  0.2748975511820 1.0
C      1  0.5718816407111  0.5160959632910  0.3981820517606 1.0
C      1  0.8731609729161  0.6946829938420  0.5684060637829 1.0
C      1  0.2456735453385  0.7764472000455  0.6985391476416 1.0
C      1  0.3266431553393  0.1692058774939  0.7609007896915 1.0
C      1  0.5513334352235  0.6587324235908  0.1937436051465 1.0
C      1  0.4926709970992  0.3837255017133  0.1134470957805 1.0
C      1  0.8377061664051  0.1960261240685  0.5424483962506 1.0
C      1  0.4387933913636  0.4332209346385  0.1790216385841 1.0
C      1  0.6246497107269  0.7908455674188  0.7753142730130 1.0
C      1  0.3760857757340  0.7274878891253  0.7973492068702 1.0
C      1  0.8057509993838  0.2354256559250  0.2917914100545 1.0
C      1  0.1918083541954  0.1876885789011  0.4893897300303 1.0
C      1  0.5086322852678  0.3909164400682  0.6773593930358 1.0
C      1  0.5912786582609  0.6118841353522  0.6848937063182 1.0
C      1  0.1927895281555  0.7653216997497  0.4538067050695 1.0
C      1  0.7118142575037  0.5008586024799  0.1413156790585 1.0
C      1  0.2611749128313  0.2271797939016  0.2784956828232 1.0
C      1  0.3664812801640  0.5160923247237  0.6724290895360 1.0
C      1  0.4906604694470  0.5168006787375  0.9717090826887 1.0
C      1  0.6086023386855  0.2834429707857  0.4175306876566 1.0
C      1  0.3158411909624  0.6611988715690  0.1657866573880 1.0
C      1  0.4515392754402  0.5518207978905  0.6343949956848 1.0
C      1  0.6521051221305  0.3715649466123  0.4628930791812 1.0
C      1  0.3752308541116  0.5562957394727  0.5126453642044 1.0
C      1  0.6216241343028  0.6940815997497  0.3669010147555 1.0
C      1  0.5473872074213  0.2552450008736  0.5682590330344 1.0
C      1  0.5486821671922  0.3493846772089  0.2765665602385 1.0
C      1  0.5691988610897  0.0744616535389  0.4676131937405 1.0
C      1  0.6750472194952  0.5641680757128  0.7207450677834 1.0
C      1  0.4786474433409  0.6523713960785  0.4347422528752 1.0
C      1  0.4076822236451  0.2040419106738  0.4558422707678 1.0
C      1  0.3474941610538  0.4297522258660  0.6673167565386 1.0
C      1  0.1306167932159  0.6652337031490  0.6633992645930 1.0
C      1  0.3289247533100  0.6401869475213  0.8166874132722 1.0
C      1  0.5155837025746  0.6181367274448  0.2722768965911 1.0
C      1  0.8032507278372  0.7692141846961  0.4382435401838 1.0
C      1  0.2736284350940  0.5258363412066  0.5222360868329 1.0
C      1  0.8331828199582  0.2823604179625  0.5780544278008 1.0
C      1  0.5307416181579  0.3457863772363  0.3780968217479 1.0
C      1  0.6562432147782  0.4332418598899  0.1048189241851 1.0
C      1  0.7237207330948  0.1820847328690  0.3310150012836 1.0
C      1  0.3880106453786  0.1039696095861  0.4524546605838 1.0
C      1  0.1770669964611  0.7715831169710  0.3664372307109 1.0
C      1  0.2403491531925  0.8064239301751  0.6054635660700 1.0
C      1  0.6060333742281  0.2304239638644  0.6507954300076 1.0
C      1  0.4911535173141  0.1836993200729  0.2980055717256 1.0
C      1  0.6665380776899  0.5335400177308  0.3642322820676 1.0
C      1  0.5775246908435  0.6728194580921  0.6085074452238 1.0
C      1  0.6768085681686  0.5900946506839  0.1396183082952 1.0
C      1  0.8668328797181  0.5136951768144  0.5502163734603 1.0
C      1  0.1831649109682  0.4726708361654  0.1776469213277 1.0
C      1  0.3106354624713  0.4536707071903  0.2767773540784 1.0
C      1  0.3795432781694  0.4011772454490  0.8359244071420 1.0
C      1  0.2347072520448  0.1110062273288  0.4604787623998 1.0
C      1  0.0046369384301  0.5736173514340  0.5454512714083 1.0
C      1  0.3882107168459  0.3070083174336  0.5937387277782 1.0
C      1  0.0811711636331  0.5113098211818  0.5893189410388 1.0
C      1  0.4754106474677  0.8511339654287  0.6870168156638 1.0
C      1  0.8970710015269  0.3695692683993  0.3622922767265 1.0
C      1  0.7606158578277  0.8117622960601  0.3583491581236 1.0
C      1  0.1963624538593  0.5456242845220  0.3388625227414 1.0
C      1  0.6105610405585  0.2402100702546  0.8136644644496 1.0
C      1  0.8036414849617  0.4473538463636  0.5557656086335 1.0
C      1  0.2251586980584  0.7667462442844  0.2902674368148 1.0
C      1  0.3822712021830  0.8463868012578  0.6758590748475 1.0
C      1  0.2337993706504  0.5793787999363  0.5982668856097 1.0
C      1  0.5462736456866  0.3391303628515  0.9393267262114 1.0
C      1  0.6901043923084  0.2919774271654  0.1862535948134 1.0
C      1  0.4840743045901  0.0823751688172  0.4475081591639 1.0
C      1  0.2944755942322  0.2513772160310  0.7888162312148 1.0
C      1  0.3760265244522  0.5847861643444  0.1874053855057 1.0
C      1  0.6856055881044  0.6275455020471  0.3319965691724 1.0
C      1  0.5240617379043  0.8029000022350  0.7634147746865 1.0
C      1  0.8184654735830  0.3469441861752  0.4260492638638 1.0
C      1  0.3625261874603  0.7683052786578  0.3656791708160 1.0
C      1  0.7862658917425  0.3701729767891  0.1714998495514 1.0
C      1  0.4202569729256  0.3672598747405  0.6639692759314 1.0
C      1  0.3443065928005  0.5495191510672  0.2777583885451 1.0
C      1  0.6712175082843  0.4364862329106  0.8416775403757 1.0
C      1  0.5395959669862  0.5792373783311  0.4778850536083 1.0
C      1  0.6398709486969  0.7116398327457  0.4612944511977 1.0
C      1  0.2255832012561  0.2897259488025  0.7334296272217 1.0
C      1  0.8561826793942  0.2907118723552  0.3529437929384 1.0
C      1  0.2287914830338  0.6282500594378  0.1566423210936 1.0
C      1  0.5605267612952  0.4396058755070  0.9688947817480 1.0
C      1  0.5636630523344  0.4218515921599  0.4376357329841 1.0
C      1  0.5382622377756  0.2842107055914  0.8588567343301 1.0
C      1  0.3164631806513  0.9507140868092  0.4262878315105 1.0
C      1  0.7837055013454  0.2816055655615  0.2147078596624 1.0
C      1  0.3453424955458  0.3637059218471  0.4489842554512 1.0
C      1  0.3937081141308  0.6001515728345  0.4224338297251 1.0
C      1  0.5143809122775  0.5378630122273  0.0766947992025 1.0
C      1  0.5074307243559  0.5225205108866  0.3124748280431 1.0
C      1  0.3207512293622  0.7514244966070  0.5556868065150 1.0
C      1  0.6817076793929  0.4821842250344  0.6711804776104 1.0
C      1  0.2864257079270  0.3101181546378  0.5893027920938 1.0
C      1  0.4044073508951  0.8065086563308  0.4422834164306 1.0
C      1  0.4496885883899  0.2562246285987  0.5347970310692 1.0
C      1  0.8133980725740  0.7379024709508  0.6326811758920 1.0
C      1  0.6342328838772  0.4709623726730  0.7554937931158 1.0
C      1  0.3301545775404  0.8528306120837  0.5814814163761 1.0
C      1  0.5697125612021  0.7626879770080  0.3126268528016 1.0
C      1  0.3719470644002  0.3048119695374  0.8239306191223 1.0
C      1  0.6339831594761  0.4852290433187  0.9170968932984 1.0
C      1  0.5051578252280  0.7424834800317  0.5819577111672 1.0
C      1  0.4676694437963  0.7433740997745  0.8106213617237 1.0
C      1  0.6911813972513  0.7446776652912  0.2062974853412 1.0
C      1  0.5631064503906  0.4451071847493  0.0718277175755 1.0
C      1  0.4779966718809  0.1900688556292  0.7534756415197 1.0
C      1  0.4245610737970  0.3559699678543  0.5120271952307 1.0
C      1  0.6832229152583  0.8701404670980  0.3735774872617 1.0
C      1  0.1340272474356  0.6064630038164  0.4674315662936 1.0
C      1  0.8330071584773  0.3566455495779  0.5212740518596 1.0
C      1  0.3119811640434  0.4723325450137  0.8350828180280 1.0
C      1  0.3420085143661  0.4027915975681  0.1976132079278 1.0
C      1  0.5734757511680  0.1992095063689  0.7334687727329 1.0
C      1  0.5816315002584  0.6033972956091  0.1205420313601 1.0
C      1  0.2000852513228  0.2839247313576  0.4331077012550 1.0
C      1  0.8149742287111  0.3599754531269  0.7196535749286 1.0
C      1  0.7824175241298  0.2976313256803  0.6628368770049 1.0
C      1  0.1329998905715  0.5319767977827  0.4041476654548 1.0
C      1  0.2713782388258  0.6134699560823  0.3177350008285 1.0
C      1  0.6971704013093  0.3510518112935  0.8474552836283 1.0
C      1  0.1654411366795  0.3819006870719  0.2949357640642 1.0
C      1  0.3592847574360  0.2758342772388  0.4018040761256 1.0
C      1  0.8925471318661  0.4623614573790  0.3382479190879 1.0
C      1  0.7256184105832  0.6575303232280  0.1839430842936 1.0
C      1  0.1788190265797  0.1965616616094  0.5826839241825 1.0
C      1  0.6856739876493  0.2808425928191  0.6306083795023 1.0
C      1  0.2695744499351  0.2539529062606  0.3641323251224 1.0
C      1  0.6026248927086  0.2212233970094  0.4915357190150 1.0
C      1  0.6580336997314  0.2585772054409  0.3371778593532 1.0
C      1  0.6643170926953  0.7159506737584  0.8278669635464 1.0
C      1  0.7751756909049  0.7485308847245  0.7225522381958 1.0
C      1  0.3092077583719  0.5953080894088  0.6585504552864 1.0
C      1  0.1235069718871  0.4491867738310  0.5345352017344 1.0
C      1  0.9047147111247  0.5406681788075  0.3855514937539 1.0
C      1  0.1968174581246  0.5416756310499  0.7449705969546 1.0
C      1  0.8198075049941  0.5838947795370  0.3421676391121 1.0
C      1  0.4553359990554  0.1521373616395  0.3840114302576 1.0
C      1  0.4023011043193  0.1410346239542  0.7354293092657 1.0
C      1  0.6379632108949  0.5763501172501  0.9154161654845 1.0
C      1  0.4076024934304  0.7104524325748  0.5779925409795 1.0
C      1  0.5966683034562  0.7393902145879  0.2197398628826 1.0
C      1  0.6053157384294  0.8910389592133  0.4311855297324 1.0
C      1  0.1887175046011  0.5483945131048  0.1347000835367 1.0
C      1  0.5712538842277  0.1381645384083  0.2739181897933 1.0
C      1  0.4571700547415  0.2599060006827  0.8195115583799 1.0
C      1  0.1619245514107  0.7790109189323  0.5481636862166 1.0
C      1  0.4282352760754  0.3263119904118  0.3479562321408 1.0
C      1  0.8071980349422  0.4903306499684  0.2917482669875 1.0
C      1  0.3313070668223  0.7912964974521  0.7362660111522 1.0
C      1  0.2254269120471  0.6152419863691  0.5053664517365 1.0
C      1  0.4587057224413  0.7330262816562  0.4912759152088 1.0
C      1  0.6349877025742  0.3046823659598  0.2618391342569 1.0
C      1  0.6305162607860  0.6555516896439  0.8870672493081 1.0
C      1  0.2170117059906  0.3816266295096  0.7237927314288 1.0
C      1  0.6592360932812  0.3637662092643  0.5703152576114 1.0
C      1  0.7966343570669  0.1574544065253  0.4802171084745 1.0
C      1  0.5592584441684  0.3666537980089  0.5919319231484 1.0
C      1  0.8199996089361  0.5233793522530  0.7692116236844 1.0
C      1  0.4636948471892  0.4534689929015  0.8293430318648 1.0
END
