TITL C-24382-6865-22 -3.65 3375.00 -620.68197291 0 0 76 (C1) n - 1
REM
REM Run started: at 2020.12.22 17:26:33 in /rds/project/t2_vol4/rds-t2-cs072/BORA/CARBON/AIRSS/Generating-Clusters/Str-Search/Only-C1/C10-100
REM VASP from code version vasp.5.4.4.18Apr17-6-g9f103f2a35 (build Oct 11 2019 16:45:47) gamma-only
REM
REM
REM
REM
REM ./C.cell (67c5d0192afd7a3ce4a0888e5fe73b87)
REM AIRSS Version 0.9.1 bugfix July 2018 build 013d7b7c2542+ Fri, 06 Jul 2018 19:26:36 +0100
REM compiler GCC version 4.8.5 20150623 (Red Hat 4.8.5-39)
REM options -cpp -mtune=generic -march=x86-64 -g -O0
REM seed 1350050465 1756268710 2076840020 1674601713 -2087761068 -1384422833 -1976345852 -1873136039 -1322977200 -2044852015 2010604809 -1730024501
REM
REM C.POTCAR (d86ddea03c3ceb6dc662c8ad6801f873)
REM 
CELL 1.54180   15.00000   15.00000   15.00000   90.00000   90.00000   90.00000
LATT -1
SFAC C  
C      1  0.4163016746204  0.2750845362809  0.4299956883628 1.0
C      1  0.6563572238233  0.3338799221399  0.5934912171019 1.0
C      1  0.5197100780378  0.7431608980941  0.5674770314514 1.0
C      1  0.3052094781544  0.4926267596930  0.4775087998156 1.0
C      1  0.4665502697973  0.3577591333813  0.6428348272988 1.0
C      1  0.6401169651842  0.5821993882911  0.6545690767179 1.0
C      1  0.2445508044306  0.5403785983885  0.5443378311315 1.0
C      1  0.3206794041063  0.6698799234343  0.4437251922684 1.0
C      1  0.5495559232557  0.5262452005554  0.4634088362736 1.0
C      1  0.4411756830106  0.1980285801054  0.5611558980406 1.0
C      1  0.5900907803371  0.2715575850224  0.6320267254439 1.0
C      1  0.3056163452161  0.3779034629317  0.6141186700835 1.0
C      1  0.6212345454876  0.7411990000996  0.4547431462088 1.0
C      1  0.3098645774004  0.5613111883642  0.6898336105917 1.0
C      1  0.6054474347372  0.4348657765921  0.2381630139662 1.0
C      1  0.3783085687242  0.7158845864864  0.5049086183797 1.0
C      1  0.3182920815588  0.3302956274627  0.5290670356226 1.0
C      1  0.6995971736136  0.5107050330249  0.5279945815593 1.0
C      1  0.5585971185579  0.3147677816264  0.3876810676609 1.0
C      1  0.7086420690498  0.6179700535825  0.4373035633555 1.0
C      1  0.2372677996507  0.5188024087798  0.6398872692019 1.0
C      1  0.3153903586193  0.3903425718823  0.4497761882864 1.0
C      1  0.6384961754423  0.4943182880949  0.6042449731935 1.0
C      1  0.4636451348292  0.7278903605377  0.6420464442217 1.0
C      1  0.5540625483936  0.6512252424803  0.7722919143761 1.0
C      1  0.3999756244531  0.5080064021198  0.4970324800144 1.0
C      1  0.6133094122454  0.7231432982985  0.5490397086539 1.0
C      1  0.3809518821212  0.3552915314791  0.3833370671903 1.0
C      1  0.4862531043378  0.6988982927698  0.7266443890101 1.0
C      1  0.6666084130991  0.4863990936010  0.2944998745139 1.0
C      1  0.5373608102934  0.3274230447000  0.6954873186489 1.0
C      1  0.4937869316425  0.6524809109878  0.2601282341478 1.0
C      1  0.3332450616151  0.6411953073073  0.6537768510672 1.0
C      1  0.6866857411146  0.3519284188815  0.4991519837707 1.0
C      1  0.6804245038537  0.6944251770234  0.3954381687931 1.0
C      1  0.6373257103324  0.5830690581001  0.2759840937428 1.0
C      1  0.6500255632538  0.3465063214781  0.4057261804088 1.0
C      1  0.2684919643440  0.5922257795661  0.4764595108766 1.0
C      1  0.4401170588802  0.4571238917376  0.2455068368742 1.0
C      1  0.4442257664094  0.4718211506247  0.5704631639948 1.0
C      1  0.6352569613231  0.6696153131369  0.3167312818665 1.0
C      1  0.6683716213598  0.6546445721403  0.5920667980694 1.0
C      1  0.3756734195810  0.2552894076765  0.5167258945281 1.0
C      1  0.5447088362888  0.7067700273060  0.3213172839746 1.0
C      1  0.3910337644463  0.5557170689707  0.3568298722308 1.0
C      1  0.4565621820254  0.5359252384118  0.4307598815462 1.0
C      1  0.5435503065773  0.4782350886767  0.5523703236744 1.0
C      1  0.5153670934815  0.1792814132890  0.5035902705920 1.0
C      1  0.3818230379181  0.4981991832431  0.7195640198126 1.0
C      1  0.4935696042420  0.3382265328793  0.4618392092215 1.0
C      1  0.4665115271844  0.6241085205224  0.7859057467881 1.0
C      1  0.5502207913360  0.5792950900363  0.2326030668926 1.0
C      1  0.5263822799050  0.4882651937062  0.2188792414978 1.0
C      1  0.7237143847385  0.6077019339244  0.5300683329119 1.0
C      1  0.4573459452853  0.5287023759773  0.7655236047075 1.0
C      1  0.5362739407507  0.2085039320691  0.5906473419481 1.0
C      1  0.4687233219124  0.7463270442365  0.4843172357560 1.0
C      1  0.4341807272233  0.3769408742040  0.2996104695314 1.0
C      1  0.5501712344976  0.4931788455431  0.7558180424287 1.0
C      1  0.4969246973405  0.3833679759219  0.5469615812689 1.0
C      1  0.6032651107733  0.5758808713108  0.7374671598008 1.0
C      1  0.3749578140345  0.7026038170948  0.6036647329504 1.0
C      1  0.6423722357557  0.5452533142480  0.4499945009546 1.0
C      1  0.5091648529535  0.2380576460013  0.4281598326886 1.0
C      1  0.6529624133015  0.4103185660161  0.6533379528061 1.0
C      1  0.3811163016620  0.5279257840526  0.2673173227858 1.0
C      1  0.5954479437440  0.3423030797004  0.2446940815232 1.0
C      1  0.2359141612707  0.4262196594290  0.6387448481333 1.0
C      1  0.7277900292261  0.4344348334759  0.4731256573374 1.0
C      1  0.3965261987935  0.4268188948366  0.6500620647622 1.0
C      1  0.5833898261141  0.4095320355169  0.7226936035094 1.0
C      1  0.5188297204873  0.3345464498843  0.2981717263593 1.0
C      1  0.3532684597410  0.6437293516404  0.3583529935254 1.0
C      1  0.6895833840997  0.4323891819081  0.3747254162899 1.0
C      1  0.5326765647545  0.7451687205114  0.4099137269485 1.0
C      1  0.4028216418374  0.6283023764958  0.2761776980562 1.0
END
