TITL C-24382-6865-6 -2.036 3375.00 -331.44341545 0 0 42 (C1) n - 1
REM
REM Run started: at 2020.12.22 12:12:50 in /rds/project/t2_vol4/rds-t2-cs072/BORA/CARBON/AIRSS/Generating-Clusters/Str-Search/Only-C1/C10-100
REM VASP from code version vasp.5.4.4.18Apr17-6-g9f103f2a35 (build Oct 11 2019 16:45:47) gamma-only
REM
REM
REM
REM
REM ./C.cell (67c5d0192afd7a3ce4a0888e5fe73b87)
REM AIRSS Version 0.9.1 bugfix July 2018 build 013d7b7c2542+ Fri, 06 Jul 2018 19:26:36 +0100
REM compiler GCC version 4.8.5 20150623 (Red Hat 4.8.5-39)
REM options -cpp -mtune=generic -march=x86-64 -g -O0
REM seed 44926963 -1745206206 -1555785052 -1007010838 658709867 -277946747 -1626795757 -467443631 -1989697334 -2110808494 851787517 -1177990527
REM
REM C.POTCAR (d86ddea03c3ceb6dc662c8ad6801f873)
REM 
CELL 1.54180   15.00000   15.00000   15.00000   90.00000   90.00000   90.00000
LATT -1
SFAC C  
C      1  0.4971337625888  0.6922692207115  0.5472730964724 1.0
C      1  0.2862582360311  0.4373187257027  0.5610340016994 1.0
C      1  0.3517798698406  0.4640010764788  0.3952164458907 1.0
C      1  0.6535605576812  0.3540232043099  0.5558586371096 1.0
C      1  0.3131441877569  0.5506045521173  0.4355248041670 1.0
C      1  0.4038219870469  0.3337818590158  0.6009708435943 1.0
C      1  0.3996788973745  0.5259605744393  0.6398866639770 1.0
C      1  0.5809456476794  0.5958545955694  0.3089782911254 1.0
C      1  0.6567693124920  0.3735314361295  0.4658154481309 1.0
C      1  0.5948889189004  0.5522144198496  0.7064044426898 1.0
C      1  0.3613467706377  0.3726756738734  0.4419344108693 1.0
C      1  0.2785826809797  0.5235573671787  0.5179484376571 1.0
C      1  0.5077723559273  0.4226412017394  0.7043210033576 1.0
C      1  0.4842160337184  0.5058296591727  0.4800585496020 1.0
C      1  0.4478039873689  0.5015876020614  0.3955676785465 1.0
C      1  0.4599531944257  0.3563569383012  0.6581569091304 1.0
C      1  0.4255507036308  0.3375489219109  0.3774698633840 1.0
C      1  0.4582019630969  0.5202982630692  0.5679799127533 1.0
C      1  0.6821236640354  0.4607584195266  0.4228233611256 1.0
C      1  0.5113599310095  0.3166613269201  0.3977860886052 1.0
C      1  0.5226603891312  0.6656299039550  0.3393257710746 1.0
C      1  0.5715799382549  0.5020626045547  0.2969339654089 1.0
C      1  0.5495607898453  0.5414081099050  0.5411321248446 1.0
C      1  0.6816421678460  0.5368052646059  0.4777922724988 1.0
C      1  0.6494528751008  0.5147211648600  0.5683053541678 1.0
C      1  0.4413659259029  0.6720738464799  0.3857085977836 1.0
C      1  0.6225419751679  0.4407066165750  0.3469835786042 1.0
C      1  0.6083301380213  0.6478232326310  0.3822193127023 1.0
C      1  0.4360235715787  0.6818837568464  0.4829441284267 1.0
C      1  0.5984198010174  0.4503320293995  0.6934015948468 1.0
C      1  0.5948319072657  0.3537902203819  0.3900737273165 1.0
C      1  0.3441546852166  0.3644296536078  0.5348303052133 1.0
C      1  0.3091018851976  0.5132234983114  0.6093062371687 1.0
C      1  0.6429582404446  0.6269877436289  0.4648172997797 1.0
C      1  0.6292425118666  0.5919277193789  0.6292338315578 1.0
C      1  0.5095554016603  0.5801401839553  0.7402754170260 1.0
C      1  0.5811463516075  0.6405050429120  0.5485594706123 1.0
C      1  0.4756583914074  0.4879401317529  0.3065920593144 1.0
C      1  0.6461652423273  0.4264408373283  0.6128657294069 1.0
C      1  0.4552508191014  0.5072493452141  0.7210891148912 1.0
C      1  0.4082225440495  0.4214862160363  0.3173891164679 1.0
C      1  0.3672419857673  0.6349576396025  0.4292119009995 1.0
END
