TITL C-24382-6865-9 -0.952 3375.00 -146.97331434 0 0 19 (C1) n - 1
REM
REM Run started: at 2020.12.22 12:46:22 in /rds/project/t2_vol4/rds-t2-cs072/BORA/CARBON/AIRSS/Generating-Clusters/Str-Search/Only-C1/C10-100
REM VASP from code version vasp.5.4.4.18Apr17-6-g9f103f2a35 (build Oct 11 2019 16:45:47) gamma-only
REM
REM
REM
REM
REM ./C.cell (67c5d0192afd7a3ce4a0888e5fe73b87)
REM AIRSS Version 0.9.1 bugfix July 2018 build 013d7b7c2542+ Fri, 06 Jul 2018 19:26:36 +0100
REM compiler GCC version 4.8.5 20150623 (Red Hat 4.8.5-39)
REM options -cpp -mtune=generic -march=x86-64 -g -O0
REM seed 1818047333 1357847656 -2132934037 -373964193 801482937 -1532039741 2112412645 -423740464 -857161268 889423915 -954003000 -1078448925
REM
REM C.POTCAR (d86ddea03c3ceb6dc662c8ad6801f873)
REM 
CELL 1.54180   15.00000   15.00000   15.00000   90.00000   90.00000   90.00000
LATT -1
SFAC C  
C      1  0.4592390168601  0.4836060142952  0.3355889472921 1.0
C      1  0.4703551474507  0.5377146550934  0.6629253707421 1.0
C      1  0.4237472786982  0.4633073906709  0.6271291688372 1.0
C      1  0.4516523454820  0.3986452635600  0.5567560581268 1.0
C      1  0.4274030053144  0.4933438521194  0.4208038340649 1.0
C      1  0.5397925953228  0.3724439711883  0.5416176984615 1.0
C      1  0.5381263199460  0.5753675104187  0.5159432248781 1.0
C      1  0.3642797851348  0.5047923955770  0.5632736833362 1.0
C      1  0.6104820046396  0.4283061210169  0.5109900059278 1.0
C      1  0.3904118982321  0.4374872071106  0.4906830160038 1.0
C      1  0.3844170383611  0.5962784356403  0.5482565250795 1.0
C      1  0.6226531423306  0.5281526602996  0.3098009274602 1.0
C      1  0.6395589088419  0.5285052251773  0.3944238936288 1.0
C      1  0.6225912833161  0.3346366416247  0.5194400182954 1.0
C      1  0.6118430885323  0.5176963639288  0.4808738214198 1.0
C      1  0.5361614758251  0.5028948950024  0.3058946104144 1.0
C      1  0.5235564259602  0.5978702582359  0.6099782574885 1.0
C      1  0.4337009789284  0.6231080986183  0.6279098287107 1.0
C      1  0.4500283608236  0.5758430404222  0.4777111098323 1.0
END
