TITL C-24382-6865-2 -1.75 3375.00 -280.67603005 0 0 36 (C1) n - 1
REM
REM Run started: at 2020.12.22 11:05:52 in /rds/project/t2_vol4/rds-t2-cs072/BORA/CARBON/AIRSS/Generating-Clusters/Str-Search/Only-C1/C10-100
REM VASP from code version vasp.5.4.4.18Apr17-6-g9f103f2a35 (build Oct 11 2019 16:45:47) gamma-only
REM
REM
REM
REM
REM ./C.cell (67c5d0192afd7a3ce4a0888e5fe73b87)
REM AIRSS Version 0.9.1 bugfix July 2018 build 013d7b7c2542+ Fri, 06 Jul 2018 19:26:36 +0100
REM compiler GCC version 4.8.5 20150623 (Red Hat 4.8.5-39)
REM options -cpp -mtune=generic -march=x86-64 -g -O0
REM seed 1070999622 345881417 -39948715 879000826 1278857965 -792776567 -969544438 1495322973 -87575872 2110940188 1680900419 492884777
REM
REM C.POTCAR (d86ddea03c3ceb6dc662c8ad6801f873)
REM 
CELL 1.54180   15.00000   15.00000   15.00000   90.00000   90.00000   90.00000
LATT -1
SFAC C  
C      1  0.5067484566314  0.5486670019401  0.4933592130153 1.0
C      1  0.6726030525336  0.3694490065524  0.5570306252695 1.0
C      1  0.5060534665057  0.3895650668629  0.6738762802450 1.0
C      1  0.6692904173532  0.4590873404517  0.5377915968391 1.0
C      1  0.6257447185551  0.3141635611156  0.5978603531850 1.0
C      1  0.6107876005990  0.5106256716077  0.5985034312913 1.0
C      1  0.4582783132253  0.6234938716451  0.6247474928747 1.0
C      1  0.5381503451912  0.3108929312529  0.6285098902364 1.0
C      1  0.6715349986963  0.6096859141443  0.4846964270764 1.0
C      1  0.4991717569524  0.4697059021711  0.3160683045351 1.0
C      1  0.4219119847705  0.4393540540031  0.3262864922549 1.0
C      1  0.4642868027479  0.5428630501611  0.6632369970699 1.0
C      1  0.3933012490242  0.4048529501346  0.4831507928140 1.0
C      1  0.4484775631933  0.4837322890862  0.5026905234725 1.0
C      1  0.6867138547359  0.5127314521404  0.4591233386404 1.0
C      1  0.3684991009475  0.6812448084683  0.4624356723519 1.0
C      1  0.5662704390856  0.6288316800027  0.3323860068875 1.0
C      1  0.2973918136126  0.5334056938240  0.4818207394007 1.0
C      1  0.6860862713566  0.6891132286333  0.4354316296053 1.0
C      1  0.5445231427297  0.4829630008445  0.6603728122153 1.0
C      1  0.4181495827608  0.3143117594157  0.5087493755450 1.0
C      1  0.5012241066910  0.6381868261373  0.5419172344741 1.0
C      1  0.3571979627784  0.4803377681764  0.5465468275594 1.0
C      1  0.2824633984354  0.4934079712777  0.3973971028070 1.0
C      1  0.6560796064317  0.5295385137417  0.3707969972668 1.0
C      1  0.4734543081881  0.2720228673869  0.5678632056100 1.0
C      1  0.4621325935081  0.6861976044176  0.4547996294123 1.0
C      1  0.3543227650530  0.4332798977434  0.3908706911809 1.0
C      1  0.4117295230648  0.3945311165913  0.6715847232390 1.0
C      1  0.5036091443619  0.6794682183422  0.3742540270368 1.0
C      1  0.5700948287834  0.5274615562008  0.3249201958599 1.0
C      1  0.6591163384203  0.6320295595768  0.3645894821775 1.0
C      1  0.5901658804723  0.5893590034046  0.5378291123039 1.0
C      1  0.3093376022648  0.6265951590879  0.4843986727302 1.0
C      1  0.3866896287875  0.4788138050337  0.6427637331881 1.0
C      1  0.4284076815515  0.2200299984238  0.5013404703290 1.0
END
