TITL C-24385-1065-7 -7.862 3375.00 -1341.92292428 0 0 165 (C1) n - 1
REM
REM Run started: at 2020.12.06 19:06:56 in /rds/project/t2_vol4/rds-t2-cs072/BORA/CARBON/AIRSS/Generating-Clusters/Str-Search/Only-C1/C100-200
REM VASP from code version vasp.5.4.4.18Apr17-6-g9f103f2a35 (build Oct 11 2019 16:45:47) gamma-only
REM
REM
REM
REM
REM ./C.cell (efaf0b2bf1589a83377268d7ebe2c73f)
REM AIRSS Version 0.9.1 bugfix July 2018 build 013d7b7c2542+ Fri, 06 Jul 2018 19:26:36 +0100
REM compiler GCC version 4.8.5 20150623 (Red Hat 4.8.5-39)
REM options -cpp -mtune=generic -march=x86-64 -g -O0
REM seed 1196415934 612437510 -1953360589 1940071225 -262813478 -1707772569 -484488738 -402120330 -1231194968 -1123859325 -202773922 -798844923
REM
REM C.POTCAR (d86ddea03c3ceb6dc662c8ad6801f873)
REM 
CELL 1.54180   15.00000   15.00000   15.00000   90.00000   90.00000   90.00000
LATT -1
SFAC C  
C      1  0.1019391090070  0.6124852352653  0.4096498175445 1.0
C      1  0.8490966128263  0.4042861724362  0.6517802453774 1.0
C      1  0.1225783616779  0.6734705745222  0.3520751179583 1.0
C      1  0.8257288020579  0.3129747430308  0.6470724510156 1.0
C      1  0.5480604914686  0.7132558437403  0.4538479542914 1.0
C      1  0.6649125890712  0.2976217912671  0.1991173978015 1.0
C      1  0.3469888516080  0.3438817035422  0.7584646490043 1.0
C      1  0.7336137008335  0.6832392439695  0.6891951719444 1.0
C      1  0.2691985477571  0.7273362803095  0.3016982694647 1.0
C      1  0.3494066306209  0.4972407741294  0.1035895370624 1.0
C      1  0.8327177749541  0.5527379043951  0.2821373925303 1.0
C      1  0.1281507726799  0.6025068020905  0.4965089233122 1.0
C      1  0.4129827256073  0.3590787133893  0.8333363233455 1.0
C      1  0.5880118582013  0.7356368444175  0.3736743204854 1.0
C      1  0.1683759330907  0.6511779681141  0.6359714918004 1.0
C      1  0.2581938920906  0.8365459133069  0.5480769583524 1.0
C      1  0.8670100388783  0.5143582941163  0.4505940566126 1.0
C      1  0.7198836055623  0.7551381044278  0.6200860207868 1.0
C      1  0.4892883222231  0.3772366976215  0.4144321115314 1.0
C      1  0.1657903184033  0.3986055077160  0.3666798905723 1.0
C      1  0.6900551607350  0.4021997778458  0.8271536497815 1.0
C      1  0.4600881409129  0.6803284509544  0.6705742273266 1.0
C      1  0.8203894922897  0.4376265138956  0.4855284617898 1.0
C      1  0.2241055357433  0.2791169547618  0.5926985872596 1.0
C      1  0.5500844874588  0.6593471302346  0.2458944494772 1.0
C      1  0.5145615739977  0.1172703096279  0.6044658348600 1.0
C      1  0.5407030171976  0.3702849592045  0.3203116601048 1.0
C      1  0.2571212013226  0.4665884299170  0.7836773437375 1.0
C      1  0.3636392770227  0.1930579274267  0.5383780918200 1.0
C      1  0.5564654065557  0.6267617867590  0.4969846278228 1.0
C      1  0.2824020880494  0.5078067356523  0.3987176259483 1.0
C      1  0.5357788089835  0.8779198310154  0.4952230444248 1.0
C      1  0.4035371269281  0.3211138261638  0.4062865882189 1.0
C      1  0.3020595433554  0.6765086788399  0.5326339609111 1.0
C      1  0.6983089536258  0.2294975315005  0.6985321353194 1.0
C      1  0.5987910236032  0.6246220905651  0.5804629258011 1.0
C      1  0.5518459698809  0.6061856535184  0.8412353898216 1.0
C      1  0.4311355941054  0.3687666411239  0.1829653032830 1.0
C      1  0.5610539962776  0.3488871914987  0.4859007859383 1.0
C      1  0.6780073427932  0.2881344136500  0.2802630931856 1.0
C      1  0.6328720174080  0.6683864540347  0.3086297263226 1.0
C      1  0.3271639050559  0.6162566849231  0.7333084058510 1.0
C      1  0.8573461397714  0.7707379150717  0.5234523001367 1.0
C      1  0.4030328040115  0.5815480945857  0.0958463889117 1.0
C      1  0.3551667012937  0.8375189168758  0.5631996668692 1.0
C      1  0.7673737306199  0.3709751243417  0.7793772787081 1.0
C      1  0.2905401393545  0.5120151685736  0.1753930693162 1.0
C      1  0.5920644564110  0.3422410694992  0.1578908878711 1.0
C      1  0.3749201701738  0.2975538811993  0.3136494893560 1.0
C      1  0.4153034274928  0.7285160952183  0.1815477261111 1.0
C      1  0.7547724479501  0.3261594466575  0.5717184798197 1.0
C      1  0.8592754965999  0.6139848201887  0.5920889593095 1.0
C      1  0.3983041747831  0.6074187724953  0.3373192115096 1.0
C      1  0.4512834052227  0.3885544434643  0.6074574615118 1.0
C      1  0.6171186290940  0.4356834027790  0.3329264033172 1.0
C      1  0.3819496087472  0.5152064973118  0.3775459416899 1.0
C      1  0.4487760742271  0.4417497225002  0.8606314791123 1.0
C      1  0.5534624415554  0.8895691171628  0.4071350562074 1.0
C      1  0.4959992929484  0.7822170680866  0.5112531729638 1.0
C      1  0.5537822164902  0.8245073129810  0.3417393391462 1.0
C      1  0.6088140157924  0.6766558586318  0.8091444220464 1.0
C      1  0.3383582465048  0.7946049020709  0.3193310085046 1.0
C      1  0.5595658432523  0.5463695793785  0.6284089322921 1.0
C      1  0.4109080737575  0.6677926966735  0.7602652195853 1.0
C      1  0.3308185186831  0.5280633196128  0.7804375704849 1.0
C      1  0.7201348767165  0.5594852479208  0.7804783281651 1.0
C      1  0.3101287953820  0.6395694679059  0.2908644373516 1.0
C      1  0.4766681913917  0.5245066791997  0.1327019415552 1.0
C      1  0.3372413592375  0.8120592780582  0.4116340715342 1.0
C      1  0.3635867182562  0.3749231498113  0.2538274788399 1.0
C      1  0.4063519555332  0.7967811910937  0.2538330975137 1.0
C      1  0.1862684079332  0.5590933331708  0.6385647871236 1.0
C      1  0.2980207197373  0.6058336182096  0.2007929567241 1.0
C      1  0.6601044418712  0.6871347599834  0.6148692964513 1.0
C      1  0.2344371891516  0.4546448466898  0.3376613041825 1.0
C      1  0.5802626339420  0.4015076853613  0.0913426879596 1.0
C      1  0.4559102537404  0.6091870623674  0.8268229878497 1.0
C      1  0.4079845885359  0.5273418999043  0.8413044664130 1.0
C      1  0.5173812039443  0.0614902551909  0.4489224563233 1.0
C      1  0.4001561207082  0.8101571520460  0.4850743576504 1.0
C      1  0.5011101117634  0.8140317734198  0.2625835790266 1.0
C      1  0.7962621286861  0.3719276486445  0.4225480090478 1.0
C      1  0.8048692494637  0.5331094905222  0.7396925625832 1.0
C      1  0.8167964724920  0.4169851499932  0.3378435596521 1.0
C      1  0.7754847465512  0.2888649456109  0.7278606452168 1.0
C      1  0.6389080703437  0.3206198879861  0.4475510067459 1.0
C      1  0.7369762511707  0.2989328688896  0.4740521397817 1.0
C      1  0.7153585613178  0.1490295017322  0.5543679367632 1.0
C      1  0.4062363537277  0.4544010713584  0.5467239096463 1.0
C      1  0.3654393468378  0.6535633344152  0.1469684164892 1.0
C      1  0.8040045952826  0.6411348476699  0.2704338138888 1.0
C      1  0.3811778808562  0.5409349731246  0.6862342168222 1.0
C      1  0.5959492193073  0.2376845323196  0.7190213942888 1.0
C      1  0.3660414245519  0.2615838437599  0.4757119555689 1.0
C      1  0.7847486231587  0.7876625155587  0.5631021042069 1.0
C      1  0.1532939824857  0.6833338626437  0.5488619304074 1.0
C      1  0.4077993181042  0.3511620073205  0.6775075341273 1.0
C      1  0.4030704531530  0.2645756390685  0.7327138222808 1.0
C      1  0.4620391201360  0.5208703293111  0.2333653386392 1.0
C      1  0.7247624718765  0.6902042607562  0.2742452666461 1.0
C      1  0.4257883641552  0.8420430788955  0.6338081402694 1.0
C      1  0.2606632249150  0.3857268979117  0.7656408162059 1.0
C      1  0.5957780709572  0.5168452267500  0.3901447346587 1.0
C      1  0.3090402978805  0.4199499392558  0.5275295359938 1.0
C      1  0.7689598886861  0.4763392802698  0.2776556680301 1.0
C      1  0.6779547353680  0.1453408171071  0.6432319876043 1.0
C      1  0.3716625614965  0.2009558382598  0.6686226568705 1.0
C      1  0.4661687924992  0.2845666719984  0.8087084838856 1.0
C      1  0.4817712549615  0.5969355698675  0.2782531523993 1.0
C      1  0.3280317026118  0.3445148646808  0.4656660375147 1.0
C      1  0.3901814352761  0.4693922212983  0.2864643089243 1.0
C      1  0.4201137856573  0.4254888151694  0.1048074885715 1.0
C      1  0.1786821830550  0.7270635604759  0.3145634785221 1.0
C      1  0.2286886925802  0.3750289992781  0.5803219629633 1.0
C      1  0.3237129044091  0.5910435407437  0.5339760541260 1.0
C      1  0.1500685882706  0.2516219475541  0.5419837407212 1.0
C      1  0.8041382248523  0.7371440333697  0.2585450791732 1.0
C      1  0.5892369397290  0.5201459605010  0.8615649805319 1.0
C      1  0.2420682916692  0.6206873429671  0.6856975970418 1.0
C      1  0.5331651104100  0.5378232675194  0.4534843454480 1.0
C      1  0.6804155263584  0.2973414866578  0.6261581529157 1.0
C      1  0.8793253413959  0.6795700633835  0.5296614109308 1.0
C      1  0.1572999182644  0.4217249004055  0.5317102842776 1.0
C      1  0.6973356212924  0.4744628188576  0.6098549980232 1.0
C      1  0.5241178040533  0.9491876527283  0.5635893754963 1.0
C      1  0.5158851645002  0.3520538911357  0.2214212422540 1.0
C      1  0.8015418323215  0.6046480060796  0.6678535846275 1.0
C      1  0.7790442467334  0.4247604791012  0.5748474434326 1.0
C      1  0.1287945094957  0.3755529630345  0.4494734066814 1.0
C      1  0.5091397035527  0.7322910381359  0.2054455094775 1.0
C      1  0.4296856853900  0.1560693644614  0.6014335941319 1.0
C      1  0.8806581140340  0.5886314197694  0.5046627128053 1.0
C      1  0.6333082471617  0.3356086262552  0.3512697912734 1.0
C      1  0.1039512087233  0.2879744790501  0.4811377438520 1.0
C      1  0.5424923090915  0.4377914478092  0.8690185466382 1.0
C      1  0.2294144263935  0.7414955112980  0.5224475342318 1.0
C      1  0.4677753321861  0.5798222489898  0.6471795197613 1.0
C      1  0.6771045439137  0.4965442476995  0.8365177206850 1.0
C      1  0.5470769609407  0.3739066849056  0.5849106997352 1.0
C      1  0.8664038697549  0.5023524551519  0.3566558046925 1.0
C      1  0.7231863735897  0.5387487566196  0.6719808333003 1.0
C      1  0.6897540034536  0.6549869415959  0.7753369357991 1.0
C      1  0.5851378465506  0.1456920401878  0.6651857857326 1.0
C      1  0.2675536811109  0.5144652082920  0.4952463288208 1.0
C      1  0.4736552945268  0.9172358209895  0.6320353391883 1.0
C      1  0.3933837775439  0.2116151334812  0.2924182090511 1.0
C      1  0.4539597089566  0.4728767612327  0.4509968941455 1.0
C      1  0.5109488085622  0.4543426089535  0.0745793579545 1.0
C      1  0.5304262780885  0.0435997118331  0.5365416263681 1.0
C      1  0.4335788876359  0.1448971428493  0.3274129319202 1.0
C      1  0.5597550611392  0.2850459309177  0.8021368365129 1.0
C      1  0.6462361533155  0.5718458207345  0.3335481078896 1.0
C      1  0.8281909876127  0.4393749401034  0.7379085829893 1.0
C      1  0.6007948135188  0.4638215914419  0.6070694703372 1.0
C      1  0.5945730033972  0.3076710307965  0.6405600178999 1.0
C      1  0.3002210548218  0.2188081918729  0.6099851098182 1.0
C      1  0.2936321994997  0.4492122171034  0.2528082355148 1.0
C      1  0.2502939737307  0.8155920273228  0.4577311253031 1.0
C      1  0.6003222747925  0.3629436179628  0.8410876473917 1.0
C      1  0.3893930752246  0.5430724931751  0.5897091264449 1.0
C      1  0.7408267853192  0.1985954219354  0.4924601262103 1.0
C      1  0.6771674058475  0.4947650655383  0.2821563957374 1.0
C      1  0.4814685533521  0.0957140203242  0.3799189452990 1.0
C      1  0.1718882331677  0.5207560916355  0.5416732082571 1.0
C      1  0.4710057562397  0.7544185330195  0.6179362146886 1.0
END
