TITL C-24382-6865-31 -3.538 3375.00 -613.08882635 0 0 76 (C1) n - 1
REM
REM Run started: at 2020.12.22 20:14:24 in /rds/project/t2_vol4/rds-t2-cs072/BORA/CARBON/AIRSS/Generating-Clusters/Str-Search/Only-C1/C10-100
REM VASP from code version vasp.5.4.4.18Apr17-6-g9f103f2a35 (build Oct 11 2019 16:45:47) gamma-only
REM
REM
REM
REM
REM ./C.cell (67c5d0192afd7a3ce4a0888e5fe73b87)
REM AIRSS Version 0.9.1 bugfix July 2018 build 013d7b7c2542+ Fri, 06 Jul 2018 19:26:36 +0100
REM compiler GCC version 4.8.5 20150623 (Red Hat 4.8.5-39)
REM options -cpp -mtune=generic -march=x86-64 -g -O0
REM seed 1176871465 -1277193857 -448611127 1090000359 -2059288234 -725209281 -68103733 1168046639 1692605737 1425473462 -1130190825 2021037137
REM
REM C.POTCAR (d86ddea03c3ceb6dc662c8ad6801f873)
REM 
CELL 1.54180   15.00000   15.00000   15.00000   90.00000   90.00000   90.00000
LATT -1
SFAC C  
C      1  0.5029670559594  0.6789137098459  0.2715183409657 1.0
C      1  0.3259839240813  0.6666184757004  0.6323859126083 1.0
C      1  0.6522814414916  0.4609627587087  0.4551000771456 1.0
C      1  0.3498612300527  0.2148337953723  0.5456207846305 1.0
C      1  0.3946818158807  0.5522095612651  0.5023345939771 1.0
C      1  0.2470533749480  0.4972608078176  0.4594692877261 1.0
C      1  0.2858487464553  0.4330451919369  0.3972436676079 1.0
C      1  0.4281689524439  0.6889885400870  0.3352283318367 1.0
C      1  0.3635328090988  0.4655139181165  0.3341800989221 1.0
C      1  0.6355818887881  0.4202365188619  0.6995037472559 1.0
C      1  0.7053448592288  0.4119786456855  0.6302121468566 1.0
C      1  0.6981741986900  0.3231216936552  0.5904401321339 1.0
C      1  0.4878659862331  0.4861405202263  0.7313370141706 1.0
C      1  0.6306978800225  0.2565822939839  0.6033928837711 1.0
C      1  0.4222271064402  0.5511260054396  0.6835687315972 1.0
C      1  0.2703756489463  0.6141354566654  0.5677247224776 1.0
C      1  0.5562117211295  0.2668864483586  0.6612185963514 1.0
C      1  0.4915568498680  0.4065245830030  0.6670648907490 1.0
C      1  0.3795104679819  0.6097228839630  0.3361868036724 1.0
C      1  0.5615887963003  0.2167384754236  0.2822119465895 1.0
C      1  0.5603133822080  0.3131390095399  0.2838768632966 1.0
C      1  0.5841258776004  0.6619508481198  0.3204766918061 1.0
C      1  0.5003078063001  0.4020292991515  0.4946580282972 1.0
C      1  0.3184408724461  0.3506065458440  0.4280400242145 1.0
C      1  0.3698742833207  0.5414324771903  0.2688052059202 1.0
C      1  0.5897328434197  0.6566474789707  0.5083251479955 1.0
C      1  0.7573645661010  0.5611246980259  0.4055074235129 1.0
C      1  0.7145763109781  0.5699152333681  0.3340027868289 1.0
C      1  0.7305014158623  0.4946705916496  0.5913956247981 1.0
C      1  0.6627414629110  0.2944881211744  0.4230663169859 1.0
C      1  0.5506550259782  0.6409183425883  0.4150059233947 1.0
C      1  0.6717646202985  0.2696855673946  0.5180578746734 1.0
C      1  0.5200874100578  0.4744903873337  0.2184891816789 1.0
C      1  0.6143380719189  0.2681093431223  0.3427184258333 1.0
C      1  0.5038460082704  0.6123940565562  0.2045963327873 1.0
C      1  0.5893396719816  0.5031191744854  0.7294866868328 1.0
C      1  0.4648723455227  0.7016368351846  0.4282372733380 1.0
C      1  0.6844980291447  0.5734286169130  0.6260003350051 1.0
C      1  0.5830278684836  0.7589520247407  0.5198930492860 1.0
C      1  0.3150036981461  0.4507314738391  0.6154172464001 1.0
C      1  0.3069588558655  0.5198861258087  0.5426817957230 1.0
C      1  0.5943835604976  0.7992415340604  0.6063957347904 1.0
C      1  0.6677356681926  0.6071325234954  0.5405952298227 1.0
C      1  0.6366392527052  0.7467654929788  0.6728867133243 1.0
C      1  0.5138224174645  0.5442968671654  0.4092164073218 1.0
C      1  0.4430537743646  0.5389335062911  0.2107444052761 1.0
C      1  0.4603650656189  0.2504082904216  0.6605016836301 1.0
C      1  0.4642842278347  0.5378700494871  0.5792585071497 1.0
C      1  0.6421116611405  0.5935193598134  0.2803567022462 1.0
C      1  0.4891554346128  0.6908212510958  0.6463786706713 1.0
C      1  0.6755304366323  0.3832282995923  0.4237287851239 1.0
C      1  0.5000899246621  0.6328114442464  0.5636822241735 1.0
C      1  0.4405087425090  0.3351768610154  0.4677943572510 1.0
C      1  0.5822732680949  0.6766809157422  0.6954190752297 1.0
C      1  0.3310731334299  0.6909928546206  0.5426847876583 1.0
C      1  0.5819907603182  0.5504934885231  0.2169249108654 1.0
C      1  0.4980547394816  0.4455444011742  0.5779314714318 1.0
C      1  0.3437064746198  0.3633171474915  0.6039246437917 1.0
C      1  0.4017075581768  0.4206380818960  0.7457129014454 1.0
C      1  0.3509555320291  0.3124994391110  0.5177743697590 1.0
C      1  0.4971057691501  0.7835293491034  0.4838192595020 1.0
C      1  0.4123039567558  0.5373156940049  0.4048779420242 1.0
C      1  0.3489889458335  0.4840453205431  0.6981158475598 1.0
C      1  0.4167755767655  0.6551018634438  0.5036707866562 1.0
C      1  0.5010453698653  0.7792150295198  0.5884248625418 1.0
C      1  0.5544268893933  0.4700427888586  0.4431830802511 1.0
C      1  0.4039036067685  0.6487365776330  0.6841154743773 1.0
C      1  0.4221467793997  0.3868252557945  0.3112659404230 1.0
C      1  0.5044314587140  0.3914026156653  0.2643913100874 1.0
C      1  0.4119547570811  0.1999707451255  0.6010372221485 1.0
C      1  0.7148876400690  0.5308935787692  0.4912889717633 1.0
C      1  0.6227845988368  0.5859347043559  0.7013780877228 1.0
C      1  0.4094614359939  0.3397835689135  0.6768677118962 1.0
C      1  0.2095022268528  0.5644308894909  0.5036667364137 1.0
C      1  0.5694304505389  0.3543265507793  0.6960638591207 1.0
C      1  0.4015236247410  0.3271768246601  0.3812407768961 1.0
END
