TITL C-25374-6139-26 -0.948 3375.00 -139.52711411 0 0 18 (C1) n - 1
REM
REM Run started: at 2020.12.22 19:45:47 in /rds/project/t2_vol4/rds-t2-cs072/BORA/CARBON/AIRSS/Generating-Clusters/Str-Search/Only-C1/C10-100
REM VASP from code version vasp.5.4.4.18Apr17-6-g9f103f2a35 (build Oct 11 2019 16:45:47) gamma-only
REM
REM
REM
REM
REM ./C.cell (67c5d0192afd7a3ce4a0888e5fe73b87)
REM AIRSS Version 0.9.1 bugfix July 2018 build 013d7b7c2542+ Fri, 06 Jul 2018 19:26:36 +0100
REM compiler GCC version 4.8.5 20150623 (Red Hat 4.8.5-39)
REM options -cpp -mtune=generic -march=x86-64 -g -O0
REM seed 1641514717 -453535927 -1362873656 1293709550 2022222790 1102479303 1305501776 1978709556 -2095287592 -1850640970 1343540913 -1754511890
REM
REM C.POTCAR (d86ddea03c3ceb6dc662c8ad6801f873)
REM 
CELL 1.54180   15.00000   15.00000   15.00000   90.00000   90.00000   90.00000
LATT -1
SFAC C  
C      1  0.6741051954821  0.5585926267338  0.4735751503664 1.0
C      1  0.5292450897978  0.5131815078647  0.6405057822940 1.0
C      1  0.5011826092129  0.3494065190586  0.5083854704191 1.0
C      1  0.4211231120984  0.3861568565174  0.4712744090012 1.0
C      1  0.4523221295432  0.5447819818813  0.6369620744226 1.0
C      1  0.4338189882363  0.4714182917222  0.4237911750140 1.0
C      1  0.5041440285048  0.4837726304069  0.3650833136229 1.0
C      1  0.4133729055478  0.5553122271554  0.4792317803513 1.0
C      1  0.6523832609497  0.5117430360333  0.5402501053841 1.0
C      1  0.5956112498327  0.4628547523096  0.5938220578611 1.0
C      1  0.4706850659312  0.6251330661874  0.4593951140874 1.0
C      1  0.6127473626001  0.5857733782569  0.4093037489833 1.0
C      1  0.3829430905124  0.5384446972769  0.5711689767128 1.0
C      1  0.5444214374336  0.6499635499755  0.4287655590850 1.0
C      1  0.3464695621324  0.3931557134335  0.5266445442909 1.0
C      1  0.3293659522692  0.4622416239691  0.5712814353698 1.0
C      1  0.5618871637333  0.3827223698328  0.5545843198453 1.0
C      1  0.5741717961821  0.5253450713848  0.3459749828888 1.0
END
