TITL C-25249-492-17 -6.837 3375.00 -1194.98320734 0 0 145 () n - 1
REM
REM Run started: at 2020.12.25 13:47:20 in /gpfs/home/chem/mssmkc/CARBON/AIRSS/Generating-Clusters/Str-Search/Only-C1/C100-200
REM VASP from code version vasp.5.4.4.18Apr17-6-g9f103f2a35 (build Oct 11 2019 16:45:47) gamma-only
REM
REM
REM
REM
REM ./C.cell (efaf0b2bf1589a83377268d7ebe2c73f)
REM AIRSS Version 0.9.1 bugfix July 2018 build 013d7b7c2542+ Fri, 06 Jul 2018 19:26:36 +0100
REM compiler GCC version 6.3.0
REM options -cpp -iprefix /gpfs/warwick/csc/orac/software/Core/GCCcore/6.3.0/bin/../lib/gcc/x86_64-pc-linux-gnu/6.3.0/ -mtune=generic -march=x86-64 -g -O0
REM seed 487746436 1083473466 -2012566578 -199880114 1652299013 622954390 -1614911455 -2012216188 345012750 -693149419 -607554251 -1102592704
REM
REM C.POTCAR (d86ddea03c3ceb6dc662c8ad6801f873)
REM 
CELL 1.54180   15.00000   15.00000   15.00000   90.00000   90.00000   90.00000
LATT -1
SFAC C  
C      1  0.4446794372164  0.1746644640166  0.6153483936119 1.0
C      1  0.7067606531912  0.4981422594636  0.2681332535497 1.0
C      1  0.8376625241826  0.6189494707983  0.4869813178652 1.0
C      1  0.6854908403005  0.5577993827362  0.6282497269176 1.0
C      1  0.8179887720582  0.5817520347567  0.3390992417714 1.0
C      1  0.2091814416769  0.3113804591297  0.6108692645047 1.0
C      1  0.5546085704967  0.6629690654987  0.2397511987966 1.0
C      1  0.4095191619734  0.3407115487773  0.4840995844470 1.0
C      1  0.6181959934481  0.7982029076239  0.4267873137496 1.0
C      1  0.2410334411456  0.3903602092714  0.6677607587898 1.0
C      1  0.6903648466183  0.5058557286781  0.5359471615610 1.0
C      1  0.3142391593915  0.4417280199682  0.4500875202760 1.0
C      1  0.4079843573868  0.3980578183752  0.1836239406188 1.0
C      1  0.4635242009016  0.6720269868441  0.2702923762653 1.0
C      1  0.5173368534271  0.2192871704074  0.3785831287319 1.0
C      1  0.2890672874782  0.2634413419941  0.5680602933232 1.0
C      1  0.4647576305769  0.1613556666824  0.3319868635406 1.0
C      1  0.3938126445366  0.1366354955718  0.3813177420824 1.0
C      1  0.7310446111333  0.2996428372577  0.6723823478919 1.0
C      1  0.3232765639995  0.4985751342859  0.6468814693959 1.0
C      1  0.3402700001329  0.6676794312734  0.3728517849587 1.0
C      1  0.6018844881413  0.5025502264414  0.2742344171116 1.0
C      1  0.4063119560744  0.3579380301519  0.2711799299694 1.0
C      1  0.5554872681679  0.5729953595350  0.2106900135376 1.0
C      1  0.2219043320128  0.6856744814628  0.6994293808379 1.0
C      1  0.4889513593851  0.3921197262136  0.3144442183037 1.0
C      1  0.6861410373130  0.3960345513340  0.1417171138183 1.0
C      1  0.5086909586957  0.2294246902618  0.7546201824955 1.0
C      1  0.4992782015633  0.8304916563134  0.3243573098149 1.0
C      1  0.5386992518308  0.5037024564386  0.5841068370174 1.0
C      1  0.3261205384765  0.3382976584818  0.4237756517706 1.0
C      1  0.4348746469914  0.3711951471453  0.8172352071040 1.0
C      1  0.3435144767279  0.4656192883080  0.1594984518739 1.0
C      1  0.2767273797766  0.7007067104391  0.4466920909858 1.0
C      1  0.7126301914554  0.2285708217717  0.5185376796577 1.0
C      1  0.5877850292547  0.6638728035507  0.5656790503785 1.0
C      1  0.5839920109487  0.6216211856628  0.4751497532946 1.0
C      1  0.1723535033203  0.4921037266629  0.4460523976969 1.0
C      1  0.3698290669783  0.2312366705298  0.6134405107995 1.0
C      1  0.6115099005816  0.4505983883692  0.5528229741404 1.0
C      1  0.1432508135060  0.6100720967421  0.5622387090616 1.0
C      1  0.3436220785815  0.7446225553510  0.2990370506832 1.0
C      1  0.2547946822117  0.4884064234248  0.3780131455093 1.0
C      1  0.3873843826294  0.7989464257088  0.5230240423368 1.0
C      1  0.5544697814216  0.6321807372288  0.7994995019887 1.0
C      1  0.5846884134566  0.7892768099395  0.3376156438655 1.0
C      1  0.1743607912664  0.5502276867528  0.6280768580030 1.0
C      1  0.4912378752996  0.4489847613976  0.3883642498130 1.0
C      1  0.7341214807702  0.6435949345217  0.6378458925987 1.0
C      1  0.5639010206675  0.7954386872132  0.6637755559741 1.0
C      1  0.6512222677245  0.6100313324650  0.7975798721166 1.0
C      1  0.3935206121881  0.5617620317766  0.6131223953887 1.0
C      1  0.3697790923741  0.5768084969271  0.7757225069452 1.0
C      1  0.3358217640159  0.6165704068532  0.1896921046907 1.0
C      1  0.5574558597600  0.4151320986027  0.2419727669197 1.0
C      1  0.6916335343766  0.6720264888967  0.7329847738138 1.0
C      1  0.4743474336400  0.1280959257525  0.5364224066431 1.0
C      1  0.3556837740082  0.3822458690101  0.7604268459730 1.0
C      1  0.4432679327545  0.6474907435470  0.3609756626833 1.0
C      1  0.7541999051947  0.4327356337885  0.3487160063807 1.0
C      1  0.6492065204823  0.5109827204127  0.8137414739756 1.0
C      1  0.7083731122597  0.7645801377020  0.4437528901838 1.0
C      1  0.4037265980045  0.1125260195275  0.4732046846145 1.0
C      1  0.3286503200768  0.1677802503833  0.4432349246554 1.0
C      1  0.8261896279632  0.6564560474137  0.3991408658555 1.0
C      1  0.5205762504508  0.6070873317584  0.4063395891263 1.0
C      1  0.3721852266148  0.3261606913701  0.5845605786140 1.0
C      1  0.6204162989847  0.7134259560503  0.2848904394941 1.0
C      1  0.5669185860525  0.5188577387358  0.3761133417821 1.0
C      1  0.4728567839626  0.2834141498900  0.8201137377830 1.0
C      1  0.6413950084492  0.1781815571141  0.4726057847707 1.0
C      1  0.7542463708496  0.3057908434774  0.4727117107885 1.0
C      1  0.2138027530013  0.5920796506455  0.7095490087724 1.0
C      1  0.6965364148232  0.3484006963455  0.7538899762608 1.0
C      1  0.7936033942177  0.3532737258094  0.6260223487563 1.0
C      1  0.6497084065538  0.2842716635188  0.2528156484914 1.0
C      1  0.2337823401443  0.4758459282020  0.6070600055024 1.0
C      1  0.2042045289581  0.6753088761900  0.6042166381089 1.0
C      1  0.3465298189580  0.3924321037896  0.6603705826579 1.0
C      1  0.6029815600407  0.1810793510465  0.6207163117226 1.0
C      1  0.5512372993039  0.8164601566335  0.5008152933164 1.0
C      1  0.4045381572295  0.8142952472720  0.3230547220309 1.0
C      1  0.3785525559380  0.6907110042392  0.2266189197972 1.0
C      1  0.4858113945913  0.6425158517050  0.8598464439107 1.0
C      1  0.2393785889789  0.4568845898157  0.5139874946020 1.0
C      1  0.3726056389003  0.6563198792885  0.5815951643506 1.0
C      1  0.4313543425369  0.7287249932471  0.5702072069851 1.0
C      1  0.4959086251924  0.4352019481694  0.8463928195136 1.0
C      1  0.5501510525348  0.3074581321633  0.5044054088062 1.0
C      1  0.6166155082932  0.2133864166160  0.3911798430281 1.0
C      1  0.7198833761445  0.4642401201771  0.1753208651126 1.0
C      1  0.4843842378996  0.2781611921174  0.4528801449115 1.0
C      1  0.2868840020296  0.5293769047647  0.7434366977971 1.0
C      1  0.4843604452781  0.5322088896362  0.1595028267188 1.0
C      1  0.3274506806528  0.3561506410139  0.3232548694940 1.0
C      1  0.5756193254922  0.1433941821195  0.5377996185839 1.0
C      1  0.5214008338644  0.1963528015871  0.6713446127559 1.0
C      1  0.6697018531136  0.2774362075885  0.3398075486856 1.0
C      1  0.8387949343140  0.5210727918211  0.4756202980701 1.0
C      1  0.4233097937084  0.4461424230332  0.4699458253299 1.0
C      1  0.5802631213506  0.5818036917209  0.6329585857413 1.0
C      1  0.2632208531020  0.5905068951166  0.3438693931866 1.0
C      1  0.5217135109424  0.8957421706036  0.5523400418969 1.0
C      1  0.7884245535903  0.4643602685630  0.5367903518051 1.0
C      1  0.5699017639662  0.4739386196578  0.8498367622920 1.0
C      1  0.6417845577222  0.3051624770167  0.8129349613845 1.0
C      1  0.2702766119414  0.4266712370201  0.7629548531221 1.0
C      1  0.5334558379540  0.8784536612881  0.6409049656442 1.0
C      1  0.2912877360767  0.2492673973062  0.4684231731750 1.0
C      1  0.4336819846205  0.5810450769931  0.7041494734667 1.0
C      1  0.7968118178382  0.6703201981939  0.5573131603689 1.0
C      1  0.7975526292331  0.4491056241524  0.6359850741966 1.0
C      1  0.4545664779013  0.8608030061289  0.4848412269386 1.0
C      1  0.7946587594629  0.3631845671293  0.5316259856906 1.0
C      1  0.1541040116425  0.5878556662543  0.4685488128162 1.0
C      1  0.7347059968101  0.4904746847676  0.6854802090315 1.0
C      1  0.5669408201067  0.2644398069935  0.8271013476229 1.0
C      1  0.1509898932430  0.3392859570240  0.5461345012638 1.0
C      1  0.7441519180232  0.5906913602532  0.2853965331497 1.0
C      1  0.7003509151732  0.4472157156235  0.7612441849204 1.0
C      1  0.6379274207272  0.5465310745187  0.4559545230361 1.0
C      1  0.5992316132478  0.3654547249558  0.5339449757043 1.0
C      1  0.4536821974157  0.5037088924691  0.5516112159027 1.0
C      1  0.7303951150393  0.3427196597837  0.3826134194842 1.0
C      1  0.4918100162293  0.4398214486094  0.1732381283973 1.0
C      1  0.2041159408842  0.6413713534615  0.4115708080396 1.0
C      1  0.3883239940339  0.5486683995664  0.1443276861274 1.0
C      1  0.6893296786820  0.2317178930279  0.6139214617304 1.0
C      1  0.2680341986779  0.4277343471936  0.2999108456325 1.0
C      1  0.6261872053879  0.3499224426215  0.2009656245944 1.0
C      1  0.7372425301426  0.7401767978433  0.5308987686524 1.0
C      1  0.4053904339870  0.6190452283346  0.8491826538855 1.0
C      1  0.4436100172866  0.8699557672230  0.3880643058493 1.0
C      1  0.6726456052361  0.7118580947985  0.5992838891423 1.0
C      1  0.2659067031686  0.5748517790365  0.2425687590161 1.0
C      1  0.8191315392628  0.4974135159163  0.3859553523510 1.0
C      1  0.2865596752085  0.6900252977279  0.5512071060722 1.0
C      1  0.2729809899286  0.4815472138009  0.2227015090908 1.0
C      1  0.7067508265906  0.6800013374052  0.3009724670998 1.0
C      1  0.5287900439935  0.7420704718081  0.5768107606525 1.0
C      1  0.2966177227646  0.7780864528217  0.5062967573585 1.0
C      1  0.1533063736177  0.4065283580209  0.4897039360305 1.0
C      1  0.6440540023196  0.7456666155866  0.6901739960884 1.0
C      1  0.7568755139973  0.7179429597034  0.3755486223025 1.0
C      1  0.5221761198106  0.6038007211834  0.7138077196835 1.0
END
