TITL C-25408-2532-6 -8.839 3375.00 -1570.95254574 0 0 190 (C1) n - 1
REM
REM Run started: at 2020.12.22 20:35:37 in /rds/project/t2_vol4/rds-t2-cs072/BORA/CARBON/AIRSS/Generating-Clusters/Str-Search/Only-C1/C100-200
REM VASP from code version vasp.5.4.4.18Apr17-6-g9f103f2a35 (build Oct 11 2019 16:45:47) gamma-only
REM
REM
REM
REM
REM ./C.cell (efaf0b2bf1589a83377268d7ebe2c73f)
REM AIRSS Version 0.9.1 bugfix July 2018 build 013d7b7c2542+ Fri, 06 Jul 2018 19:26:36 +0100
REM compiler GCC version 4.8.5 20150623 (Red Hat 4.8.5-39)
REM options -cpp -mtune=generic -march=x86-64 -g -O0
REM seed 1576084928 1551340195 1169043892 -919835277 1322860511 1478991125 -643420024 -2062030483 -1165403874 2016349673 293330221 1895027571
REM
REM C.POTCAR (d86ddea03c3ceb6dc662c8ad6801f873)
REM 
CELL 1.54180   15.00000   15.00000   15.00000   90.00000   90.00000   90.00000
LATT -1
SFAC C  
C      1  0.3541665793076  0.2018350929358  0.7643160259640 1.0
C      1  0.3737572733656  0.7871843468381  0.3769994839191 1.0
C      1  0.4835571996713  0.6091193487591  0.6222259823156 1.0
C      1  0.3451013549676  0.1309157495302  0.5278137867719 1.0
C      1  0.3960248739292  0.8835768231920  0.4741169960240 1.0
C      1  0.3212249707287  0.6521814375185  0.7969939549803 1.0
C      1  0.4284325817805  0.3867440157666  0.8452237411142 1.0
C      1  0.3017286633961  0.2399492557330  0.3986922749275 1.0
C      1  0.7430140164941  0.4585416587323  0.5043309386232 1.0
C      1  0.4389763709624  0.7440331761213  0.2305590214790 1.0
C      1  0.7893584932473  0.4673684670415  0.3435253107258 1.0
C      1  0.5468834396761  0.6114489892037  0.6959384407760 1.0
C      1  0.3232665725184  0.5786585457468  0.8511883839454 1.0
C      1  0.0725526250340  0.6308956825722  0.5063033748123 1.0
C      1  0.7534532791436  0.7066567573371  0.7763150488992 1.0
C      1  0.2915209975582  0.4112464457895  0.1649720293928 1.0
C      1  0.4963767930139  0.8201387324285  0.7536145213270 1.0
C      1  0.5312948805625  0.5123286735141  0.0875391350986 1.0
C      1  0.5139665801987  0.6658968094666  0.1406217153803 1.0
C      1  0.5214378155997  0.4008270225820  0.8579981339691 1.0
C      1  0.5142706365543  0.6382345934611  0.7916489608529 1.0
C      1  0.6847046572945  0.6552194445477  0.8130334424188 1.0
C      1  0.8320424326393  0.7339603390269  0.4693816069344 1.0
C      1  0.7573258122391  0.3613771197387  0.7501027986846 1.0
C      1  0.1653351678824  0.3899749068066  0.5440288006901 1.0
C      1  0.4149391980530  0.6635572061351  0.1770228750240 1.0
C      1  0.5429515493153  0.4786652093989  0.4887267351175 1.0
C      1  0.4729443957877  0.5378580493794  0.5431956572770 1.0
C      1  0.6211332730837  0.6624790370632  0.5093371103513 1.0
C      1  0.3525032514961  0.4528923577305  0.6492309974803 1.0
C      1  0.5564251116039  0.2544195781382  0.8048888314613 1.0
C      1  0.6354026885543  0.6068052714469  0.3527427570384 1.0
C      1  0.2854159507027  0.4887279536344  0.8419711078357 1.0
C      1  0.2719160099989  0.7501047099439  0.6733964778739 1.0
C      1  0.6265578395300  0.3804761954382  0.3940208438484 1.0
C      1  0.1887929645420  0.4474831320766  0.6168267528909 1.0
C      1  0.2747243499161  0.2784965307589  0.2133770176388 1.0
C      1  0.1861207821037  0.4037343379337  0.2963034134548 1.0
C      1  0.7396463155312  0.2274846311555  0.5286660528086 1.0
C      1  0.2555571107576  0.6877772534994  0.4258513921853 1.0
C      1  0.2675858607144  0.4208388506390  0.3623947201999 1.0
C      1  0.6499305505872  0.2389077101608  0.5722078917459 1.0
C      1  0.2583064615269  0.5761575193915  0.2941779634567 1.0
C      1  0.5399678280912  0.4462049452755  0.2580538010764 1.0
C      1  0.5586721060683  0.4885191516476  0.8584818407241 1.0
C      1  0.6545742882265  0.5985264055073  0.5674862268960 1.0
C      1  0.5668495429103  0.2196304441647  0.5182279909548 1.0
C      1  0.8808509399381  0.5096757225469  0.5416056808927 1.0
C      1  0.2393082337645  0.5894391198676  0.4672603206977 1.0
C      1  0.7068357814997  0.5592762997374  0.8147548298073 1.0
C      1  0.2877758832819  0.7182974103545  0.2523369883430 1.0
C      1  0.8028177930235  0.2666161917581  0.5907735091535 1.0
C      1  0.2734390497438  0.1667576272145  0.3316249252236 1.0
C      1  0.1525740559273  0.4319328971706  0.4604672224457 1.0
C      1  0.5393956670762  0.8342012064369  0.3857152431709 1.0
C      1  0.2246976146487  0.6742415816730  0.3247495843613 1.0
C      1  0.3904893710723  0.3093018461278  0.3700738455025 1.0
C      1  0.1063199250567  0.5926087964879  0.5725883243406 1.0
C      1  0.3861237486041  0.6048306453921  0.4204882965724 1.0
C      1  0.2943970846625  0.1693220248384  0.6101139460302 1.0
C      1  0.8785981474675  0.5587642945380  0.6242148042722 1.0
C      1  0.3501138391925  0.3309926445643  0.1782951724624 1.0
C      1  0.5883727929900  0.2052768219581  0.7290491537622 1.0
C      1  0.1732978389928  0.5444221925280  0.6220490934591 1.0
C      1  0.6086391466512  0.7663394177698  0.3552386159385 1.0
C      1  0.3354866107647  0.5527556602695  0.6578084182457 1.0
C      1  0.0854699687445  0.6579011090353  0.4195175751183 1.0
C      1  0.6619396141450  0.3239321722864  0.6315676377008 1.0
C      1  0.5003826627828  0.1793179042488  0.7059272069804 1.0
C      1  0.4238500515662  0.5910834319666  0.2490729834051 1.0
C      1  0.5624556063295  0.4291028776269  0.1098681937786 1.0
C      1  0.2239141709740  0.3634168385590  0.2174848074142 1.0
C      1  0.2121588447558  0.4984243506457  0.3348278955446 1.0
C      1  0.3565681814155  0.6990891223237  0.4366974772511 1.0
C      1  0.8284114063345  0.3731938455901  0.3668633210283 1.0
C      1  0.2713942552173  0.5755955010729  0.1922724110857 1.0
C      1  0.2044181531106  0.2989346608819  0.5301424108097 1.0
C      1  0.5616002252633  0.1481003441025  0.4408030655078 1.0
C      1  0.4384750901785  0.1079688249025  0.5636633750888 1.0
C      1  0.4979759603477  0.5625284389262  0.8561100100120 1.0
C      1  0.8000252828298  0.7838214918851  0.5485739984081 1.0
C      1  0.6950541822891  0.4949007531388  0.1822766168512 1.0
C      1  0.8747970768697  0.6556084520032  0.5024907663301 1.0
C      1  0.8353960615444  0.4251127019253  0.5237575298635 1.0
C      1  0.6656466429114  0.2459554406915  0.1580204219486 1.0
C      1  0.3126761891358  0.8406801974783  0.4386067791233 1.0
C      1  0.5978499097385  0.6980851267345  0.8067780771834 1.0
C      1  0.3489533865184  0.1502655183590  0.6856393960289 1.0
C      1  0.3634506975054  0.2131375988629  0.4712615301923 1.0
C      1  0.4158949438388  0.6780578060997  0.7663421779018 1.0
C      1  0.7049630111773  0.4557155393733  0.4140160483699 1.0
C      1  0.4164023170363  0.7768341189177  0.7493052120364 1.0
C      1  0.7551865928955  0.4538884164261  0.2472066257180 1.0
C      1  0.5122428149981  0.3854162315407  0.1844404224655 1.0
C      1  0.4512902434071  0.8423266102384  0.4074433870012 1.0
C      1  0.2433903574065  0.5871696418914  0.6690672387510 1.0
C      1  0.6615112460719  0.4906229722306  0.6482880349266 1.0
C      1  0.3239993682861  0.5557961566501  0.4871655397607 1.0
C      1  0.7278386341340  0.8420895742078  0.5539625057384 1.0
C      1  0.6369001848119  0.1766100672832  0.1969396565657 1.0
C      1  0.6631672216752  0.2304283816755  0.6729479514426 1.0
C      1  0.2441080662822  0.2513541615151  0.6071156157841 1.0
C      1  0.6006667344052  0.9035496927586  0.5638552771003 1.0
C      1  0.7027239174725  0.5126547826104  0.5667529774916 1.0
C      1  0.8075003939584  0.4385049238238  0.7438949590309 1.0
C      1  0.4549558633789  0.2345573253257  0.7760092521494 1.0
C      1  0.3718848655301  0.4549008777313  0.8733711324053 1.0
C      1  0.7885442110351  0.5264527349330  0.7752366325249 1.0
C      1  0.3976808093382  0.4800681062354  0.3215771991239 1.0
C      1  0.6231241693354  0.5174591662357  0.3906692605046 1.0
C      1  0.5661164841021  0.1558848793881  0.3437699101597 1.0
C      1  0.2641795047793  0.3122224953627  0.6788502721270 1.0
C      1  0.8485501495395  0.5182876823678  0.7053800579183 1.0
C      1  0.5166842741255  0.1318547559744  0.5153542070754 1.0
C      1  0.4740835063695  0.5977084223880  0.4625355436288 1.0
C      1  0.7866562445300  0.3102697185852  0.3072911527747 1.0
C      1  0.7525331857386  0.3603703798296  0.2338799558289 1.0
C      1  0.8176781260130  0.7159479152856  0.3792362722553 1.0
C      1  0.5503969364363  0.2559049209350  0.3274183363010 1.0
C      1  0.1809859249187  0.5166807591723  0.4295885637440 1.0
C      1  0.2712761925164  0.0883241227622  0.3856686488478 1.0
C      1  0.3588397044054  0.4036437479417  0.3552466039451 1.0
C      1  0.2942005849353  0.4996289718530  0.1501562295244 1.0
C      1  0.8202503136577  0.6401660189167  0.3413583858026 1.0
C      1  0.3179271587890  0.2871267744227  0.7509244423654 1.0
C      1  0.5908146532976  0.4469034284128  0.3310482713019 1.0
C      1  0.6233982574010  0.5775512584757  0.6581474874080 1.0
C      1  0.1260928922399  0.6774850671021  0.3484091017545 1.0
C      1  0.4184042872806  0.8960166442596  0.5659438694917 1.0
C      1  0.7979181955551  0.7358611037521  0.7135000347153 1.0
C      1  0.6672286369461  0.8689665136815  0.6273905922177 1.0
C      1  0.5107574296721  0.9063233191270  0.6013407645415 1.0
C      1  0.2969168724883  0.0736381582083  0.4629321995293 1.0
C      1  0.4603979513547  0.2891230859447  0.2993994755001 1.0
C      1  0.6579819015526  0.8737233106396  0.4907353568927 1.0
C      1  0.7471667216492  0.2926726951145  0.6740509419991 1.0
C      1  0.3486455056520  0.8547244928087  0.6153666604637 1.0
C      1  0.7266611949791  0.2544005560512  0.3610199362694 1.0
C      1  0.6565184133077  0.4188659057946  0.1304363512082 1.0
C      1  0.5058551580184  0.3074849500915  0.5119443379942 1.0
C      1  0.4109498817300  0.5436914468795  0.8824039216337 1.0
C      1  0.6267965358076  0.8519750155144  0.4058447908408 1.0
C      1  0.4832245938002  0.3441871007329  0.6039716364071 1.0
C      1  0.2883983581120  0.7777292626223  0.5740766848126 1.0
C      1  0.3097279364654  0.6637161548677  0.1782312604310 1.0
C      1  0.8317881693887  0.7323232758117  0.6273780810961 1.0
C      1  0.4066111891251  0.3311875909762  0.7652798373602 1.0
C      1  0.2574345963914  0.6710695436820  0.7185755593745 1.0
C      1  0.6224303788471  0.8523781526681  0.7082045822349 1.0
C      1  0.8484731841264  0.3286695669289  0.5383241507292 1.0
C      1  0.5556579580632  0.3899217344340  0.4701342095416 1.0
C      1  0.3997553686234  0.6262443242124  0.6762418481463 1.0
C      1  0.5375346977902  0.6637293087727  0.4683288463006 1.0
C      1  0.4684907223507  0.5111741404695  0.2657212939064 1.0
C      1  0.6313739287635  0.2926315378212  0.3535032394833 1.0
C      1  0.6444977528091  0.6350202458122  0.2631166000270 1.0
C      1  0.6231254574849  0.4042469043379  0.6783175067806 1.0
C      1  0.4387827043937  0.1306285363376  0.6528244232491 1.0
C      1  0.7502992401093  0.2147003819051  0.4389398416632 1.0
C      1  0.6920246600345  0.3347598858976  0.1629053760592 1.0
C      1  0.5260762574094  0.3945417827069  0.6614765422189 1.0
C      1  0.8736346945577  0.6523209667773  0.5979075423983 1.0
C      1  0.8740632596724  0.5691266485909  0.4639907881480 1.0
C      1  0.2636188601078  0.1974438133355  0.2494716366100 1.0
C      1  0.3658315266651  0.7660447577027  0.2830599229599 1.0
C      1  0.6488912583872  0.4850089112881  0.8283073812092 1.0
C      1  0.4422444404360  0.3266771585819  0.2109320392077 1.0
C      1  0.8633138366037  0.3613730506613  0.4522430903680 1.0
C      1  0.6154707644894  0.6809597575646  0.4103945695471 1.0
C      1  0.4233542654076  0.2801456570188  0.4612906225871 1.0
C      1  0.3426979239912  0.8107667321105  0.6994577103598 1.0
C      1  0.6081360346622  0.7261023167135  0.2636247713277 1.0
C      1  0.2492609604866  0.7855957028195  0.4800588546023 1.0
C      1  0.4194111399722  0.6793440972469  0.5978161198038 1.0
C      1  0.5690117236997  0.5908267656589  0.1227274519647 1.0
C      1  0.5306383781130  0.8833936977900  0.6906260530850 1.0
C      1  0.6627969383875  0.3915727906850  0.7837856611793 1.0
C      1  0.8355360608628  0.5542833419531  0.3752303986112 1.0
C      1  0.3648774242669  0.7152845482032  0.5371822015074 1.0
C      1  0.5337366331277  0.7338122507258  0.2059481649827 1.0
C      1  0.6051127392716  0.1314832957101  0.2671088127205 1.0
C      1  0.5855466839942  0.7850666565465  0.7718026666429 1.0
C      1  0.2228693988348  0.2878895530127  0.4383772293756 1.0
C      1  0.3713988034646  0.5096770329841  0.5601103526168 1.0
C      1  0.3589371089227  0.5719060664194  0.3250286912523 1.0
C      1  0.1877792341414  0.3668199393001  0.3915838782822 1.0
C      1  0.5860164319074  0.3382482177836  0.8258906205082 1.0
C      1  0.6476798345436  0.5777683536348  0.1842852010734 1.0
C      1  0.4287722616574  0.3871053454285  0.6794249573819 1.0
C      1  0.2637262372831  0.4079386186197  0.6590968783096 1.0
END
