TITL C-25374-6139-11 -3.68 3375.00 -628.82285401 0 0 78 (C1) n - 1
REM
REM Run started: at 2020.12.22 15:18:46 in /rds/project/t2_vol4/rds-t2-cs072/BORA/CARBON/AIRSS/Generating-Clusters/Str-Search/Only-C1/C10-100
REM VASP from code version vasp.5.4.4.18Apr17-6-g9f103f2a35 (build Oct 11 2019 16:45:47) gamma-only
REM
REM
REM
REM
REM ./C.cell (67c5d0192afd7a3ce4a0888e5fe73b87)
REM AIRSS Version 0.9.1 bugfix July 2018 build 013d7b7c2542+ Fri, 06 Jul 2018 19:26:36 +0100
REM compiler GCC version 4.8.5 20150623 (Red Hat 4.8.5-39)
REM options -cpp -mtune=generic -march=x86-64 -g -O0
REM seed 784301358 -1927045531 -795190087 -173589692 835315661 1885118419 2132038494 -385010507 884698606 -1641469133 640193600 457477354
REM
REM C.POTCAR (d86ddea03c3ceb6dc662c8ad6801f873)
REM 
CELL 1.54180   15.00000   15.00000   15.00000   90.00000   90.00000   90.00000
LATT -1
SFAC C  
C      1  0.3293104822836  0.4095700442364  0.3347847354456 1.0
C      1  0.7511371251194  0.5996561262151  0.4238973833339 1.0
C      1  0.2881325277015  0.6694945161122  0.3160101981680 1.0
C      1  0.5303290875862  0.6208757296730  0.4271499276949 1.0
C      1  0.6002727297999  0.6046470332764  0.4824042601307 1.0
C      1  0.4866117895360  0.7398777633392  0.5176662723960 1.0
C      1  0.2750623891230  0.7085178197046  0.4784272766742 1.0
C      1  0.6428815350667  0.2606524609809  0.4404951733922 1.0
C      1  0.4582449677417  0.2705903390988  0.4062477230370 1.0
C      1  0.5738345226853  0.3707664694496  0.3486569360549 1.0
C      1  0.7389731673915  0.6528988418346  0.5051862170439 1.0
C      1  0.5185824380326  0.4498818296070  0.6964730964866 1.0
C      1  0.4625478393541  0.6575062191287  0.6613613187512 1.0
C      1  0.4684089068581  0.3451174656156  0.4755396992479 1.0
C      1  0.4265891733416  0.4283688430637  0.7299194461685 1.0
C      1  0.3557805195796  0.2750265027446  0.4370110877722 1.0
C      1  0.3108402267304  0.6736251537311  0.5565504490084 1.0
C      1  0.6946775564476  0.3386451588315  0.5881092226950 1.0
C      1  0.6580088838888  0.3370672353826  0.3883065431771 1.0
C      1  0.4868965124944  0.3259055178846  0.3184361813910 1.0
C      1  0.6651095427825  0.6386511448836  0.2821199559694 1.0
C      1  0.6322168922756  0.2691634167331  0.6076424960535 1.0
C      1  0.6920237041658  0.4380860464030  0.7018321092990 1.0
C      1  0.4079813028920  0.5918347169902  0.7164983314073 1.0
C      1  0.7287597546640  0.5007449949798  0.4454215593087 1.0
C      1  0.5390871779450  0.2175307212016  0.4451100283794 1.0
C      1  0.6433175006869  0.5164539298822  0.5006527093913 1.0
C      1  0.4414548849262  0.4227943476522  0.4267411036756 1.0
C      1  0.7337026007023  0.5030024484762  0.5532053042683 1.0
C      1  0.2408935734650  0.5060548481613  0.5904141489603 1.0
C      1  0.2369110927527  0.5175653760232  0.4318188158478 1.0
C      1  0.6249259475686  0.4495520703059  0.3117092591784 1.0
C      1  0.4962081874696  0.6567124391979  0.2716693454381 1.0
C      1  0.5798300011952  0.4458612975895  0.5162126295462 1.0
C      1  0.5562317349787  0.6982730237517  0.6573905601069 1.0
C      1  0.3212971234296  0.3107099576238  0.5288939810821 1.0
C      1  0.2550187566617  0.3679140128849  0.4857851421219 1.0
C      1  0.3211571242316  0.5680027062709  0.6870860417163 1.0
C      1  0.6803856376748  0.2666296424396  0.5267133125469 1.0
C      1  0.3249708849463  0.5320705678240  0.4359936462947 1.0
C      1  0.5262332342689  0.1998562816045  0.5320745450974 1.0
C      1  0.7489385581412  0.5983275196852  0.5835898344513 1.0
C      1  0.7220292031727  0.6292105289619  0.3416379739424 1.0
C      1  0.4302881584083  0.4095092867555  0.3244004317631 1.0
C      1  0.5409797502593  0.4053569540458  0.4405560416797 1.0
C      1  0.4929619553991  0.7280337767644  0.3322268793824 1.0
C      1  0.6430807750171  0.6829156208715  0.5179110257413 1.0
C      1  0.3726620423378  0.3385187172998  0.6028706980272 1.0
C      1  0.2931974313656  0.4765375205083  0.6671104038891 1.0
C      1  0.4708416119084  0.3419625733338  0.5758464747913 1.0
C      1  0.4134339934329  0.6874611627536  0.5708824343973 1.0
C      1  0.4680768451567  0.5611715981160  0.3863117126035 1.0
C      1  0.6324660239662  0.6683339019774  0.6992187383986 1.0
C      1  0.4959887972712  0.7147881447026  0.4208795819811 1.0
C      1  0.6987446714748  0.4285384520205  0.3737639669779 1.0
C      1  0.6065065696661  0.4407104974045  0.7381290535041 1.0
C      1  0.4515394943433  0.5154755513822  0.5535372703771 1.0
C      1  0.5678643837567  0.7321679498377  0.5654236748197 1.0
C      1  0.4540226225050  0.5133691236351  0.7458934893835 1.0
C      1  0.6769435817415  0.5972407106658  0.7443416192891 1.0
C      1  0.4752942592146  0.4991549243032  0.2970412007003 1.0
C      1  0.5111196356987  0.4395669993937  0.5913923197848 1.0
C      1  0.3529267386159  0.4025147488941  0.6739865839828 1.0
C      1  0.2922984736745  0.5015030754402  0.3462751638519 1.0
C      1  0.4267537566851  0.5860404053954  0.2950645839801 1.0
C      1  0.5690748473459  0.5141409226163  0.2698791238127 1.0
C      1  0.5805291065587  0.6090274837230  0.2549932939646 1.0
C      1  0.2739287581906  0.6013727923930  0.6072651467854 1.0
C      1  0.7233777044796  0.4233834504814  0.6142335176545 1.0
C      1  0.2652848132662  0.7025838613685  0.3945277022044 1.0
C      1  0.6687434931300  0.5067281456113  0.7641766573111 1.0
C      1  0.2272237199326  0.4565288388875  0.5090664581495 1.0
C      1  0.7167595816486  0.6304493412553  0.6671060574351 1.0
C      1  0.4160405685707  0.5107387823752  0.4596465297003 1.0
C      1  0.5358043426040  0.2591443792289  0.6003610453611 1.0
C      1  0.3261008263459  0.5879439661626  0.3018228627575 1.0
C      1  0.2991383667378  0.3442964839722  0.3981120959629 1.0
C      1  0.4541955975316  0.5990966469873  0.5828999774429 1.0
END
