TITL C-25683-137-48 -7.287 3375.00 -1222.09754827 0 0 151 () n - 1
REM
REM Run started: at 2020.12.26 20:11:10 in /gpfs/home/chem/mssmkc/CARBON/AIRSS/Generating-Clusters/Str-Search/Only-C1/C100-200
REM VASP from code version vasp.5.4.4.18Apr17-6-g9f103f2a35 (build Oct 11 2019 16:45:47) gamma-only
REM
REM
REM
REM
REM ./C.cell (efaf0b2bf1589a83377268d7ebe2c73f)
REM AIRSS Version 0.9.1 bugfix July 2018 build 013d7b7c2542+ Fri, 06 Jul 2018 19:26:36 +0100
REM compiler GCC version 6.3.0
REM options -cpp -iprefix /gpfs/warwick/csc/orac/software/Core/GCCcore/6.3.0/bin/../lib/gcc/x86_64-pc-linux-gnu/6.3.0/ -mtune=generic -march=x86-64 -g -O0
REM seed -1576473544 -280158215 -832983708 -2054095274 1398494283 -649233490 1042935241 -528982921 -1969547699 1850305755 -685809137 -963708984
REM
REM C.POTCAR (d86ddea03c3ceb6dc662c8ad6801f873)
REM 
CELL 1.54180   15.00000   15.00000   15.00000   90.00000   90.00000   90.00000
LATT -1
SFAC C  
C      1  0.3097164960799  0.4420239168774  0.6358137677826 1.0
C      1  0.5222819503758  0.6202426750871  0.2833177927536 1.0
C      1  0.3633687396583  0.3713512653442  0.6867510310645 1.0
C      1  0.6378817298942  0.5035566568446  0.6347256871541 1.0
C      1  0.6738855878780  0.4887201233663  0.3337404587806 1.0
C      1  0.3426197187459  0.7858092364383  0.5009134593981 1.0
C      1  0.7846499741377  0.4672258154520  0.1285539555387 1.0
C      1  0.3040212595186  0.2065285171904  0.8585624109161 1.0
C      1  0.5540143241998  0.4009749781862  0.3796067080718 1.0
C      1  0.2489092582520  0.7539937055877  0.3777565706631 1.0
C      1  0.1156487756890  0.4991964264092  0.4353403202568 1.0
C      1  0.7010267016443  0.3193147309421  0.1370965076357 1.0
C      1  0.1545480363556  0.5455331924630  0.3584176435971 1.0
C      1  0.6412964652453  0.1705827583130  0.5165671956440 1.0
C      1  0.5969637146828  0.3727631217360  0.4622499687476 1.0
C      1  0.3595206168873  0.4575674987107  0.3820997037284 1.0
C      1  0.5237220909275  0.6497112108837  0.6356245916338 1.0
C      1  0.3191640179780  0.8121595780623  0.4120475237591 1.0
C      1  0.4217066709978  0.8208519814225  0.3917126042346 1.0
C      1  0.2163059126307  0.3962403353887  0.5085625858353 1.0
C      1  0.8157383892866  0.2837169611066  0.3845664384199 1.0
C      1  0.2808925105362  0.1758769216445  0.6891137288344 1.0
C      1  0.8167340351687  0.2177104877978  0.4481246666783 1.0
C      1  0.6674098083960  0.8413796378866  0.5176481525616 1.0
C      1  0.2584703961042  0.5391893423463  0.2110478094748 1.0
C      1  0.5635657003594  0.5474593324082  0.9083804790334 1.0
C      1  0.4759116633047  0.3435365190371  0.3692159554127 1.0
C      1  0.8353964438091  0.3880127459944  0.5964768990813 1.0
C      1  0.5337444541667  0.4991544925274  0.3819109376492 1.0
C      1  0.3262803384514  0.6103508460760  0.6726991686970 1.0
C      1  0.3906918863728  0.3627421029433  0.4145056520829 1.0
C      1  0.8040000747614  0.5427994070090  0.1682186888960 1.0
C      1  0.4752815880975  0.8203464960193  0.7703864731211 1.0
C      1  0.5546741731496  0.3136627898154  0.5327588576021 1.0
C      1  0.7960126134158  0.1937755751988  0.5263914740553 1.0
C      1  0.7708593903495  0.5300497527542  0.7835328394009 1.0
C      1  0.7537735536001  0.3901075097286  0.1103636935276 1.0
C      1  0.5789475321305  0.5347397889802  0.2937766374939 1.0
C      1  0.4933581323354  0.7071949998142  0.5114289241042 1.0
C      1  0.5734251371922  0.5015497774277  0.7091726957850 1.0
C      1  0.5530180598440  0.6079523705735  0.7228394097209 1.0
C      1  0.7966199995689  0.7296014781547  0.4585888997192 1.0
C      1  0.8242894632663  0.4441569321644  0.3626387534814 1.0
C      1  0.3925902471840  0.4993387644630  0.9497708908874 1.0
C      1  0.8001603813846  0.5720592899587  0.2538634025405 1.0
C      1  0.3848339739564  0.5790881348571  0.1369944106530 1.0
C      1  0.6153165082619  0.1927895321582  0.4309255594947 1.0
C      1  0.5351257446103  0.2165037687785  0.7782687477667 1.0
C      1  0.5933762468957  0.4193409122052  0.7675573101063 1.0
C      1  0.5932797994239  0.2360044774658  0.3514921204154 1.0
C      1  0.0878680922235  0.5832822226424  0.4757926892632 1.0
C      1  0.6913438472296  0.2745830435647  0.6320726734618 1.0
C      1  0.1331315221025  0.6339614884356  0.4100174166666 1.0
C      1  0.4269642574243  0.5934448727210  0.8402663697712 1.0
C      1  0.4342767779624  0.1490809679962  0.6664723047446 1.0
C      1  0.7450970680545  0.5825444205475  0.4675902467195 1.0
C      1  0.2862085867883  0.2362204464017  0.7606706349073 1.0
C      1  0.4573773835851  0.3698972062241  0.6630335114914 1.0
C      1  0.3852638276906  0.3608858737893  0.5155840191879 1.0
C      1  0.1918911854990  0.7020515725753  0.4450494968417 1.0
C      1  0.6399777493494  0.8845174383782  0.4373698286602 1.0
C      1  0.4826763067426  0.6479075016649  0.7858776969298 1.0
C      1  0.2801399157671  0.6032622981322  0.7596477569205 1.0
C      1  0.3620074750842  0.6249516903552  0.3692590072409 1.0
C      1  0.7828421953433  0.6508687218269  0.4019878279724 1.0
C      1  0.4275020356403  0.2088342169729  0.4144013303415 1.0
C      1  0.3577284209320  0.6845817864272  0.6195301115999 1.0
C      1  0.6549208008248  0.3004839002643  0.3005941594657 1.0
C      1  0.7713187356710  0.4915123773116  0.3119564406821 1.0
C      1  0.5522279839118  0.2096773071562  0.5095491742681 1.0
C      1  0.2173759336265  0.5159203881867  0.2968463715745 1.0
C      1  0.6085443522002  0.3262082691572  0.1148073815914 1.0
C      1  0.3469041766353  0.5306968225683  0.6160176154786 1.0
C      1  0.1613653626390  0.2566835586578  0.3957405186776 1.0
C      1  0.3287852906353  0.5808185145964  0.8394870042086 1.0
C      1  0.4520528926700  0.6358416875909  0.1086672627862 1.0
C      1  0.4695994014554  0.5402519005940  0.9093819225573 1.0
C      1  0.6543473860330  0.3408443400432  0.7698475553919 1.0
C      1  0.7428302916399  0.7870599441706  0.5127433130109 1.0
C      1  0.1249253145070  0.5587178834974  0.5591991559997 1.0
C      1  0.4954678696521  0.4381038543964  0.1735878388316 1.0
C      1  0.6045648777523  0.6491505367418  0.5735514836770 1.0
C      1  0.7198139010736  0.2812302682980  0.2251196093108 1.0
C      1  0.4350336805282  0.7751887144200  0.4714107614888 1.0
C      1  0.6745167873418  0.5143444745442  0.4392014525734 1.0
C      1  0.7801860364773  0.7066106421992  0.5475617716793 1.0
C      1  0.5175111384175  0.4185718927375  0.7184342623117 1.0
C      1  0.5192794432516  0.7818545589773  0.2694735433088 1.0
C      1  0.4647604501363  0.3500340199804  0.5707088693063 1.0
C      1  0.2141717207811  0.7425354386915  0.2752322882746 1.0
C      1  0.4052392919648  0.4877471083365  0.1666552849640 1.0
C      1  0.6208493870783  0.3983755003059  0.3034982483237 1.0
C      1  0.3414869874453  0.1490888749144  0.6315281113040 1.0
C      1  0.3477162520433  0.2661520536810  0.4097221438990 1.0
C      1  0.5359523680225  0.3657323531198  0.1234710186653 1.0
C      1  0.1990084684979  0.3264437199361  0.4466632371595 1.0
C      1  0.6587952517229  0.9288491574927  0.3549709322414 1.0
C      1  0.3897202767552  0.5625560637710  0.5393919580205 1.0
C      1  0.4991554548073  0.8404168999442  0.3335038828322 1.0
C      1  0.5120122213232  0.6847296717295  0.1378425181472 1.0
C      1  0.3179185441330  0.5211388349492  0.9146007189407 1.0
C      1  0.6960241289416  0.5863871684713  0.8015965297364 1.0
C      1  0.5139813748585  0.8768872517110  0.7164059954228 1.0
C      1  0.6032630610348  0.8273954649703  0.5922999369068 1.0
C      1  0.6593639565295  0.4318974926209  0.4929182074734 1.0
C      1  0.3072427859134  0.6855431365180  0.3294462953291 1.0
C      1  0.5623682292561  0.7362119628309  0.5923555545343 1.0
C      1  0.3725104410894  0.5475128657547  0.4406408091309 1.0
C      1  0.6364151936073  0.5711119006631  0.8749166052560 1.0
C      1  0.6519147894940  0.4278490966405  0.5880783874583 1.0
C      1  0.2835052894517  0.6931241257438  0.2370841181005 1.0
C      1  0.2981789672092  0.7350422672270  0.5653420729870 1.0
C      1  0.4191062338201  0.1443238427405  0.5752456486823 1.0
C      1  0.3732873393362  0.1936616621587  0.8060587569833 1.0
C      1  0.2566476475853  0.2615295942715  0.4123977364565 1.0
C      1  0.6559199104508  0.6232162328117  0.7246773553460 1.0
C      1  0.2258926687007  0.6120595152355  0.6874309468535 1.0
C      1  0.5653448171363  0.6339580724036  0.4857794288825 1.0
C      1  0.2934025561107  0.3289271074615  0.7279112365986 1.0
C      1  0.1772055485604  0.6251207295315  0.6038672276419 1.0
C      1  0.7137770438567  0.2015766546264  0.5699042631857 1.0
C      1  0.7561202044931  0.2816660488933  0.3059413319488 1.0
C      1  0.4607772400510  0.1714545722181  0.4960501892971 1.0
C      1  0.5820346201804  0.5557532467998  0.4448302098401 1.0
C      1  0.4402557132696  0.5975985940474  0.3199600054289 1.0
C      1  0.4663746236647  0.7366557081214  0.7798700750812 1.0
C      1  0.3009537791393  0.3932751382119  0.5496880951988 1.0
C      1  0.3002475612311  0.6144373252428  0.1767380445348 1.0
C      1  0.6014519696878  0.2650017828386  0.7871551230899 1.0
C      1  0.6257108128548  0.3317594928702  0.6011068795314 1.0
C      1  0.8366368305192  0.3737012911549  0.4195722956545 1.0
C      1  0.7314943551689  0.3275253981899  0.7075677793568 1.0
C      1  0.5316762499290  0.7038019174551  0.2300313392284 1.0
C      1  0.8018000672913  0.6433214191306  0.3123004875084 1.0
C      1  0.2969809539172  0.4588946941410  0.3050107001832 1.0
C      1  0.2117609616581  0.6951611462823  0.5413931749523 1.0
C      1  0.8030666476966  0.4677374673690  0.7405509055532 1.0
C      1  0.3260605488851  0.4653904446728  0.2145063184863 1.0
C      1  0.1468263037388  0.4636007563564  0.5172452364081 1.0
C      1  0.5616926654793  0.4562095929950  0.2362211689037 1.0
C      1  0.5762556395104  0.8860629684458  0.3708455857279 1.0
C      1  0.4533667718247  0.1779395147003  0.7533035357692 1.0
C      1  0.4412501664980  0.5163308966679  0.3728370058319 1.0
C      1  0.7483841485572  0.6156132911581  0.5556047045057 1.0
C      1  0.4397714234546  0.6497216328690  0.5760855217000 1.0
C      1  0.2521397000800  0.4149500535558  0.7187529844394 1.0
C      1  0.6749643151524  0.5969129908866  0.6229743232516 1.0
C      1  0.5679303723204  0.8871719897609  0.6512334448841 1.0
C      1  0.8469892591900  0.3846870747943  0.5146977899554 1.0
C      1  0.4975402107844  0.2549717623028  0.3606770626577 1.0
C      1  0.7984486345936  0.3903694698586  0.6851808705601 1.0
END
