TITL C-25249-492-36 -4.919 3375.00 -861.72117009 0 0 106 () n - 1
REM
REM Run started: at 2020.12.26 05:28:46 in /gpfs/home/chem/mssmkc/CARBON/AIRSS/Generating-Clusters/Str-Search/Only-C1/C100-200
REM VASP from code version vasp.5.4.4.18Apr17-6-g9f103f2a35 (build Oct 11 2019 16:45:47) gamma-only
REM
REM
REM
REM
REM ./C.cell (efaf0b2bf1589a83377268d7ebe2c73f)
REM AIRSS Version 0.9.1 bugfix July 2018 build 013d7b7c2542+ Fri, 06 Jul 2018 19:26:36 +0100
REM compiler GCC version 6.3.0
REM options -cpp -iprefix /gpfs/warwick/csc/orac/software/Core/GCCcore/6.3.0/bin/../lib/gcc/x86_64-pc-linux-gnu/6.3.0/ -mtune=generic -march=x86-64 -g -O0
REM seed 711574826 -1955574409 224685478 -889502620 -500923692 -1152059662 655761600 -1486669163 853562020 1120286048 1083348373 -1573147210
REM
REM C.POTCAR (d86ddea03c3ceb6dc662c8ad6801f873)
REM 
CELL 1.54180   15.00000   15.00000   15.00000   90.00000   90.00000   90.00000
LATT -1
SFAC C  
C      1  0.3714810465959  0.5215571160843  0.7664362890014 1.0
C      1  0.5541205251188  0.1626421699504  0.5078123983507 1.0
C      1  0.6785231496874  0.2466347904676  0.5119465614166 1.0
C      1  0.5530622077541  0.7631102436712  0.5860371727249 1.0
C      1  0.5425817678549  0.5781834015123  0.1756573906575 1.0
C      1  0.5807323260691  0.2659760231734  0.5021082384135 1.0
C      1  0.3117993026938  0.3993255272515  0.6184534557276 1.0
C      1  0.6561808657025  0.4032389750632  0.7839630353616 1.0
C      1  0.4931593925671  0.1970422412707  0.6447052014557 1.0
C      1  0.4354795024956  0.4925604818327  0.6359493620000 1.0
C      1  0.3504766084793  0.7325607142548  0.4606404269344 1.0
C      1  0.5799715848972  0.6252295191758  0.5009883528675 1.0
C      1  0.2606066331225  0.5464892126328  0.5449722968272 1.0
C      1  0.3865848642912  0.6368862276022  0.5111265885129 1.0
C      1  0.4674804445270  0.6529984759951  0.3719009041573 1.0
C      1  0.3166183133040  0.6164876085791  0.5832357791638 1.0
C      1  0.6032527383369  0.5214725783230  0.2259416769590 1.0
C      1  0.6893680111616  0.6046620389690  0.7045745486039 1.0
C      1  0.4244205610404  0.1811156487214  0.5811774958968 1.0
C      1  0.3407592100228  0.2229955858085  0.5815052783151 1.0
C      1  0.5399409224781  0.6735251929491  0.1960513792700 1.0
C      1  0.5002065369926  0.2894667615273  0.6881248655463 1.0
C      1  0.4736298270958  0.5906234967936  0.6392304975715 1.0
C      1  0.5506175090428  0.5317698655019  0.7875624316837 1.0
C      1  0.5329251954595  0.3568623711130  0.6188924280371 1.0
C      1  0.5280896251636  0.4705737353526  0.3998601712760 1.0
C      1  0.8212788526568  0.5542602880475  0.6209001285516 1.0
C      1  0.5659890141874  0.3056855429004  0.3058315681704 1.0
C      1  0.3142264272695  0.2667964854820  0.5056885800990 1.0
C      1  0.5239884051386  0.7714793268817  0.4165287344578 1.0
C      1  0.2354250110506  0.5112477813058  0.2961632472043 1.0
C      1  0.3360978815282  0.3679909778437  0.3912954743459 1.0
C      1  0.4286830594920  0.8461541709183  0.5279656158682 1.0
C      1  0.5378483864482  0.2425752250182  0.3705810617621 1.0
C      1  0.2346757667120  0.4950374691509  0.3917599606184 1.0
C      1  0.6892707195700  0.6721048743209  0.6360485789035 1.0
C      1  0.5156589339603  0.8103511841189  0.5146366566155 1.0
C      1  0.5602041005956  0.6718637825846  0.4101383853841 1.0
C      1  0.4398730740571  0.3602137402850  0.7402826797256 1.0
C      1  0.4453475807841  0.2257988236723  0.4144711421257 1.0
C      1  0.2529256281316  0.5725557044185  0.4515893481983 1.0
C      1  0.5998737132701  0.4255458126286  0.2331219945478 1.0
C      1  0.4496638487478  0.5486521068919  0.1619347065563 1.0
C      1  0.5786906835171  0.4422145666497  0.8166521403053 1.0
C      1  0.6383820952464  0.3741831296754  0.3066490834823 1.0
C      1  0.4601295845558  0.1703938827367  0.4918895777276 1.0
C      1  0.6296954829000  0.5116856671416  0.3883152731795 1.0
C      1  0.2474179635222  0.6064931722234  0.2883940434939 1.0
C      1  0.4267475361545  0.7399616024540  0.3882303208096 1.0
C      1  0.4487185891822  0.4894728880037  0.3565021935858 1.0
C      1  0.5123935817892  0.3713829290254  0.8014719411419 1.0
C      1  0.7187518104944  0.6928034504812  0.5520667199471 1.0
C      1  0.4626736271706  0.6536946487091  0.7785099198240 1.0
C      1  0.7297132665450  0.3280658407829  0.5173270787184 1.0
C      1  0.7043220544416  0.4031026106888  0.4662068517349 1.0
C      1  0.2723019681165  0.4241434955760  0.4432455996539 1.0
C      1  0.2773827437340  0.4535837175504  0.5428305908809 1.0
C      1  0.3042181733344  0.5751882921668  0.7321261604671 1.0
C      1  0.5339768131913  0.4544855439514  0.6268122106240 1.0
C      1  0.6219864673109  0.6569948379226  0.3278499507541 1.0
C      1  0.3086907225239  0.3121786729719  0.5905142076739 1.0
C      1  0.6135827508561  0.6129310701319  0.7618861406838 1.0
C      1  0.7167717667851  0.4533206862928  0.6131512661296 1.0
C      1  0.6892042464930  0.4769512816703  0.5268522205367 1.0
C      1  0.4873315467607  0.5909628073144  0.5389335620552 1.0
C      1  0.3948462478897  0.6243993761246  0.1915194991165 1.0
C      1  0.5336215388078  0.5273503104321  0.6859611277407 1.0
C      1  0.3315609492094  0.6422792873394  0.6702616761188 1.0
C      1  0.4543677136442  0.5641631538082  0.8032940453245 1.0
C      1  0.6625260759688  0.2163355712404  0.6091416157426 1.0
C      1  0.5767433497620  0.1730295160827  0.6044626154820 1.0
C      1  0.6943403695416  0.2863438435585  0.6673795943157 1.0
C      1  0.2271780191762  0.6799489752693  0.3361289242162 1.0
C      1  0.2786147821016  0.6735655955015  0.4164189165589 1.0
C      1  0.7467829770676  0.5295561807239  0.6719988510495 1.0
C      1  0.5632805977962  0.2953722131755  0.7668071725324 1.0
C      1  0.5333467471656  0.3436810541230  0.5257752382511 1.0
C      1  0.5134720694112  0.7352282695829  0.6722720608454 1.0
C      1  0.8273819958248  0.5900207672822  0.5440415948532 1.0
C      1  0.3451982116646  0.5850680993359  0.2655317793856 1.0
C      1  0.4077280928467  0.5794979801523  0.3511466755100 1.0
C      1  0.4039539353633  0.4675509853332  0.1859599659065 1.0
C      1  0.3825494164964  0.4201314446502  0.3175068258934 1.0
C      1  0.4848822691221  0.4887885422768  0.5446341163436 1.0
C      1  0.5375225627583  0.7878637313814  0.3107203104589 1.0
C      1  0.6342336048974  0.5668360688490  0.3072963901662 1.0
C      1  0.7565665075849  0.6254192557450  0.4961604359905 1.0
C      1  0.6724827146367  0.4216432274658  0.3816336207514 1.0
C      1  0.6587687396166  0.5564870565961  0.4773504566850 1.0
C      1  0.4367803667687  0.3913302127948  0.2339464595666 1.0
C      1  0.4469602920668  0.6996654811430  0.2107380266679 1.0
C      1  0.3796839967998  0.4344870769720  0.6961957623960 1.0
C      1  0.3526700541248  0.8203860054967  0.5064162102747 1.0
C      1  0.4472356434459  0.7593506483457  0.2897120473628 1.0
C      1  0.5081249328771  0.4200892332771  0.4784799932014 1.0
C      1  0.4291558653923  0.6711035223540  0.6861044283720 1.0
C      1  0.5493361668278  0.6869195487521  0.7508182533723 1.0
C      1  0.6103756944108  0.2005521736104  0.4352368581982 1.0
C      1  0.3286310911794  0.4851922906281  0.2541928444704 1.0
C      1  0.5239879300213  0.3611625207210  0.2377429100815 1.0
C      1  0.3466400803325  0.5960220158767  0.4290472454194 1.0
C      1  0.6551536496231  0.3119703440591  0.7529631140617 1.0
C      1  0.6211374922087  0.6957242054232  0.5635378034864 1.0
C      1  0.3628792985190  0.2834037859927  0.4237488767015 1.0
C      1  0.5914929868310  0.7206440062602  0.2641817400803 1.0
C      1  0.7316225200382  0.3549386280973  0.6093242737722 1.0
END
