TITL C-25683-137-32 -6.317 3375.00 -1093.99350881 0 0 133 () n - 1
REM
REM Run started: at 2020.12.26 06:22:32 in /gpfs/home/chem/mssmkc/CARBON/AIRSS/Generating-Clusters/Str-Search/Only-C1/C100-200
REM VASP from code version vasp.5.4.4.18Apr17-6-g9f103f2a35 (build Oct 11 2019 16:45:47) gamma-only
REM
REM
REM
REM
REM ./C.cell (efaf0b2bf1589a83377268d7ebe2c73f)
REM AIRSS Version 0.9.1 bugfix July 2018 build 013d7b7c2542+ Fri, 06 Jul 2018 19:26:36 +0100
REM compiler GCC version 6.3.0
REM options -cpp -iprefix /gpfs/warwick/csc/orac/software/Core/GCCcore/6.3.0/bin/../lib/gcc/x86_64-pc-linux-gnu/6.3.0/ -mtune=generic -march=x86-64 -g -O0
REM seed 1614725702 -1698858266 -934415275 1775659473 -1689432167 1137068725 -1692037723 1929599268 1564588953 -856123921 -249982046 775869007
REM
REM C.POTCAR (d86ddea03c3ceb6dc662c8ad6801f873)
REM 
CELL 1.54180   15.00000   15.00000   15.00000   90.00000   90.00000   90.00000
LATT -1
SFAC C  
C      1  0.6100292257594  0.5688054273672  0.2614874135948 1.0
C      1  0.3169397921163  0.7913825677836  0.4433623829832 1.0
C      1  0.2010319106522  0.4963468484602  0.3450319657473 1.0
C      1  0.7975141682688  0.3826758406649  0.6566720251529 1.0
C      1  0.5991519832379  0.5670751835059  0.3600254437078 1.0
C      1  0.4163204682942  0.4014617333600  0.4976763725554 1.0
C      1  0.5089028260467  0.2271711459741  0.3029628001656 1.0
C      1  0.5816152074401  0.4069574913143  0.5654358764997 1.0
C      1  0.3980979613591  0.5350194179978  0.2855116225142 1.0
C      1  0.3841861398733  0.6257714235950  0.4341597369271 1.0
C      1  0.4968239063545  0.1749080621624  0.4753423279693 1.0
C      1  0.6733323946361  0.4176284525011  0.2490725838701 1.0
C      1  0.5584422926319  0.4959550196849  0.4105845452982 1.0
C      1  0.6463006758100  0.4772777439750  0.5497751983974 1.0
C      1  0.5353539764730  0.1874599297055  0.3816945403077 1.0
C      1  0.5793991314292  0.5757659364564  0.7914480867302 1.0
C      1  0.4109555076935  0.6444813726376  0.3321507888559 1.0
C      1  0.6160860039743  0.7957054905813  0.4914276952522 1.0
C      1  0.7764102736924  0.5188430985117  0.3471934845691 1.0
C      1  0.6509945694457  0.7139463762133  0.6558052118324 1.0
C      1  0.7045318314221  0.2814576245220  0.5667504789208 1.0
C      1  0.3625958338612  0.2767763650659  0.6540903923729 1.0
C      1  0.8118050860979  0.4513253444819  0.4918549381854 1.0
C      1  0.6263250319406  0.3906443131451  0.7586512300782 1.0
C      1  0.5074889641057  0.2151439139256  0.6971666286853 1.0
C      1  0.1565533675487  0.4358175005158  0.5436147976676 1.0
C      1  0.6833866463144  0.7950922432408  0.4331579649993 1.0
C      1  0.4466059221440  0.2816627291446  0.8423377638186 1.0
C      1  0.3826980639498  0.4844500296140  0.3693252560746 1.0
C      1  0.3807771393186  0.5626957342447  0.6593636705316 1.0
C      1  0.4801675881608  0.2308116490276  0.7846560200716 1.0
C      1  0.6152103355562  0.7180550400648  0.5596085902803 1.0
C      1  0.2298497959003  0.6420560056975  0.7238085792755 1.0
C      1  0.5557094873104  0.6457093357421  0.4118378008715 1.0
C      1  0.3576965429080  0.4732800298252  0.5205302730034 1.0
C      1  0.4779381205926  0.6271396643179  0.4807914564729 1.0
C      1  0.4050313522887  0.9163017243844  0.4523196170494 1.0
C      1  0.7333181061906  0.3172421812790  0.6527147886382 1.0
C      1  0.3516717391456  0.5307839081835  0.4428957189716 1.0
C      1  0.4047596566767  0.4982507860673  0.6010633533679 1.0
C      1  0.2997404561723  0.2726257503297  0.4155328483300 1.0
C      1  0.1832885230316  0.3550088300809  0.4970470496429 1.0
C      1  0.7910233798297  0.6082609490174  0.6521983060153 1.0
C      1  0.7774054400969  0.4560832434616  0.7152613859644 1.0
C      1  0.4317605439101  0.4063653646077  0.4022004180618 1.0
C      1  0.6251022385907  0.1878755069715  0.4221274795300 1.0
C      1  0.7406904018197  0.7435634854090  0.3831745027543 1.0
C      1  0.2277070643123  0.3410702803385  0.4178043607938 1.0
C      1  0.1910475060630  0.5530245841848  0.4285852863378 1.0
C      1  0.1674913820370  0.5250124788258  0.5172897361777 1.0
C      1  0.5860980496392  0.1741339055248  0.5084641105241 1.0
C      1  0.7231207653568  0.4983752051787  0.5075779932236 1.0
C      1  0.4385654698078  0.7098186821351  0.7056325780086 1.0
C      1  0.4538031598822  0.8761111689106  0.5216909181737 1.0
C      1  0.6114644176148  0.3235667250557  0.5565553733471 1.0
C      1  0.5846909936148  0.5768995407095  0.6537931755352 1.0
C      1  0.2982302513786  0.2767653781130  0.5818172799501 1.0
C      1  0.6558691210031  0.3089109951209  0.7147504522833 1.0
C      1  0.3050839365849  0.7121943320809  0.5641315536492 1.0
C      1  0.8204499592287  0.7064088944660  0.4248441929146 1.0
C      1  0.4134310689309  0.7349041940733  0.6071734971029 1.0
C      1  0.5705132833746  0.2848043992312  0.2461891820759 1.0
C      1  0.6347610135138  0.6381543555971  0.5041966749152 1.0
C      1  0.7477061203476  0.2856820071822  0.4791928302998 1.0
C      1  0.7198317463831  0.2890704682340  0.3269510777845 1.0
C      1  0.5961845336087  0.2396191694604  0.6765578273304 1.0
C      1  0.6259493954297  0.7414704453993  0.0898302766627 1.0
C      1  0.3883807553467  0.8374639707122  0.3997897134787 1.0
C      1  0.1891426192433  0.5781618007319  0.5934201174199 1.0
C      1  0.8223616692476  0.5205868606353  0.6538678310301 1.0
C      1  0.5134342204646  0.7568648250815  0.7318112302549 1.0
C      1  0.4257978640670  0.5319657813272  0.8075759409637 1.0
C      1  0.5169526867024  0.5339369213556  0.5028825738352 1.0
C      1  0.5359530513443  0.4143787673268  0.7897153859102 1.0
C      1  0.6204376404812  0.2281626075165  0.5817143828522 1.0
C      1  0.3114311451706  0.8089321700183  0.5378988689205 1.0
C      1  0.6559172388275  0.3205643459138  0.2637352625194 1.0
C      1  0.4293127581195  0.4666346182624  0.2186162004277 1.0
C      1  0.8382497327769  0.4487776771774  0.5917731372763 1.0
C      1  0.2990426971126  0.3647841139754  0.2848331608166 1.0
C      1  0.5179337604352  0.4229531246947  0.3814314186212 1.0
C      1  0.7020530584012  0.2385063840762  0.4057164588692 1.0
C      1  0.7776888736865  0.3601752923090  0.3507784224115 1.0
C      1  0.7140198152550  0.6386948419463  0.6868091851195 1.0
C      1  0.4245995364093  0.2042941145106  0.5289036322923 1.0
C      1  0.2243554301498  0.4477829531303  0.7000904359512 1.0
C      1  0.5956743757543  0.7614956870269  0.7121790506062 1.0
C      1  0.2387607940816  0.6590704574190  0.6173166810137 1.0
C      1  0.4858480886561  0.4492047530023  0.5547796948303 1.0
C      1  0.2394854522134  0.6497096753188  0.3205030270108 1.0
C      1  0.7188883843614  0.5928491639481  0.4707431639925 1.0
C      1  0.6560157727087  0.5602333152657  0.7321772723800 1.0
C      1  0.4172930423362  0.2560438870923  0.2806599214147 1.0
C      1  0.1875613713372  0.3988073321154  0.6296675970744 1.0
C      1  0.5146318189895  0.3418655127737  0.1961330853365 1.0
C      1  0.4304777597452  0.6069013496248  0.7314244046555 1.0
C      1  0.3761259233094  0.4542170739820  0.8035601743410 1.0
C      1  0.4388314746209  0.3714990222808  0.7941628825717 1.0
C      1  0.3666295317357  0.3928832874905  0.2185320420154 1.0
C      1  0.2926324048349  0.5928301460959  0.6744454338446 1.0
C      1  0.4950433785931  0.7124193247643  0.5420190085805 1.0
C      1  0.3632585465489  0.3443771131393  0.7220508767667 1.0
C      1  0.5954477574532  0.5609811372513  0.5575847147813 1.0
C      1  0.5239452007094  0.6002988326646  0.7159875599158 1.0
C      1  0.3052943489266  0.6893698338532  0.4617268307878 1.0
C      1  0.2238031817603  0.5600187568470  0.2789737534537 1.0
C      1  0.5206128092357  0.4380830932071  0.1980576646663 1.0
C      1  0.7518857354141  0.4392295727738  0.3040836022055 1.0
C      1  0.6910561653477  0.4678355228823  0.7451732625397 1.0
C      1  0.4931243664092  0.7047826169839  0.3547304387375 1.0
C      1  0.7936798061976  0.3613760364498  0.4457795343840 1.0
C      1  0.3383785735402  0.2430477728549  0.5001597612676 1.0
C      1  0.6517420525366  0.6562935568827  0.2425753983362 1.0
C      1  0.3136376867081  0.5761582200739  0.2497090846392 1.0
C      1  0.5156278806679  0.8012398676094  0.4825585683728 1.0
C      1  0.6417657640101  0.7020949889017  0.1629279571334 1.0
C      1  0.3930852580499  0.8339441995540  0.5817030637382 1.0
C      1  0.5215835332985  0.5045844365030  0.8165802141235 1.0
C      1  0.2043817594919  0.5431348045212  0.6841283219771 1.0
C      1  0.8168404997410  0.6213275666495  0.4524786552750 1.0
C      1  0.3374090377414  0.2822688663828  0.3285392158847 1.0
C      1  0.2270688748939  0.6430680222306  0.4124049218059 1.0
C      1  0.2181428933648  0.3207313204168  0.5804140952737 1.0
C      1  0.8400159030581  0.5261982440444  0.4205615364544 1.0
C      1  0.6997223961107  0.6764827889254  0.3238986108268 1.0
C      1  0.4244204455797  0.3170346351049  0.2092285808991 1.0
C      1  0.4355749001420  0.2218436560421  0.6272833898361 1.0
C      1  0.6043894887265  0.4783674217996  0.2210857375536 1.0
C      1  0.4723789416248  0.7851247056918  0.3918472609886 1.0
C      1  0.2311417015664  0.4022604140592  0.3414242499648 1.0
C      1  0.3051718926706  0.4156666324078  0.7457909253384 1.0
C      1  0.3264752342573  0.6665229084172  0.2782268971279 1.0
C      1  0.7049537895140  0.5874868713308  0.3687287266505 1.0
END
