TITL C-25249-492-4 -5.676 3375.00 -941.50526228 0 0 116 () n - 1
REM
REM Run started: at 2020.12.25 04:51:46 in /gpfs/home/chem/mssmkc/CARBON/AIRSS/Generating-Clusters/Str-Search/Only-C1/C100-200
REM VASP from code version vasp.5.4.4.18Apr17-6-g9f103f2a35 (build Oct 11 2019 16:45:47) gamma-only
REM
REM
REM
REM
REM ./C.cell (efaf0b2bf1589a83377268d7ebe2c73f)
REM AIRSS Version 0.9.1 bugfix July 2018 build 013d7b7c2542+ Fri, 06 Jul 2018 19:26:36 +0100
REM compiler GCC version 6.3.0
REM options -cpp -iprefix /gpfs/warwick/csc/orac/software/Core/GCCcore/6.3.0/bin/../lib/gcc/x86_64-pc-linux-gnu/6.3.0/ -mtune=generic -march=x86-64 -g -O0
REM seed 680104772 1612138064 1109232534 1378000820 1903807460 1770801321 -118211025 2001810520 116336947 -569114448 1606649128 26803242
REM
REM C.POTCAR (d86ddea03c3ceb6dc662c8ad6801f873)
REM 
CELL 1.54180   15.00000   15.00000   15.00000   90.00000   90.00000   90.00000
LATT -1
SFAC C  
C      1  0.4738551584442  0.3498805876215  0.2931539027489 1.0
C      1  0.8247146088258  0.4390693546279  0.4486796280197 1.0
C      1  0.3136044925894  0.4330303178979  0.5990384779661 1.0
C      1  0.7520014577589  0.6517741950048  0.5297678877369 1.0
C      1  0.2295771538442  0.4836943781223  0.7234630295058 1.0
C      1  0.3278626136403  0.3605700325027  0.4287197841767 1.0
C      1  0.4016124914610  0.2300216325737  0.7209806770556 1.0
C      1  0.3930010574013  0.8730014567073  0.5308992820264 1.0
C      1  0.5093099841116  0.2218693016710  0.3193722146722 1.0
C      1  0.8101654407602  0.5569109663483  0.3787588353046 1.0
C      1  0.3525297144684  0.7432340132090  0.3524442414274 1.0
C      1  0.5942860131858  0.5854730151689  0.2055546594827 1.0
C      1  0.2180890774446  0.4532383448561  0.6368766966765 1.0
C      1  0.4667703370835  0.8730926807809  0.5711556182731 1.0
C      1  0.3851006784136  0.6765373681975  0.3020215999334 1.0
C      1  0.2228292492061  0.5947091018682  0.5055821238528 1.0
C      1  0.8119792256566  0.5302683223310  0.6289386433779 1.0
C      1  0.7429303003910  0.2978145382535  0.4671107130186 1.0
C      1  0.3179894134852  0.3621791892366  0.5234077928018 1.0
C      1  0.5517868522267  0.2330277690240  0.5556499329132 1.0
C      1  0.3724573587750  0.2801067930619  0.4065026301541 1.0
C      1  0.4295281293776  0.6707253990457  0.6090333604888 1.0
C      1  0.5605191586523  0.3402589500763  0.8669390990049 1.0
C      1  0.3521972111579  0.7805583380118  0.7176871190113 1.0
C      1  0.7231317216468  0.5152108519905  0.7705304163250 1.0
C      1  0.7156746951984  0.4598107284865  0.2057181515688 1.0
C      1  0.5714456857801  0.4318476540650  0.1780222412179 1.0
C      1  0.6106087385602  0.3453738948549  0.2121451736680 1.0
C      1  0.6001384620429  0.6466413538676  0.7702385108919 1.0
C      1  0.6857843348943  0.6729741736600  0.3359165826856 1.0
C      1  0.4577573724218  0.4152347982208  0.6838565051631 1.0
C      1  0.6104761082243  0.4087212075953  0.8630373509948 1.0
C      1  0.7657161401184  0.4843521948027  0.6885771149472 1.0
C      1  0.5469742529191  0.2908350655978  0.2570322581210 1.0
C      1  0.6388380367303  0.2081591257806  0.5325837836761 1.0
C      1  0.6203409983561  0.5467319348370  0.4539298834540 1.0
C      1  0.5512082436317  0.4866167163719  0.4973935217399 1.0
C      1  0.6596835604749  0.7472002371655  0.3996368374302 1.0
C      1  0.4863440090394  0.4726911434853  0.1926686867097 1.0
C      1  0.2107642836610  0.5105796021155  0.4869687137745 1.0
C      1  0.7048341063002  0.3678448986568  0.2256274576868 1.0
C      1  0.3111423768206  0.4361028126076  0.3641798784579 1.0
C      1  0.4529596443156  0.2453104400732  0.7886420469448 1.0
C      1  0.3445532263010  0.2490102109824  0.2495788387825 1.0
C      1  0.3610913934262  0.5243725763669  0.5960079836154 1.0
C      1  0.6272623433470  0.4075863761504  0.7011822834469 1.0
C      1  0.5482754556133  0.3769826547524  0.6646899989387 1.0
C      1  0.6515992396015  0.5661088815583  0.7837445349438 1.0
C      1  0.2770676308579  0.7511371971447  0.4962482184285 1.0
C      1  0.4453694041196  0.5005752024724  0.7328592134713 1.0
C      1  0.6379520260821  0.4615253963740  0.7875580615154 1.0
C      1  0.7497524309829  0.3465286656934  0.5913699905467 1.0
C      1  0.5288894402303  0.3917974243143  0.3661266273720 1.0
C      1  0.4174197530374  0.2645812333613  0.3205865514833 1.0
C      1  0.3150382871165  0.8187071354892  0.5469512883246 1.0
C      1  0.4350166188467  0.6186365635704  0.2444787193853 1.0
C      1  0.2736047249706  0.7434568750433  0.3970460200390 1.0
C      1  0.5870106458213  0.7908269062813  0.6659474479559 1.0
C      1  0.3686514608713  0.2806346414272  0.6524871973290 1.0
C      1  0.5773713929505  0.6721952824573  0.5144075997148 1.0
C      1  0.7708398089123  0.6442712211293  0.3646528763373 1.0
C      1  0.5033884447669  0.8156281897963  0.6366688922565 1.0
C      1  0.6374712354407  0.5023814185440  0.1776976905863 1.0
C      1  0.5121053230594  0.6404652694510  0.8057116405107 1.0
C      1  0.6248680827121  0.7167068458732  0.7114529813213 1.0
C      1  0.5093853083174  0.6320918123353  0.5684179886968 1.0
C      1  0.3968360366814  0.2331688410473  0.4869027504539 1.0
C      1  0.6279812488352  0.2031381612810  0.4334074205940 1.0
C      1  0.7167834159595  0.2629521543132  0.5506153542251 1.0
C      1  0.5759148013287  0.3889947150033  0.5065431631394 1.0
C      1  0.4858045301732  0.2032168474500  0.4865233796144 1.0
C      1  0.3523862326847  0.2781339087662  0.5584974721343 1.0
C      1  0.0663572124576  0.4256945114155  0.4308726153870 1.0
C      1  0.6598032524152  0.6145963047450  0.5090034456263 1.0
C      1  0.7162589925428  0.4026575280044  0.6583483031958 1.0
C      1  0.0876403826213  0.4237663392167  0.5133772694086 1.0
C      1  0.5009249159922  0.5692620258343  0.1966751450907 1.0
C      1  0.1655150317975  0.6249543972760  0.3266239579473 1.0
C      1  0.3216078998200  0.7989667163379  0.6398395533558 1.0
C      1  0.5031795931979  0.2753742477089  0.8521281868742 1.0
C      1  0.4056388310176  0.4927348470183  0.3476209218811 1.0
C      1  0.2906934897619  0.5162825014037  0.7735055661033 1.0
C      1  0.5982494312818  0.3567255951741  0.4147599699868 1.0
C      1  0.3884400397658  0.5817185749116  0.3128086216595 1.0
C      1  0.7881447665181  0.6974584894782  0.4443394121074 1.0
C      1  0.2227181032768  0.4797227013560  0.3925333049015 1.0
C      1  0.1258118043259  0.4562185000408  0.3643620208737 1.0
C      1  0.1601391374082  0.5328408511525  0.3318796974702 1.0
C      1  0.6734565226276  0.7596023916417  0.6381698181743 1.0
C      1  0.3060171876690  0.3246355065907  0.2387435001797 1.0
C      1  0.2731875253660  0.6607079203305  0.5377214783192 1.0
C      1  0.7317880351768  0.7700625827109  0.4644106979809 1.0
C      1  0.5798923930720  0.5560782535704  0.3687035233583 1.0
C      1  0.3736013812937  0.3768104629385  0.6614056593939 1.0
C      1  0.8151101888485  0.5728264926448  0.5514486187953 1.0
C      1  0.7252162764731  0.7445046282537  0.5639655525733 1.0
C      1  0.4207934221924  0.4330276177533  0.2576371902320 1.0
C      1  0.4271856611864  0.7501522161684  0.6582493101220 1.0
C      1  0.4498239191312  0.5071957398097  0.6362697910348 1.0
C      1  0.3777346438687  0.5416312115183  0.7885670463500 1.0
C      1  0.5149883444049  0.5399512518980  0.5727416288548 1.0
C      1  0.3216026107276  0.4096936884289  0.2639447526006 1.0
C      1  0.2040110145405  0.6914338779596  0.3581260907433 1.0
C      1  0.5846092498548  0.7358146133327  0.4513180408778 1.0
C      1  0.5541627014319  0.3331711315434  0.5769641563884 1.0
C      1  0.4368571535250  0.6087890969753  0.8237840612676 1.0
C      1  0.6164785141116  0.6108217583663  0.2988386188109 1.0
C      1  0.8035895307441  0.4621337719357  0.3539005823017 1.0
C      1  0.7933926350056  0.3713840130095  0.5009203310105 1.0
C      1  0.8387747245959  0.5333309273496  0.4683156649745 1.0
C      1  0.1602360167757  0.4574514069577  0.5599913316592 1.0
C      1  0.6682157155960  0.2839211312531  0.4061662536795 1.0
C      1  0.7626934812070  0.4254139162888  0.2790585382228 1.0
C      1  0.5373095977340  0.1908561477501  0.4041906117519 1.0
C      1  0.3486023523778  0.6162965992661  0.5867572028228 1.0
C      1  0.5013361237166  0.4842297238180  0.3942065054010 1.0
END
