TITL C-25683-137-33 -6.703 3375.00 -1181.31068550 0 0 144 () n - 1
REM
REM Run started: at 2020.12.26 07:50:45 in /gpfs/home/chem/mssmkc/CARBON/AIRSS/Generating-Clusters/Str-Search/Only-C1/C100-200
REM VASP from code version vasp.5.4.4.18Apr17-6-g9f103f2a35 (build Oct 11 2019 16:45:47) gamma-only
REM
REM
REM
REM
REM ./C.cell (efaf0b2bf1589a83377268d7ebe2c73f)
REM AIRSS Version 0.9.1 bugfix July 2018 build 013d7b7c2542+ Fri, 06 Jul 2018 19:26:36 +0100
REM compiler GCC version 6.3.0
REM options -cpp -iprefix /gpfs/warwick/csc/orac/software/Core/GCCcore/6.3.0/bin/../lib/gcc/x86_64-pc-linux-gnu/6.3.0/ -mtune=generic -march=x86-64 -g -O0
REM seed -1852486616 -469675923 -1905039409 -1329581595 1721789680 870527905 612940489 -826112195 1413763207 -522933833 -1607277126 -734164213
REM
REM C.POTCAR (d86ddea03c3ceb6dc662c8ad6801f873)
REM 
CELL 1.54180   15.00000   15.00000   15.00000   90.00000   90.00000   90.00000
LATT -1
SFAC C  
C      1  0.3297283053321  0.4567630034084  0.1894611405886 1.0
C      1  0.4556862155037  0.4405957803579  0.7257980480725 1.0
C      1  0.2732271212968  0.6897094971075  0.5430371854524 1.0
C      1  0.6249830093421  0.4307892865359  0.8313869517255 1.0
C      1  0.6325715696674  0.4035643388563  0.5820921038151 1.0
C      1  0.3642773625735  0.6899454175202  0.4114439655504 1.0
C      1  0.4146498397642  0.7912243258988  0.5530850275964 1.0
C      1  0.1942274626244  0.3482710014220  0.3075534277455 1.0
C      1  0.2769314926988  0.5283726218087  0.5575591852861 1.0
C      1  0.7513060090962  0.5554356599619  0.5817188267095 1.0
C      1  0.4803691727818  0.3668075829603  0.3691126377876 1.0
C      1  0.4866920009339  0.2854845627597  0.2948070251426 1.0
C      1  0.0903800223928  0.4328563315778  0.5107596893173 1.0
C      1  0.4356979904391  0.4309896650711  0.3064408649501 1.0
C      1  0.6371549468215  0.3393024476591  0.8308240730193 1.0
C      1  0.1185263688067  0.5586137383148  0.3091387677962 1.0
C      1  0.6602533931399  0.8121107844640  0.5407531367645 1.0
C      1  0.5066381996367  0.5681678431582  0.5907606698098 1.0
C      1  0.6629300172103  0.5512972038333  0.5789664695699 1.0
C      1  0.8507238384010  0.6609163166776  0.5888838255052 1.0
C      1  0.6144091919899  0.2200735008349  0.4016012888115 1.0
C      1  0.5611513977940  0.6092838419738  0.1871509619361 1.0
C      1  0.4296100611348  0.8191876795705  0.4601472605073 1.0
C      1  0.3715811356175  0.7857640069586  0.3922556867687 1.0
C      1  0.5235408318486  0.5526261853703  0.9079052133771 1.0
C      1  0.3329498791129  0.2998179040047  0.6601938549687 1.0
C      1  0.5677006941865  0.4284209963899  0.3729270130464 1.0
C      1  0.3944000724104  0.2634824417887  0.7228146438472 1.0
C      1  0.3835795355690  0.2901182932474  0.2758410238177 1.0
C      1  0.3230069039609  0.2426190422895  0.3272674440647 1.0
C      1  0.5112962434012  0.6370709296857  0.3744285834641 1.0
C      1  0.5146457666320  0.6302722165193  0.5121100332795 1.0
C      1  0.9074694403237  0.6006092237462  0.5378943819054 1.0
C      1  0.5168850498397  0.2370606491659  0.5758986681147 1.0
C      1  0.7526727630122  0.5683811551338  0.4052641368979 1.0
C      1  0.6425038238101  0.2696488558094  0.6756727587842 1.0
C      1  0.4989118996936  0.6747589646956  0.2204654575131 1.0
C      1  0.5188698145439  0.2440636183437  0.8246415953993 1.0
C      1  0.3890752556556  0.5404893333623  0.8240415173220 1.0
C      1  0.7413239511760  0.3907165041267  0.7185307769830 1.0
C      1  0.0665668271955  0.4551643495110  0.4346323912841 1.0
C      1  0.0855531639025  0.4772130508489  0.3457768902418 1.0
C      1  0.1545530210828  0.4259595959649  0.2937739249126 1.0
C      1  0.3892738208638  0.5143805606066  0.1438706840691 1.0
C      1  0.4916324359916  0.3162124497920  0.5365727928654 1.0
C      1  0.5300904573347  0.3961456611862  0.5792986414206 1.0
C      1  0.6865012850019  0.3158783071158  0.5930730281191 1.0
C      1  0.6730010293148  0.6265161993252  0.4093128687480 1.0
C      1  0.6125389008949  0.4524106539544  0.6723120537494 1.0
C      1  0.5755263297819  0.4949064068610  0.4547767891110 1.0
C      1  0.5667945433485  0.8206673857594  0.5373067235332 1.0
C      1  0.4317030368927  0.3507012217211  0.4630476231068 1.0
C      1  0.8044441454340  0.3659505964810  0.5376707765317 1.0
C      1  0.7047726326853  0.8038315168592  0.4554044299846 1.0
C      1  0.7298840998041  0.6416107332586  0.7063050270377 1.0
C      1  0.7352278016504  0.4227205181352  0.3346249099041 1.0
C      1  0.5519102469076  0.2434503152808  0.6695141631481 1.0
C      1  0.6599916545689  0.5781253880688  0.7387286185540 1.0
C      1  0.1746066430420  0.4693355029940  0.6583923064618 1.0
C      1  0.1347437282231  0.6398538030031  0.3513983933343 1.0
C      1  0.2752495371104  0.6552256978840  0.4469836378499 1.0
C      1  0.7962549902357  0.6090524707317  0.6482048381391 1.0
C      1  0.5256781627338  0.3173496028928  0.2052409530201 1.0
C      1  0.4967741539679  0.7887925062310  0.6017883625851 1.0
C      1  0.5923463911120  0.7160880561559  0.7208003757512 1.0
C      1  0.5251236501682  0.4104452561669  0.6770275472174 1.0
C      1  0.4092548854092  0.4525159107047  0.5010572193949 1.0
C      1  0.6580961182592  0.4770393475453  0.5131252615946 1.0
C      1  0.3186459837700  0.3187300175664  0.7476538419772 1.0
C      1  0.5929067185746  0.6402806743811  0.7818534547934 1.0
C      1  0.3843703456553  0.3811685019221  0.2301902214865 1.0
C      1  0.6855711363286  0.3177744199216  0.7496269672847 1.0
C      1  0.6752699769488  0.4714454078579  0.7522091794061 1.0
C      1  0.2557880664667  0.3150844292044  0.4554428718065 1.0
C      1  0.4026321315139  0.7267014131584  0.3163942846208 1.0
C      1  0.5638812436387  0.7923928509426  0.3690210767241 1.0
C      1  0.4783148622428  0.5577903635128  0.3315233442892 1.0
C      1  0.2422843413054  0.2934178915498  0.3592450830791 1.0
C      1  0.5236201358555  0.8296089230981  0.4494478734927 1.0
C      1  0.7539644530434  0.5130558376173  0.3160064545604 1.0
C      1  0.3568840474863  0.6614144099210  0.6499241571361 1.0
C      1  0.5075339225037  0.7352752219709  0.6828305829118 1.0
C      1  0.3449298943745  0.4534597762558  0.5852354665773 1.0
C      1  0.4583218724492  0.4660443607054  0.8183032423940 1.0
C      1  0.4818522954941  0.2345293764946  0.7394027324011 1.0
C      1  0.5022586375018  0.4808819635903  0.5290652742731 1.0
C      1  0.5254319061012  0.4819550719644  0.2868048265219 1.0
C      1  0.1895085716102  0.5133860769613  0.2584298200452 1.0
C      1  0.5823973451947  0.5995051416511  0.4387399778500 1.0
C      1  0.6533772074828  0.6134185143069  0.2018346455105 1.0
C      1  0.6558059360737  0.7809298622807  0.3760343890963 1.0
C      1  0.4006188916293  0.6690052348290  0.2267877687264 1.0
C      1  0.5244433730413  0.6234814571560  0.8431179213827 1.0
C      1  0.4256073600717  0.5843101401288  0.6477105702219 1.0
C      1  0.1972074470384  0.6727382038823  0.3926687200160 1.0
C      1  0.5834618722625  0.2696466922208  0.8700966088486 1.0
C      1  0.2246040610903  0.4589847509735  0.7402815579887 1.0
C      1  0.4645865815515  0.3764128491450  0.1685111350224 1.0
C      1  0.4036782424606  0.5116972874541  0.3508890098025 1.0
C      1  0.6581952895236  0.3860771863961  0.3770973029058 1.0
C      1  0.2177497348558  0.3497382347660  0.5425256043299 1.0
C      1  0.7002418224432  0.6993836424614  0.3422296202275 1.0
C      1  0.3824325828643  0.4913720505882  0.6767682677272 1.0
C      1  0.5419191983279  0.4714668969757  0.8640400239973 1.0
C      1  0.7301258130218  0.5688108554320  0.2433455305107 1.0
C      1  0.5071914316847  0.7212015670033  0.3144268251777 1.0
C      1  0.7378743454383  0.3043766725073  0.5012042241157 1.0
C      1  0.7671197134580  0.3638792046542  0.6285351184746 1.0
C      1  0.7268627522838  0.3279530473068  0.3146753514996 1.0
C      1  0.4349885387995  0.6240360949990  0.8056385786679 1.0
C      1  0.7992604956769  0.7370223663902  0.5622552006402 1.0
C      1  0.5430854534068  0.1526683536902  0.5350089158899 1.0
C      1  0.6025378989545  0.1653961162984  0.4770842931101 1.0
C      1  0.5319403657140  0.2151972630533  0.3525182367294 1.0
C      1  0.3601161007455  0.5087208551454  0.4344818639020 1.0
C      1  0.3120339915273  0.3522766513229  0.5801181412269 1.0
C      1  0.3412535850209  0.3188813340763  0.4886762294203 1.0
C      1  0.3498771971058  0.5940557771090  0.1920698292401 1.0
C      1  0.2920679577422  0.5566690614572  0.4677462653459 1.0
C      1  0.7173344083909  0.7678905213629  0.6076067106641 1.0
C      1  0.7674442446567  0.6712547720767  0.4105010223012 1.0
C      1  0.5361222572648  0.5135280770799  0.1905588729495 1.0
C      1  0.6878011985297  0.2943582815109  0.4088840376978 1.0
C      1  0.3471833146214  0.7312823655765  0.5803457986362 1.0
C      1  0.7816771473835  0.7478555277980  0.4690810216131 1.0
C      1  0.8401145724147  0.4498494183255  0.4999694177851 1.0
C      1  0.4505725989537  0.6547220764938  0.4506847383227 1.0
C      1  0.3748273459283  0.1757356614882  0.3740110261250 1.0
C      1  0.9024313580652  0.5162115128139  0.5245376954087 1.0
C      1  0.7585341906392  0.5100683725753  0.4898791966997 1.0
C      1  0.2723524548632  0.5293869892845  0.2220995324339 1.0
C      1  0.6886537977609  0.2939927067371  0.2345315862245 1.0
C      1  0.1513936466948  0.4047852034578  0.5778984511190 1.0
C      1  0.2815422280915  0.4013127938358  0.7814999938429 1.0
C      1  0.4571760095435  0.1618643361818  0.3757472972587 1.0
C      1  0.6171628479497  0.3034999231577  0.1942808231758 1.0
C      1  0.6850401129447  0.7243301620998  0.6851531040542 1.0
C      1  0.3182804011952  0.4961576853382  0.7588948320959 1.0
C      1  0.4761353708451  0.4683004444219  0.1361911297446 1.0
C      1  0.4319033201310  0.6668901269619  0.7157785406698 1.0
C      1  0.5970121240383  0.5509875896683  0.6468404202992 1.0
C      1  0.2037510062534  0.5477167656087  0.6178006829766 1.0
C      1  0.2661465721377  0.6202476942325  0.6162417775059 1.0
C      1  0.7121422982536  0.6608345202451  0.2545972523275 1.0
END
