TITL C-25683-137-3 -5.395 3375.00 -929.29729594 0 0 114 () n - 1
REM
REM Run started: at 2020.12.25 02:41:34 in /gpfs/home/chem/mssmkc/CARBON/AIRSS/Generating-Clusters/Str-Search/Only-C1/C100-200
REM VASP from code version vasp.5.4.4.18Apr17-6-g9f103f2a35 (build Oct 11 2019 16:45:47) gamma-only
REM
REM
REM
REM
REM ./C.cell (efaf0b2bf1589a83377268d7ebe2c73f)
REM AIRSS Version 0.9.1 bugfix July 2018 build 013d7b7c2542+ Fri, 06 Jul 2018 19:26:36 +0100
REM compiler GCC version 6.3.0
REM options -cpp -iprefix /gpfs/warwick/csc/orac/software/Core/GCCcore/6.3.0/bin/../lib/gcc/x86_64-pc-linux-gnu/6.3.0/ -mtune=generic -march=x86-64 -g -O0
REM seed -516549826 38974787 -3393335 1495285180 -290778245 491139239 -1560840774 -1968433086 -900298175 1974764979 1871953843 -251446410
REM
REM C.POTCAR (d86ddea03c3ceb6dc662c8ad6801f873)
REM 
CELL 1.54180   15.00000   15.00000   15.00000   90.00000   90.00000   90.00000
LATT -1
SFAC C  
C      1  0.7505819169242  0.7149251846439  0.5800359525504 1.0
C      1  0.4942105146932  0.7135197983479  0.2745270088115 1.0
C      1  0.3504334394998  0.6876565642799  0.7395476579144 1.0
C      1  0.2303330516936  0.4393178554792  0.5909991268254 1.0
C      1  0.3965582949299  0.7188106198812  0.5390155112923 1.0
C      1  0.1206030178515  0.4333335066050  0.3810156980550 1.0
C      1  0.4940470922719  0.2850833930527  0.3713217827824 1.0
C      1  0.5699209202493  0.4212043978332  0.4532253014376 1.0
C      1  0.7703407717325  0.7216068753709  0.4831682820007 1.0
C      1  0.5374553516618  0.3770479446920  0.6111452047472 1.0
C      1  0.4337620721179  0.2091907793855  0.4913888941260 1.0
C      1  0.2304158142009  0.2269244421023  0.5900006766337 1.0
C      1  0.0703135760427  0.4822066049426  0.3317922064320 1.0
C      1  0.3608411843913  0.4371078897261  0.4446148693993 1.0
C      1  0.7239313109802  0.6205126063592  0.3747510734673 1.0
C      1  0.4969636599349  0.3574798037706  0.7074873081341 1.0
C      1  0.5054268753330  0.1952102122401  0.4252399888020 1.0
C      1  0.5514588760160  0.4682939003833  0.8345089041770 1.0
C      1  0.5065017580796  0.2923681978957  0.2065062095406 1.0
C      1  0.4346412238905  0.3046070064386  0.4556113186610 1.0
C      1  0.6567116259104  0.5087988442447  0.5648014217302 1.0
C      1  0.6168849908677  0.1706259220796  0.5469561350823 1.0
C      1  0.4350723060827  0.8131435353104  0.5577857749797 1.0
C      1  0.3106772289205  0.3381687325417  0.3305165330884 1.0
C      1  0.3458219371905  0.3453528079219  0.4261100334073 1.0
C      1  0.5624105701821  0.2904708627087  0.6700288292601 1.0
C      1  0.4756654375588  0.6186422663634  0.7872660555245 1.0
C      1  0.4526386989886  0.3000855342086  0.2782325494522 1.0
C      1  0.6489400047347  0.4295090412558  0.2391634407597 1.0
C      1  0.7285284848710  0.3231786445208  0.6988798519654 1.0
C      1  0.5258507437059  0.5456360692772  0.8173085678172 1.0
C      1  0.6365562854362  0.6336273707576  0.6666912175967 1.0
C      1  0.3429278929725  0.5166329492585  0.3920272496586 1.0
C      1  0.2533863112969  0.6975518991307  0.5091921016023 1.0
C      1  0.5834425232714  0.5582525216139  0.6196676952701 1.0
C      1  0.7480937241652  0.3606592940870  0.3689171821147 1.0
C      1  0.3625520719809  0.5843226550471  0.4636965466167 1.0
C      1  0.3817101997493  0.6064491961298  0.7776629780037 1.0
C      1  0.3947703254172  0.6988445809332  0.2959500875858 1.0
C      1  0.5306962768173  0.7774434733869  0.5751920098336 1.0
C      1  0.2710922737929  0.5970014241148  0.5131842813468 1.0
C      1  0.7885317513193  0.4730743214023  0.6590887060930 1.0
C      1  0.5202854353157  0.6387526478637  0.2141392096757 1.0
C      1  0.7438933051347  0.5431972829617  0.6011801784275 1.0
C      1  0.5900397041470  0.7100719539341  0.6997505164713 1.0
C      1  0.6630176587938  0.3808891674488  0.3228963242377 1.0
C      1  0.3967472625438  0.6772556141447  0.4466193911079 1.0
C      1  0.7125354918012  0.4554564529940  0.3827344467487 1.0
C      1  0.2500045286968  0.3299682781423  0.3946731735770 1.0
C      1  0.5618189992110  0.3189829977946  0.1481671313910 1.0
C      1  0.2670466129801  0.7301397049668  0.4243656648443 1.0
C      1  0.2911889089175  0.6689235666727  0.6703257134877 1.0
C      1  0.5866659529305  0.3377011281855  0.3831793144798 1.0
C      1  0.6585630624153  0.5260771570975  0.2515178662016 1.0
C      1  0.5026730420499  0.7022319205109  0.7394419953055 1.0
C      1  0.6811930627738  0.7828728785188  0.5736912353151 1.0
C      1  0.5907624113809  0.2069605427180  0.6295444041656 1.0
C      1  0.7449159706502  0.4171433182116  0.7153120993135 1.0
C      1  0.3433485569862  0.7228845237798  0.3761955404502 1.0
C      1  0.8122594091860  0.4785187176381  0.5662207183251 1.0
C      1  0.6815487885308  0.2022240745185  0.6075278053004 1.0
C      1  0.5903200013256  0.4068599177222  0.1701554106146 1.0
C      1  0.3874938786899  0.1906579668733  0.5636123190162 1.0
C      1  0.6074920654236  0.7814198997334  0.6314290284521 1.0
C      1  0.5388726685305  0.4873013883899  0.1631994203576 1.0
C      1  0.5010667165579  0.5902765005695  0.5789538812875 1.0
C      1  0.3809443396224  0.7992159499470  0.6380283603630 1.0
C      1  0.5735317160624  0.3954185925620  0.7741390653318 1.0
C      1  0.3234564136067  0.2336120010906  0.6136947000678 1.0
C      1  0.1760707557392  0.3825985359381  0.4315883950753 1.0
C      1  0.6347179210877  0.3198721220385  0.7334303269937 1.0
C      1  0.3760716940397  0.3627925986843  0.2678889544269 1.0
C      1  0.6938162475312  0.7828896781128  0.4731925413019 1.0
C      1  0.5859497649641  0.5686916347861  0.2014304376903 1.0
C      1  0.6446490582944  0.4272560277302  0.7129848819626 1.0
C      1  0.5577277781639  0.6090506115431  0.4145226658837 1.0
C      1  0.6036696433689  0.4533808983548  0.6288104916950 1.0
C      1  0.4381434243604  0.5904839791357  0.1984301587105 1.0
C      1  0.3719003007236  0.6133580252431  0.2594296737099 1.0
C      1  0.4211758829126  0.4481946788643  0.5125428968981 1.0
C      1  0.7600430397122  0.4116191930393  0.5253738708058 1.0
C      1  0.5932187095991  0.1921597517180  0.4572469563726 1.0
C      1  0.4905026698603  0.3783557910545  0.5178379401079 1.0
C      1  0.4464819843403  0.4972531267645  0.1818750582882 1.0
C      1  0.3415981666717  0.4436633825381  0.7194295727069 1.0
C      1  0.7927186932588  0.6561951768530  0.4239897229431 1.0
C      1  0.6254662073601  0.7541857177172  0.4038323695378 1.0
C      1  0.3433498854775  0.5269558009027  0.2984002670817 1.0
C      1  0.4172320940351  0.7510050942468  0.7152976596965 1.0
C      1  0.7435595724917  0.2742174277151  0.6156408600000 1.0
C      1  0.6718579351734  0.4533549877069  0.4798971364146 1.0
C      1  0.3805263565372  0.4530350752437  0.2385094111007 1.0
C      1  0.1881161309340  0.2927939213360  0.5611649949890 1.0
C      1  0.3291627634626  0.5335874225826  0.7376975026911 1.0
C      1  0.5264930340046  0.7729985672821  0.4232605266736 1.0
C      1  0.2700239396687  0.5776251045485  0.6698872981496 1.0
C      1  0.5111280768174  0.8369345330423  0.4991000885153 1.0
C      1  0.7247758797917  0.6373957861515  0.6252552228793 1.0
C      1  0.4505995966978  0.5387881139724  0.5095099065121 1.0
C      1  0.3345663511084  0.3142431758820  0.6673131425538 1.0
C      1  0.2797506867983  0.3973316199803  0.6601550280422 1.0
C      1  0.7124640653053  0.5380404847541  0.3267704790049 1.0
C      1  0.4005195847530  0.3631148073452  0.7155755935074 1.0
C      1  0.1837001883208  0.3790753683924  0.5302592271565 1.0
C      1  0.7340850060981  0.2957552566277  0.4374378453712 1.0
C      1  0.7618896044987  0.3169863472368  0.5300855818854 1.0
C      1  0.4928651314853  0.6831809660281  0.5542842816330 1.0
C      1  0.5462108559631  0.7737166437705  0.3282702886676 1.0
C      1  0.2467193668614  0.5369254357684  0.5868451350369 1.0
C      1  0.4958967634077  0.6805770896957  0.4489241815488 1.0
C      1  0.5289514628785  0.5232111938426  0.4388942397614 1.0
C      1  0.6439409205380  0.2651805320539  0.4260683893441 1.0
C      1  0.6366373820454  0.6560909280391  0.3925450771679 1.0
C      1  0.3076671708671  0.7269841110223  0.5941966806103 1.0
END
