TITL C-25249-492-29 -5.975 3375.00 -1022.05415662 0 0 125 () n - 1
REM
REM Run started: at 2020.12.25 23:00:39 in /gpfs/home/chem/mssmkc/CARBON/AIRSS/Generating-Clusters/Str-Search/Only-C1/C100-200
REM VASP from code version vasp.5.4.4.18Apr17-6-g9f103f2a35 (build Oct 11 2019 16:45:47) gamma-only
REM
REM
REM
REM
REM ./C.cell (efaf0b2bf1589a83377268d7ebe2c73f)
REM AIRSS Version 0.9.1 bugfix July 2018 build 013d7b7c2542+ Fri, 06 Jul 2018 19:26:36 +0100
REM compiler GCC version 6.3.0
REM options -cpp -iprefix /gpfs/warwick/csc/orac/software/Core/GCCcore/6.3.0/bin/../lib/gcc/x86_64-pc-linux-gnu/6.3.0/ -mtune=generic -march=x86-64 -g -O0
REM seed -1300644951 1421466393 -877322101 1484873231 -329795248 -626226441 16429756 -56255239 -528737746 -2033260197 -777235884 2136009861
REM
REM C.POTCAR (d86ddea03c3ceb6dc662c8ad6801f873)
REM 
CELL 1.54180   15.00000   15.00000   15.00000   90.00000   90.00000   90.00000
LATT -1
SFAC C  
C      1  0.3497445956029  0.6467735831449  0.2784552115849 1.0
C      1  0.1688895198518  0.4940587617872  0.3183594250415 1.0
C      1  0.7332103882983  0.4824523426322  0.3575360127256 1.0
C      1  0.6073555238575  0.8297092175153  0.2933243052515 1.0
C      1  0.6766663537982  0.4831793569305  0.5048976119884 1.0
C      1  0.7176807576747  0.6099835636135  0.2451642296825 1.0
C      1  0.7590195530047  0.4524385963561  0.4504440991921 1.0
C      1  0.3810741893236  0.4777079629839  0.4111131922221 1.0
C      1  0.6256887052040  0.6579402180353  0.7339494190084 1.0
C      1  0.6311217460811  0.4665367992969  0.4117250687629 1.0
C      1  0.3936044998836  0.2013737299093  0.4339643344351 1.0
C      1  0.3747791606529  0.3991367574618  0.5492224689566 1.0
C      1  0.3740502461509  0.2402437669439  0.3546863118094 1.0
C      1  0.7298204689984  0.7148940801579  0.4394227671978 1.0
C      1  0.2632590938901  0.5110348155417  0.3183055023346 1.0
C      1  0.6000046014664  0.3166791943490  0.3108882050364 1.0
C      1  0.1072999193580  0.5466614060803  0.5625527314541 1.0
C      1  0.5207297005752  0.8251969785814  0.3263258818923 1.0
C      1  0.8022981786738  0.3581883272720  0.5637935881989 1.0
C      1  0.1703110639405  0.6143321130123  0.6057651567915 1.0
C      1  0.4561056650790  0.3573440090440  0.2556831219312 1.0
C      1  0.5915027836631  0.3684252545210  0.4116698354761 1.0
C      1  0.5492026631655  0.4350163819868  0.6037461481884 1.0
C      1  0.7437561857984  0.6328627520324  0.5864573172477 1.0
C      1  0.5493240631740  0.5167195645807  0.3868909852769 1.0
C      1  0.2545106022615  0.5091434326534  0.5336669432608 1.0
C      1  0.2625649833342  0.2095909296501  0.5778036521014 1.0
C      1  0.5743558223791  0.5937712437576  0.5818544593782 1.0
C      1  0.5546875656402  0.2183650526072  0.4281524118554 1.0
C      1  0.1803875420929  0.5677269079016  0.2478785927211 1.0
C      1  0.5369912658842  0.7065959904871  0.7358660934171 1.0
C      1  0.6207565734133  0.5087487767742  0.8233117872658 1.0
C      1  0.6662342216281  0.6918129561767  0.2291344948885 1.0
C      1  0.5666692824046  0.7781066750119  0.6813080764978 1.0
C      1  0.5507236523185  0.4420166173903  0.8279599078873 1.0
C      1  0.4217459525734  0.6134610225560  0.2262112531802 1.0
C      1  0.6716807761727  0.5668114030336  0.5627950140248 1.0
C      1  0.5316487576559  0.5038057785657  0.1646793189130 1.0
C      1  0.6643229410374  0.2559936953639  0.6330265474410 1.0
C      1  0.7451226832574  0.5811249352728  0.3310795846258 1.0
C      1  0.1680002977764  0.4895575607288  0.5110539000638 1.0
C      1  0.7473787794380  0.5618792918953  0.6356526090103 1.0
C      1  0.6631053843142  0.2906861497053  0.7255281815654 1.0
C      1  0.6775935629549  0.4523078829279  0.2089601927381 1.0
C      1  0.1788448073588  0.3525943417501  0.6069157464880 1.0
C      1  0.4400410649513  0.6486984221383  0.5016109899076 1.0
C      1  0.3600371128285  0.7684374529922  0.4234658724350 1.0
C      1  0.2619959654344  0.4794220431173  0.6934846678645 1.0
C      1  0.6392499211178  0.4165158555262  0.8269363584756 1.0
C      1  0.4099785706470  0.2411399188692  0.6859274131748 1.0
C      1  0.3937514192631  0.5652371715488  0.7440751340893 1.0
C      1  0.6549141976874  0.7317613367118  0.6726788117877 1.0
C      1  0.0295409969930  0.5660642585330  0.5983822508730 1.0
C      1  0.1410755963426  0.4096284501964  0.4587936955674 1.0
C      1  0.4689157261692  0.7547540945517  0.2858953447547 1.0
C      1  0.1977503110023  0.6927379855879  0.5705490272688 1.0
C      1  0.5792273755771  0.2387988510974  0.7131191910558 1.0
C      1  0.3810576979637  0.4146586902503  0.7940178668648 1.0
C      1  0.6629087061621  0.5720104226750  0.7662736723241 1.0
C      1  0.1451541145911  0.3326918393439  0.5230654420766 1.0
C      1  0.2465873299079  0.3891975925229  0.6542723292153 1.0
C      1  0.3576860902230  0.3265428561271  0.8107876747819 1.0
C      1  0.4953503250018  0.8588900325864  0.4123002696127 1.0
C      1  0.6800357222051  0.5437149206362  0.1888337513383 1.0
C      1  0.4462633907013  0.2758206673878  0.3099539591610 1.0
C      1  0.2004964570226  0.2591052904339  0.5435537989207 1.0
C      1  0.4779056874455  0.1866714426749  0.4753277294974 1.0
C      1  0.3452558701377  0.4623814372964  0.3283603512346 1.0
C      1  0.7119706392583  0.7230026416302  0.5971173186298 1.0
C      1  0.4694988681751  0.5202833465000  0.7183164556703 1.0
C      1  0.7812199776974  0.3621928867010  0.4716138570323 1.0
C      1  0.4719200538050  0.4390194054267  0.7767182854159 1.0
C      1  0.2648218112795  0.5989960174085  0.2892546228064 1.0
C      1  0.3750704857114  0.2540603575182  0.7720171196656 1.0
C      1  0.2930188240193  0.6882343693045  0.5608069685628 1.0
C      1  0.7530411264117  0.4277296749503  0.7176005843316 1.0
C      1  0.4579217929007  0.8317589420203  0.5533013623716 1.0
C      1  0.3802684513487  0.6469283931174  0.6974130343954 1.0
C      1  0.5003278784034  0.3812997865573  0.4433490963666 1.0
C      1  0.5365548237241  0.2469384357590  0.3405567557249 1.0
C      1  0.3260285228623  0.3530265353426  0.6093261932455 1.0
C      1  0.5493346916577  0.3618965940497  0.2387800371529 1.0
C      1  0.5035278749247  0.5262900366136  0.6176125105224 1.0
C      1  0.6847201386104  0.7521682089008  0.5111526290991 1.0
C      1  0.4448325800844  0.5179173045318  0.2044101263695 1.0
C      1  0.4086914596729  0.5652625197947  0.5576411385182 1.0
C      1  0.4968441873776  0.2765867774697  0.6740920639673 1.0
C      1  0.5265516579617  0.6012159738086  0.3726984661127 1.0
C      1  0.3496866843863  0.2512108063353  0.6040045459073 1.0
C      1  0.1333843072326  0.4326125124346  0.3720483261733 1.0
C      1  0.4748690571485  0.4596721165599  0.4096379549214 1.0
C      1  0.4761299444549  0.7889686430448  0.6375852805247 1.0
C      1  0.3508781324939  0.4886569789787  0.5087168668854 1.0
C      1  0.7003715990824  0.3278093685841  0.3232749634123 1.0
C      1  0.2531612099120  0.5537256016021  0.6251525491024 1.0
C      1  0.4569666558731  0.6469025030465  0.4012905519568 1.0
C      1  0.5856605044544  0.4272147503563  0.1874040807768 1.0
C      1  0.3285779512198  0.4894190853775  0.7570712463198 1.0
C      1  0.3542783359173  0.7077258656571  0.4988145999559 1.0
C      1  0.6122204080508  0.1639831661414  0.6629724692141 1.0
C      1  0.4076006660230  0.4416954152255  0.2525713184066 1.0
C      1  0.5339338848671  0.8288595862509  0.4946868591936 1.0
C      1  0.3958942708312  0.7146502578955  0.3432826365336 1.0
C      1  0.6205970289673  0.3151533017490  0.5607885907823 1.0
C      1  0.5942327811157  0.5752870109513  0.1573550736230 1.0
C      1  0.4128362175182  0.2470126165517  0.5205480253702 1.0
C      1  0.6908397121066  0.1539083112816  0.6239957186881 1.0
C      1  0.6638542354669  0.7756070907282  0.2650923696585 1.0
C      1  0.4932928236841  0.6857896360012  0.2241596177827 1.0
C      1  0.6301346033350  0.4174726530095  0.5652566109295 1.0
C      1  0.3328087543852  0.6153650536576  0.6174023526910 1.0
C      1  0.4450446995966  0.7131259938710  0.6986895013093 1.0
C      1  0.5804719938379  0.6624196547882  0.1902157000997 1.0
C      1  0.4510499829809  0.3412843347856  0.5190552604849 1.0
C      1  0.7232411196376  0.3058007715095  0.4139999970164 1.0
C      1  0.7224766212155  0.4142208617828  0.2852249597508 1.0
C      1  0.4119884894070  0.8366805771380  0.4591654104617 1.0
C      1  0.7518693915867  0.6484482985868  0.3947501152382 1.0
C      1  0.7930841056953  0.3939866673816  0.6388236119108 1.0
C      1  0.6927706139284  0.3670739933243  0.7657849473846 1.0
C      1  0.5377651131351  0.6696490009931  0.5391248368894 1.0
C      1  0.7343874624502  0.5223670756344  0.7198504750781 1.0
C      1  0.5868568815630  0.7504023789210  0.5117594864803 1.0
C      1  0.5213825498232  0.3366770378884  0.5952513159487 1.0
C      1  0.6302296302921  0.2864821037857  0.4625650458847 1.0
END
