TITL C-25683-137-15 -7.418 3375.00 -1253.01910012 0 0 155 () n - 1
REM
REM Run started: at 2020.12.25 12:38:15 in /gpfs/home/chem/mssmkc/CARBON/AIRSS/Generating-Clusters/Str-Search/Only-C1/C100-200
REM VASP from code version vasp.5.4.4.18Apr17-6-g9f103f2a35 (build Oct 11 2019 16:45:47) gamma-only
REM
REM
REM
REM
REM ./C.cell (efaf0b2bf1589a83377268d7ebe2c73f)
REM AIRSS Version 0.9.1 bugfix July 2018 build 013d7b7c2542+ Fri, 06 Jul 2018 19:26:36 +0100
REM compiler GCC version 6.3.0
REM options -cpp -iprefix /gpfs/warwick/csc/orac/software/Core/GCCcore/6.3.0/bin/../lib/gcc/x86_64-pc-linux-gnu/6.3.0/ -mtune=generic -march=x86-64 -g -O0
REM seed -695630086 -446367016 2040380245 -1172905032 -1622845735 -1662500713 1104433787 -1515879987 -611673843 1493077875 -747308394 -1920104224
REM
REM C.POTCAR (d86ddea03c3ceb6dc662c8ad6801f873)
REM 
CELL 1.54180   15.00000   15.00000   15.00000   90.00000   90.00000   90.00000
LATT -1
SFAC C  
C      1  0.1874796208649  0.3372534466287  0.5812887962112 1.0
C      1  0.7930173633046  0.5069640538016  0.6757572077291 1.0
C      1  0.3244455455773  0.3496112237371  0.4814047544228 1.0
C      1  0.6957352859213  0.6812883116578  0.3942085114461 1.0
C      1  0.4517959436233  0.6589267123051  0.5725305391417 1.0
C      1  0.4187949477329  0.8435643853294  0.4667324936381 1.0
C      1  0.6546436768522  0.8279183966232  0.4929488973021 1.0
C      1  0.4038034669525  0.1662529326626  0.6659869761478 1.0
C      1  0.6655173808286  0.1757850822607  0.3042992115900 1.0
C      1  0.6640410548860  0.7778534401624  0.4069102901693 1.0
C      1  0.4236674462256  0.3838244417828  0.7989192707840 1.0
C      1  0.2177866204443  0.4682246579452  0.7661917478585 1.0
C      1  0.4371548679859  0.6080531059214  0.3376513770011 1.0
C      1  0.4249743802346  0.2944309176035  0.7563735383124 1.0
C      1  0.5466435556539  0.4092722598061  0.7005785931613 1.0
C      1  0.1219925221471  0.4675191939422  0.4562688775263 1.0
C      1  0.2103452349081  0.6052302978490  0.2371312518309 1.0
C      1  0.7335620175322  0.1660977379633  0.6142389139789 1.0
C      1  0.5679550594879  0.4874584386351  0.4870286122204 1.0
C      1  0.7473868089476  0.3542235606745  0.2758709392419 1.0
C      1  0.6119372457185  0.4592483351453  0.6392759846603 1.0
C      1  0.7755033908324  0.4985756826013  0.7787056540326 1.0
C      1  0.4772499918962  0.7942656677042  0.1554117845411 1.0
C      1  0.6837945444297  0.2370655569480  0.3747646102802 1.0
C      1  0.2791718384893  0.6850764984071  0.5413928999072 1.0
C      1  0.7465586705983  0.6324541810023  0.3140911456431 1.0
C      1  0.3610437982704  0.7872799121517  0.2322182663834 1.0
C      1  0.7939935878300  0.5881492232472  0.6143875707260 1.0
C      1  0.7534945452939  0.6446254815536  0.4748731512411 1.0
C      1  0.3841637380410  0.7476217477924  0.7262799420081 1.0
C      1  0.6922143328924  0.5014777847041  0.2108852721521 1.0
C      1  0.8617005077259  0.4669533088218  0.6052565361085 1.0
C      1  0.5060244203894  0.2927382756238  0.6083098894359 1.0
C      1  0.1784255501112  0.4086656293382  0.6982293284779 1.0
C      1  0.3674020634815  0.7882958154970  0.1349659067995 1.0
C      1  0.5154170713866  0.5359595255254  0.8111109029400 1.0
C      1  0.5996620085515  0.2302829578339  0.4141758477700 1.0
C      1  0.5661193548078  0.5315347366854  0.5814553586495 1.0
C      1  0.2876283758759  0.7451741747620  0.7245676378420 1.0
C      1  0.4727634947818  0.5697007867595  0.5915942276383 1.0
C      1  0.3591181531477  0.2357705041641  0.7226313545437 1.0
C      1  0.7918503605077  0.2228825114829  0.5968544851756 1.0
C      1  0.6803578511325  0.3986415925011  0.5954692549656 1.0
C      1  0.4860268886114  0.4023629183158  0.2725830174297 1.0
C      1  0.1495232163414  0.4222253863245  0.6026882508400 1.0
C      1  0.6108931161512  0.5675780741573  0.8078441269124 1.0
C      1  0.7584172879368  0.7697433639029  0.5992982567731 1.0
C      1  0.3554569295223  0.6481882024948  0.5772643025894 1.0
C      1  0.6558129344092  0.2232045260531  0.2256285104893 1.0
C      1  0.3009301640351  0.7440668119764  0.2883707366675 1.0
C      1  0.1480784870158  0.5839243745059  0.5776144942346 1.0
C      1  0.2724792808500  0.2541027357805  0.6829289721509 1.0
C      1  0.4017410713285  0.4248097166649  0.3259642294798 1.0
C      1  0.5812660634935  0.5140745036122  0.3359419913784 1.0
C      1  0.4001152577618  0.2547030251497  0.1761193274984 1.0
C      1  0.4405819716109  0.2243716087924  0.2507858914212 1.0
C      1  0.5212200118632  0.6639971510738  0.3278138797503 1.0
C      1  0.4568178082907  0.3982714361462  0.1256671701960 1.0
C      1  0.4508695899190  0.6893033114477  0.7665340734750 1.0
C      1  0.2845093227525  0.2232694290182  0.5900848937915 1.0
C      1  0.6329656722224  0.3568396371595  0.1653429736944 1.0
C      1  0.7491871639667  0.3830057471500  0.4373631182187 1.0
C      1  0.8190815819249  0.5807636943223  0.3467048143110 1.0
C      1  0.6787218735910  0.7266533040978  0.7639477111308 1.0
C      1  0.4579674233798  0.8022026834915  0.2458428490764 1.0
C      1  0.1838911231099  0.4372204166404  0.2503717364105 1.0
C      1  0.1954887149688  0.6563590040835  0.5932237784953 1.0
C      1  0.5356871865194  0.3059595123399  0.4456502121553 1.0
C      1  0.5038649816155  0.3025811531371  0.2726376512448 1.0
C      1  0.8187419603300  0.5604634985192  0.4522362789046 1.0
C      1  0.2889344426602  0.7593957470676  0.4762758683346 1.0
C      1  0.5537161445453  0.4281962401863  0.3413102451783 1.0
C      1  0.2145767680138  0.7254106169255  0.6634984921691 1.0
C      1  0.3355586842045  0.8305136694949  0.5147925629612 1.0
C      1  0.2290388246732  0.2935115268359  0.3282652763566 1.0
C      1  0.5132427418987  0.7281592751065  0.5753995194546 1.0
C      1  0.1814764638183  0.3718248299857  0.3202860291970 1.0
C      1  0.4873109339194  0.1615400642940  0.4882825704538 1.0
C      1  0.7976810155482  0.7166872869187  0.5318548199581 1.0
C      1  0.3469374275410  0.4104952278733  0.8434533929867 1.0
C      1  0.2050462609185  0.3166361562551  0.6765297484063 1.0
C      1  0.1332506001892  0.4986743481207  0.5460828465499 1.0
C      1  0.5531699413634  0.4040394603970  0.4373627746041 1.0
C      1  0.4888165469527  0.6911703949332  0.8747284358692 1.0
C      1  0.3364444470097  0.7364560310189  0.3870347629224 1.0
C      1  0.8102557761639  0.4883003448101  0.3242907687330 1.0
C      1  0.6032489295164  0.6374354172579  0.3863374187911 1.0
C      1  0.8569780547023  0.5438218270767  0.5487617809207 1.0
C      1  0.6212220193643  0.6620680902346  0.7959614363105 1.0
C      1  0.3423933935922  0.5549363384016  0.4170175218634 1.0
C      1  0.6557594120858  0.1297731626305  0.6399036468382 1.0
C      1  0.5117700714844  0.2588951081876  0.7138698123357 1.0
C      1  0.3726028536461  0.5497082788766  0.5872212605843 1.0
C      1  0.6848147594082  0.5912546843374  0.2508334682042 1.0
C      1  0.6610462685307  0.7905089619586  0.5857124739970 1.0
C      1  0.2557674575922  0.2940088834867  0.5296785955694 1.0
C      1  0.5736475348682  0.8674384036201  0.4643143230288 1.0
C      1  0.5837466653824  0.2840355326133  0.2128265871919 1.0
C      1  0.6879345634944  0.5147381404663  0.8082892352222 1.0
C      1  0.4435554133329  0.1903509242828  0.3479184843276 1.0
C      1  0.5018849198447  0.7693016608466  0.3312599786223 1.0
C      1  0.4655919722081  0.2893880049517  0.3725761882039 1.0
C      1  0.7604063789540  0.4480114461235  0.2558564194747 1.0
C      1  0.6605949507202  0.3399760979336  0.7863590687343 1.0
C      1  0.3547501978289  0.1645349294925  0.5794756871146 1.0
C      1  0.5266387782868  0.1600746169634  0.4039317727682 1.0
C      1  0.6022540588034  0.7027595698408  0.5712699170942 1.0
C      1  0.8727675888371  0.3759833955916  0.5969350015842 1.0
C      1  0.7156164691140  0.5994716391468  0.5551180266905 1.0
C      1  0.3029596744260  0.2595878127534  0.3621985581597 1.0
C      1  0.2687210265403  0.4385146303185  0.8397830954062 1.0
C      1  0.4936702986986  0.4496288258549  0.7773833766695 1.0
C      1  0.3725760507258  0.3403340039155  0.3856662841498 1.0
C      1  0.5918551545528  0.5471838479034  0.4205090252460 1.0
C      1  0.4981116535076  0.8679829840768  0.5163419619673 1.0
C      1  0.4881926448925  0.3796167142807  0.6276424121266 1.0
C      1  0.7069620985552  0.4212959104583  0.7718361865526 1.0
C      1  0.3497279012427  0.5141416581796  0.4970804580545 1.0
C      1  0.3317178847611  0.4276945127257  0.5293151357094 1.0
C      1  0.3249811074383  0.4686413688581  0.6212924336998 1.0
C      1  0.8132500712838  0.3123523958811  0.5772166635353 1.0
C      1  0.7091778891282  0.4458714578926  0.6725468322126 1.0
C      1  0.5749064923682  0.1208351653970  0.6584570212982 1.0
C      1  0.5393994335586  0.7239490590054  0.7892988597081 1.0
C      1  0.5918309582082  0.8240915806368  0.6573516653372 1.0
C      1  0.8097361973793  0.6900354557417  0.6222288824128 1.0
C      1  0.7929098498813  0.4639132824775  0.4138289268095 1.0
C      1  0.6150825780880  0.4469065880495  0.1733463064503 1.0
C      1  0.4091576079042  0.8169818319836  0.6597360558621 1.0
C      1  0.4562088703013  0.6134284916739  0.8332905788216 1.0
C      1  0.1408638848514  0.4139350834508  0.3965080902214 1.0
C      1  0.6033988574743  0.7863193869394  0.7409319107857 1.0
C      1  0.4996053838265  0.8219319764371  0.6102726821541 1.0
C      1  0.2579476978603  0.8076433874439  0.6585179616629 1.0
C      1  0.5128160251249  0.2495772799907  0.5278723772864 1.0
C      1  0.5936637506904  0.6012075652919  0.2880111937713 1.0
C      1  0.4300960469874  0.8019141208429  0.0733843421863 1.0
C      1  0.5814209128561  0.8143604903454  0.3772558035819 1.0
C      1  0.2647891827211  0.4719385066952  0.6873886011919 1.0
C      1  0.3590491790504  0.1812365683251  0.4015721627312 1.0
C      1  0.5875120605091  0.3211594735841  0.7404158622188 1.0
C      1  0.3307529531176  0.8446515847715  0.6109086902145 1.0
C      1  0.5118172781974  0.4455750707419  0.1809981568747 1.0
C      1  0.3673265646988  0.6428032234674  0.3880075152096 1.0
C      1  0.1879774170634  0.5182708615976  0.2330439376582 1.0
C      1  0.6264413356438  0.6140430277350  0.5762788560433 1.0
C      1  0.4227196366487  0.7886029697707  0.3937122963835 1.0
C      1  0.7350847330556  0.3221056691808  0.3658725201562 1.0
C      1  0.4089462581978  0.3263852694899  0.1263677026195 1.0
C      1  0.7027760657347  0.3074551862621  0.2080176343662 1.0
C      1  0.2404285514520  0.6801714986715  0.2559152700611 1.0
C      1  0.3958552066050  0.5137634368580  0.3453837531249 1.0
C      1  0.7344600130440  0.3620437264844  0.5323997378009 1.0
C      1  0.4969885101073  0.1622360973141  0.6887263573585 1.0
C      1  0.3890023401980  0.1557563117984  0.4893282841861 1.0
END
