TITL C-25249-492-14 -6.112 3375.00 -1090.47573730 0 0 133 () n - 1
REM
REM Run started: at 2020.12.25 12:07:54 in /gpfs/home/chem/mssmkc/CARBON/AIRSS/Generating-Clusters/Str-Search/Only-C1/C100-200
REM VASP from code version vasp.5.4.4.18Apr17-6-g9f103f2a35 (build Oct 11 2019 16:45:47) gamma-only
REM
REM
REM
REM
REM ./C.cell (efaf0b2bf1589a83377268d7ebe2c73f)
REM AIRSS Version 0.9.1 bugfix July 2018 build 013d7b7c2542+ Fri, 06 Jul 2018 19:26:36 +0100
REM compiler GCC version 6.3.0
REM options -cpp -iprefix /gpfs/warwick/csc/orac/software/Core/GCCcore/6.3.0/bin/../lib/gcc/x86_64-pc-linux-gnu/6.3.0/ -mtune=generic -march=x86-64 -g -O0
REM seed 571989465 -1617784135 -822169382 -1384382175 530264126 -258703638 2052499983 -893582419 221468442 1418791000 -1107054260 -418498288
REM
REM C.POTCAR (d86ddea03c3ceb6dc662c8ad6801f873)
REM 
CELL 1.54180   15.00000   15.00000   15.00000   90.00000   90.00000   90.00000
LATT -1
SFAC C  
C      1  0.4673129035614  0.4811958346798  0.1361232359934 1.0
C      1  0.7146467691938  0.5836911811580  0.3030236876121 1.0
C      1  0.5430998071232  0.4013345569889  0.6650327575089 1.0
C      1  0.7431668933449  0.2740736015986  0.5183540793952 1.0
C      1  0.8000154425594  0.6995814832166  0.6926879650850 1.0
C      1  0.7100852167192  0.4502477874614  0.4052214236662 1.0
C      1  0.6790177789813  0.2461292369934  0.6837883801640 1.0
C      1  0.4792238601268  0.1420397536803  0.5655385188348 1.0
C      1  0.2623706744310  0.5001543435961  0.5213200305625 1.0
C      1  0.3661452546261  0.5321223378996  0.3301408230685 1.0
C      1  0.3702643768055  0.3493534970441  0.6580880331609 1.0
C      1  0.1939115647000  0.4232026505922  0.5165008056953 1.0
C      1  0.6522460477920  0.1452214417399  0.5519937337610 1.0
C      1  0.1354923972848  0.5003990947532  0.4825215969267 1.0
C      1  0.3849900774923  0.1867485640853  0.4388524593635 1.0
C      1  0.3573285206590  0.5976252932473  0.4941068235044 1.0
C      1  0.2194973746644  0.5958758750124  0.3758156227742 1.0
C      1  0.7510116083937  0.5203768898419  0.4605653148230 1.0
C      1  0.4647500854397  0.5518015660407  0.7957884341141 1.0
C      1  0.4411537699215  0.4242445157747  0.6346685072173 1.0
C      1  0.4727264389602  0.2503826671332  0.3056274524971 1.0
C      1  0.2811671373463  0.7179604656236  0.2852253149942 1.0
C      1  0.5670734676027  0.1552125677718  0.5950464578158 1.0
C      1  0.2419791862032  0.7567559218499  0.4332327649546 1.0
C      1  0.4108221196237  0.5720768112602  0.4081232553511 1.0
C      1  0.6947423279904  0.4339944037367  0.2571142617962 1.0
C      1  0.5319157855876  0.5345144465946  0.1421759184058 1.0
C      1  0.4335869713763  0.3665824768448  0.4772177153312 1.0
C      1  0.6278547016545  0.7049594351100  0.3895486994079 1.0
C      1  0.5651729858529  0.3340760346598  0.5868695404275 1.0
C      1  0.5219307315967  0.7158678925405  0.2583925981975 1.0
C      1  0.4718489948725  0.3118042398342  0.2363259453064 1.0
C      1  0.6374255837121  0.3037121984541  0.3682692709965 1.0
C      1  0.5123940727188  0.4516745602101  0.3019840037490 1.0
C      1  0.6715895632628  0.3112060610669  0.7468402776518 1.0
C      1  0.4777630396424  0.5753449480617  0.6374999660442 1.0
C      1  0.5179923986201  0.2418863665970  0.4572994826230 1.0
C      1  0.3344394277869  0.3345200320388  0.3236491525232 1.0
C      1  0.3853730524428  0.3562253725352  0.2297975747065 1.0
C      1  0.5302497048602  0.7255800327474  0.3606719878437 1.0
C      1  0.6022667878545  0.2435059604512  0.6256753719127 1.0
C      1  0.8322365301612  0.5567078260597  0.4201162828040 1.0
C      1  0.3561118136317  0.7290430626755  0.2460795838614 1.0
C      1  0.5506128752819  0.2440641937045  0.3648222219804 1.0
C      1  0.4066401613922  0.2568582541859  0.6735717462153 1.0
C      1  0.5474637012553  0.8109304556957  0.5948671401692 1.0
C      1  0.4163857780360  0.7378533157296  0.4571979398783 1.0
C      1  0.5519509466752  0.7025065989322  0.7627475857517 1.0
C      1  0.3997431444639  0.4430633516894  0.1929116698335 1.0
C      1  0.1920228547855  0.4718180361741  0.6766549850514 1.0
C      1  0.5480722510308  0.6064946442106  0.7730494669882 1.0
C      1  0.4049847448292  0.5850716513934  0.7242825023334 1.0
C      1  0.4706292355155  0.7416219049373  0.7252498380119 1.0
C      1  0.6044201251754  0.5763562322650  0.1872375190744 1.0
C      1  0.5893132659882  0.3680395652240  0.7599284039710 1.0
C      1  0.7640822629552  0.4855652291922  0.6266577637807 1.0
C      1  0.5624381008089  0.1606621031334  0.4197247693777 1.0
C      1  0.8082636483485  0.4110009371336  0.5935215052509 1.0
C      1  0.6212522733202  0.7500842165533  0.6262448093191 1.0
C      1  0.6080708624467  0.4844825796989  0.6557044170889 1.0
C      1  0.5438002645800  0.4548455754397  0.3890146712756 1.0
C      1  0.2303365207909  0.6964007866522  0.3585995678695 1.0
C      1  0.3561979279149  0.5149103498191  0.5529372787318 1.0
C      1  0.5454520000655  0.3752926351249  0.2498960068140 1.0
C      1  0.1898639430901  0.5555703674249  0.6825512595378 1.0
C      1  0.6518903282653  0.1621175416172  0.4586741600873 1.0
C      1  0.6824162780148  0.7328417440739  0.5460203636910 1.0
C      1  0.3208518781892  0.8357331310689  0.5398344131759 1.0
C      1  0.5196793296032  0.3864310165665  0.8269238946314 1.0
C      1  0.2109051667218  0.4047258966572  0.6152885723769 1.0
C      1  0.2508388543469  0.7029817794813  0.6059087660808 1.0
C      1  0.4048969105309  0.6801453703575  0.5406114163059 1.0
C      1  0.4963156951774  0.3095762098080  0.5178795850523 1.0
C      1  0.5250430585434  0.6037255290670  0.4727038728084 1.0
C      1  0.2151475596862  0.4552337889640  0.3424421786722 1.0
C      1  0.7641807042721  0.4485581823578  0.3233421610916 1.0
C      1  0.6999031201889  0.4676617701207  0.6969216444878 1.0
C      1  0.3945175925704  0.3111224206259  0.7465844948712 1.0
C      1  0.2832487062564  0.2930884030379  0.5273528938668 1.0
C      1  0.6713028176599  0.5261297282271  0.2309516753093 1.0
C      1  0.3459940959954  0.2190052631519  0.5205147160295 1.0
C      1  0.6985668261069  0.2434230824718  0.4351561534907 1.0
C      1  0.3292629603755  0.7908703128327  0.4548219100069 1.0
C      1  0.8568253450487  0.6762444750848  0.6312886781797 1.0
C      1  0.6459760263819  0.7709175089565  0.4699496896181 1.0
C      1  0.7076888881226  0.2203587855197  0.5935766364996 1.0
C      1  0.2826239688343  0.3431009694086  0.6105902893755 1.0
C      1  0.1909095018211  0.5743373276210  0.5332537094649 1.0
C      1  0.2436974599722  0.7640664035306  0.5308597709659 1.0
C      1  0.6251261304144  0.3953204175984  0.4242724515563 1.0
C      1  0.3458072474176  0.7175465513196  0.6335952602846 1.0
C      1  0.4013041533273  0.3397027335604  0.3952459865725 1.0
C      1  0.4651543218429  0.6598192589648  0.4063759814724 1.0
C      1  0.8799060646647  0.6094643261972  0.4751348315948 1.0
C      1  0.4005358400129  0.5175558738532  0.6463446348508 1.0
C      1  0.1532806635311  0.5146477609750  0.3923697050146 1.0
C      1  0.6694587790735  0.6729105459890  0.2995997789009 1.0
C      1  0.8086539943964  0.5349716966973  0.3234019114684 1.0
C      1  0.3790916142496  0.8083694942230  0.6095848494716 1.0
C      1  0.4333069889724  0.4527125493096  0.5243633347386 1.0
C      1  0.4867169569113  0.5117974466563  0.4515476256814 1.0
C      1  0.5910275395578  0.6506543957230  0.6072554638715 1.0
C      1  0.6391608188790  0.4744441947359  0.5633434075586 1.0
C      1  0.6022073424989  0.6656977711850  0.2341529284224 1.0
C      1  0.3883050967800  0.2483968335264  0.3590340476225 1.0
C      1  0.4638521878903  0.4636460327079  0.8226492874033 1.0
C      1  0.6227510830047  0.6181082490905  0.4482190760515 1.0
C      1  0.4692985709233  0.8091096311948  0.6472423343821 1.0
C      1  0.4725252064236  0.1463716171375  0.4650390268963 1.0
C      1  0.4231832459071  0.4873235224517  0.2769398667223 1.0
C      1  0.2001288732034  0.6231888706022  0.6179851651710 1.0
C      1  0.3971647670501  0.6830518402367  0.7102047159557 1.0
C      1  0.5686269170230  0.5741659060177  0.6762808224089 1.0
C      1  0.5610355151923  0.8137736313820  0.4966622185233 1.0
C      1  0.4065926656770  0.1982396406015  0.5959373371911 1.0
C      1  0.6380872682377  0.3595637202822  0.2722122888755 1.0
C      1  0.4308940507079  0.3675065230448  0.8148155863786 1.0
C      1  0.2714884966713  0.5286564715712  0.3226926266547 1.0
C      1  0.6847799078894  0.4027732725658  0.7598457106621 1.0
C      1  0.6774996492784  0.5530229765217  0.3947177897824 1.0
C      1  0.7148751322974  0.5380412063683  0.5501952160120 1.0
C      1  0.4396681676795  0.7233136583074  0.2227303172953 1.0
C      1  0.2607012869115  0.5882640052715  0.4664685469210 1.0
C      1  0.4973149872092  0.7914368815128  0.4331602030739 1.0
C      1  0.4955768586772  0.6374096659707  0.5644086230652 1.0
C      1  0.6222149197201  0.3934870627174  0.5252677564169 1.0
C      1  0.6670234037695  0.6317520813676  0.5412005108661 1.0
C      1  0.7268505309271  0.7129131187494  0.7366311408738 1.0
C      1  0.2323785560791  0.3460704118747  0.4611790892444 1.0
C      1  0.7998498612217  0.3446662011474  0.5429450376534 1.0
C      1  0.8802810963654  0.6448796602221  0.5540418184095 1.0
C      1  0.6393899264372  0.7340663445088  0.7237519736906 1.0
C      1  0.2478501064802  0.3662826318763  0.3692141874604 1.0
END
