TITL C-25249-492-41 -5.199 3375.00 -873.31740892 0 0 108 () n - 1
REM
REM Run started: at 2020.12.26 10:14:20 in /gpfs/home/chem/mssmkc/CARBON/AIRSS/Generating-Clusters/Str-Search/Only-C1/C100-200
REM VASP from code version vasp.5.4.4.18Apr17-6-g9f103f2a35 (build Oct 11 2019 16:45:47) gamma-only
REM
REM
REM
REM
REM ./C.cell (efaf0b2bf1589a83377268d7ebe2c73f)
REM AIRSS Version 0.9.1 bugfix July 2018 build 013d7b7c2542+ Fri, 06 Jul 2018 19:26:36 +0100
REM compiler GCC version 6.3.0
REM options -cpp -iprefix /gpfs/warwick/csc/orac/software/Core/GCCcore/6.3.0/bin/../lib/gcc/x86_64-pc-linux-gnu/6.3.0/ -mtune=generic -march=x86-64 -g -O0
REM seed 1178716601 -890063811 651680052 -318927817 593349094 -1299165818 -1385647945 229130008 -1542313249 1806261144 -840059977 1077760371
REM
REM C.POTCAR (d86ddea03c3ceb6dc662c8ad6801f873)
REM 
CELL 1.54180   15.00000   15.00000   15.00000   90.00000   90.00000   90.00000
LATT -1
SFAC C  
C      1  0.5946740915267  0.6037873015269  0.5965765851083 1.0
C      1  0.5280242753724  0.2541713085273  0.3590405523832 1.0
C      1  0.3427374736011  0.6415376742029  0.6791262792418 1.0
C      1  0.3506393764790  0.7239583662767  0.6390188429149 1.0
C      1  0.6508652950033  0.5088552673283  0.3803897299480 1.0
C      1  0.7768503850381  0.5550181314699  0.7175271285583 1.0
C      1  0.6758031604720  0.6957212514083  0.5052154566531 1.0
C      1  0.5007352815734  0.8296793504132  0.5079644705492 1.0
C      1  0.2241812876704  0.5802314691228  0.3352267002357 1.0
C      1  0.3985527920112  0.6685619840174  0.4058237043891 1.0
C      1  0.6958356717019  0.4052740889384  0.7024562965309 1.0
C      1  0.4556415478515  0.4775954156963  0.7840244908119 1.0
C      1  0.2565661234112  0.3300005847271  0.3505884141772 1.0
C      1  0.6650486943981  0.3056337284756  0.6864899102689 1.0
C      1  0.3866964538696  0.4289547359531  0.7262378234471 1.0
C      1  0.6393009827232  0.5247938910164  0.6090236031994 1.0
C      1  0.3272759329265  0.3638299544553  0.3020260272030 1.0
C      1  0.6264166505478  0.2485389484225  0.3728148833726 1.0
C      1  0.5810651762430  0.4050119875122  0.4555861655937 1.0
C      1  0.4311031307262  0.5385615263490  0.6014753440109 1.0
C      1  0.6878388195783  0.5911000399445  0.3452002380663 1.0
C      1  0.4034949467294  0.2871292360058  0.4722599203762 1.0
C      1  0.3533404508692  0.7308207438605  0.5441855428823 1.0
C      1  0.5226460088874  0.7514622167560  0.6494284420404 1.0
C      1  0.2025697842938  0.6063208287073  0.4256076902333 1.0
C      1  0.2218849983230  0.6991006209346  0.4184615336918 1.0
C      1  0.2593789461290  0.3004493832503  0.6656128226107 1.0
C      1  0.8760622738077  0.5480627913381  0.4934170777319 1.0
C      1  0.6356160221885  0.6427420196800  0.2912013917355 1.0
C      1  0.4821616161507  0.3949488596411  0.5830623788730 1.0
C      1  0.4257196950022  0.3839337119885  0.3321890295373 1.0
C      1  0.8588428283170  0.4713167067593  0.4363430243187 1.0
C      1  0.2453445994135  0.4546306859398  0.4670834727068 1.0
C      1  0.5882633675197  0.4398438316055  0.3607443495902 1.0
C      1  0.5240342288227  0.8073699187472  0.3376051247022 1.0
C      1  0.2578758211632  0.5195384688405  0.2699401038847 1.0
C      1  0.7302806075798  0.3976749624839  0.6090177301367 1.0
C      1  0.3555314476796  0.7340198577428  0.3469896928068 1.0
C      1  0.6774480662765  0.4507934111740  0.4578649081777 1.0
C      1  0.5938203865876  0.3762140637302  0.2864429064505 1.0
C      1  0.3614400671390  0.2585950503164  0.5621906141044 1.0
C      1  0.7343659552500  0.3785022283620  0.4012477850615 1.0
C      1  0.5516342975826  0.3496898141802  0.8121662437917 1.0
C      1  0.7137931409209  0.4924399688252  0.7585776365840 1.0
C      1  0.5265142290293  0.5988258951232  0.4552580797782 1.0
C      1  0.5024702594597  0.7450703499375  0.2697854079698 1.0
C      1  0.2815858017896  0.5721364482024  0.6676147074238 1.0
C      1  0.6127226435834  0.5151432012446  0.7835568094756 1.0
C      1  0.6769637089990  0.2696532280552  0.5207094148321 1.0
C      1  0.3097528357434  0.2532937195397  0.4898209445478 1.0
C      1  0.8037420490781  0.5857880174085  0.6448126394901 1.0
C      1  0.5586978828627  0.5980848548534  0.7614692129090 1.0
C      1  0.4118791189252  0.3922548577751  0.4413678345436 1.0
C      1  0.2137994587438  0.5360072184243  0.5975609017922 1.0
C      1  0.7162826554194  0.2999654655123  0.6043932934602 1.0
C      1  0.2655057620241  0.7548074220116  0.3709697247515 1.0
C      1  0.5680208317660  0.2875073320919  0.6774088702252 1.0
C      1  0.2133739100285  0.3722005095677  0.4234302072793 1.0
C      1  0.2839035419730  0.6076391100389  0.2637391286882 1.0
C      1  0.2234840507254  0.4496842247384  0.6485345248352 1.0
C      1  0.6974008431366  0.4664092467182  0.5537715260181 1.0
C      1  0.6550394476906  0.2028970762966  0.4559999012463 1.0
C      1  0.4328111946787  0.7758454919832  0.6382042607388 1.0
C      1  0.4183679372888  0.8091109148468  0.5465913202674 1.0
C      1  0.5743925075298  0.5097549431376  0.1899098152049 1.0
C      1  0.5968804952205  0.1304101044434  0.4757694875747 1.0
C      1  0.2013594106112  0.3594910797453  0.6506261848887 1.0
C      1  0.5341369761148  0.5869336842550  0.2234998920813 1.0
C      1  0.5406307249883  0.6516080333364  0.6707779232483 1.0
C      1  0.4075144626546  0.3249839025492  0.7205098707455 1.0
C      1  0.4993751753579  0.3076202215217  0.7443757268880 1.0
C      1  0.4492055733118  0.5704018418028  0.2807433217400 1.0
C      1  0.8228626508257  0.3932535389334  0.4069201902521 1.0
C      1  0.3749042712893  0.6383216787382  0.2465410814922 1.0
C      1  0.8470243112300  0.5599912023678  0.4035823852224 1.0
C      1  0.5066564734626  0.3278598011410  0.3092025477813 1.0
C      1  0.5174609328288  0.8311029012236  0.4161924019199 1.0
C      1  0.4679204110318  0.6129828467513  0.3751193356566 1.0
C      1  0.7599809130788  0.6486811481983  0.4875438063521 1.0
C      1  0.3493903690808  0.2793762730071  0.6554710991393 1.0
C      1  0.4312685974362  0.4473395289585  0.6364089654465 1.0
C      1  0.5439527142072  0.3239007649909  0.5917836094439 1.0
C      1  0.5677891441595  0.7970820841146  0.5742977824524 1.0
C      1  0.3645746907158  0.6519421001812  0.4917288756093 1.0
C      1  0.5972186774675  0.3241336321284  0.5135058625507 1.0
C      1  0.5138638012878  0.1515256872611  0.4724601496721 1.0
C      1  0.6344217781872  0.4803294422184  0.6928700319454 1.0
C      1  0.4713591403362  0.5674486802684  0.7626054505015 1.0
C      1  0.4732284496370  0.2254952359234  0.4342219881735 1.0
C      1  0.4080786881308  0.7273214716864  0.2634670812966 1.0
C      1  0.3768860678682  0.5510617499580  0.5148477449931 1.0
C      1  0.5939036046722  0.6362079228323  0.5041313915066 1.0
C      1  0.4127970076192  0.4761184508790  0.2837435045404 1.0
C      1  0.3240539371291  0.4516202521964  0.2678645711885 1.0
C      1  0.5669947558421  0.6774597845971  0.2418970857702 1.0
C      1  0.4381020889996  0.6058320650473  0.6791426539066 1.0
C      1  0.5974579588519  0.4316673243725  0.2048276734516 1.0
C      1  0.2020883067262  0.5399262594949  0.5020379033986 1.0
C      1  0.4926462998227  0.4360433309724  0.4929979996207 1.0
C      1  0.6486833573927  0.7709344105987  0.5431669922262 1.0
C      1  0.4751452059798  0.5339482984540  0.5087026137964 1.0
C      1  0.8194095583220  0.6020907919262  0.5516641180545 1.0
C      1  0.3366889101122  0.4626333833259  0.4723558768441 1.0
C      1  0.5399160390777  0.4433644047403  0.8087171888534 1.0
C      1  0.2403438126210  0.2829076392035  0.4346518127351 1.0
C      1  0.6695164548667  0.3243332697348  0.3397239546285 1.0
C      1  0.7703944502438  0.6145750386386  0.3985937600798 1.0
C      1  0.2958007213676  0.4812428231214  0.7023274081625 1.0
END
