TITL C-25374-6139-19 -2.511 3375.00 -421.31414042 0 0 52 (C1) n - 1
REM
REM Run started: at 2020.12.22 17:57:17 in /rds/project/t2_vol4/rds-t2-cs072/BORA/CARBON/AIRSS/Generating-Clusters/Str-Search/Only-C1/C10-100
REM VASP from code version vasp.5.4.4.18Apr17-6-g9f103f2a35 (build Oct 11 2019 16:45:47) gamma-only
REM
REM
REM
REM
REM ./C.cell (67c5d0192afd7a3ce4a0888e5fe73b87)
REM AIRSS Version 0.9.1 bugfix July 2018 build 013d7b7c2542+ Fri, 06 Jul 2018 19:26:36 +0100
REM compiler GCC version 4.8.5 20150623 (Red Hat 4.8.5-39)
REM options -cpp -mtune=generic -march=x86-64 -g -O0
REM seed 1336557216 2094230241 533381999 -234104889 811278355 -1063809672 -488221351 1786751597 -191090706 -657446300 11107778 -202716409
REM
REM C.POTCAR (d86ddea03c3ceb6dc662c8ad6801f873)
REM 
CELL 1.54180   15.00000   15.00000   15.00000   90.00000   90.00000   90.00000
LATT -1
SFAC C  
C      1  0.5623235409455  0.5284326143729  0.2467759654274 1.0
C      1  0.3996511575681  0.3293029892892  0.6066585000600 1.0
C      1  0.3684346368024  0.4309416834171  0.3777167695912 1.0
C      1  0.5955183114467  0.4775161244193  0.5930801836135 1.0
C      1  0.6377086700528  0.7203519211847  0.3378891495076 1.0
C      1  0.7010263113651  0.5779268627764  0.5168189651328 1.0
C      1  0.4987198752384  0.4556641190704  0.5702609053702 1.0
C      1  0.4502604224905  0.6333744363512  0.3848518265053 1.0
C      1  0.3087882486250  0.4125059629428  0.5062275216498 1.0
C      1  0.5534363958060  0.4448511014673  0.7649382513090 1.0
C      1  0.5608131680478  0.6184725445666  0.4979641191765 1.0
C      1  0.6139813620179  0.5788322763700  0.5691012999576 1.0
C      1  0.4128943597214  0.5793384591141  0.7300987745329 1.0
C      1  0.4568445240212  0.4942026657504  0.4941108887966 1.0
C      1  0.4416334943027  0.6910235696559  0.4643778366767 1.0
C      1  0.4708881422529  0.4268599950528  0.7284182118850 1.0
C      1  0.7129788726851  0.5481167899440  0.4398696011723 1.0
C      1  0.3881322786503  0.6607969690149  0.5336899330721 1.0
C      1  0.6474723683520  0.4148409610643  0.3740933802708 1.0
C      1  0.3263640534238  0.3946632639042  0.5978011827720 1.0
C      1  0.5728717513930  0.3867901789483  0.3223620541558 1.0
C      1  0.6012812841468  0.5052442219482  0.6917706998910 1.0
C      1  0.4738451459917  0.2734139708384  0.4102089704274 1.0
C      1  0.3958384709978  0.4864206099330  0.7279844138778 1.0
C      1  0.5014363165000  0.5660700571858  0.4480189255975 1.0
C      1  0.3065256106584  0.5585419874002  0.6174574287093 1.0
C      1  0.3273417907150  0.4723824056964  0.6555993227711 1.0
C      1  0.5356228411332  0.6222546080039  0.2465623606987 1.0
C      1  0.5409661455346  0.7130720858495  0.4767143829726 1.0
C      1  0.4273893928288  0.2728957116884  0.5392002427617 1.0
C      1  0.6499573034884  0.3737462853188  0.4605693604126 1.0
C      1  0.4662515471544  0.3924947542309  0.6353504950599 1.0
C      1  0.3326241518109  0.5802353056701  0.5257573678884 1.0
C      1  0.3448691991966  0.6251524795650  0.6766768631618 1.0
C      1  0.6368737097305  0.3962091205235  0.5486431140856 1.0
C      1  0.4683405330401  0.6478875370246  0.3002434094473 1.0
C      1  0.6831483724801  0.5049099103932  0.3606440816247 1.0
C      1  0.5191203699065  0.2651193569415  0.4986176593279 1.0
C      1  0.3562949532389  0.4945072886059  0.4687119297201 1.0
C      1  0.6405936946941  0.4561215912174  0.7689911469071 1.0
C      1  0.3369797959875  0.3581725657945  0.4350159211540 1.0
C      1  0.6494290474051  0.5541636399560  0.2865119096652 1.0
C      1  0.5926902244690  0.7401666155809  0.4066939554574 1.0
C      1  0.5952684709189  0.3152128211201  0.5125955146098 1.0
C      1  0.4949911671371  0.3317207163141  0.3416223241903 1.0
C      1  0.6256707093440  0.6492109626253  0.2813143277009 1.0
C      1  0.4390975692728  0.4110658953128  0.3176354751670 1.0
C      1  0.4103391854546  0.6714041097499  0.6280024926582 1.0
C      1  0.5735049297899  0.5969907688640  0.6653278875296 1.0
C      1  0.4865889900239  0.6289679714837  0.6831035614688 1.0
C      1  0.5197944822778  0.4532757199020  0.2770682041951 1.0
C      1  0.3865823494641  0.2781631365851  0.4502810302265 1.0
END
