TITL C-25249-492-34 -8.103 3375.00 -1453.09914841 0 0 178 () n - 1
REM
REM Run started: at 2020.12.26 04:19:36 in /gpfs/home/chem/mssmkc/CARBON/AIRSS/Generating-Clusters/Str-Search/Only-C1/C100-200
REM VASP from code version vasp.5.4.4.18Apr17-6-g9f103f2a35 (build Oct 11 2019 16:45:47) gamma-only
REM
REM
REM
REM
REM ./C.cell (efaf0b2bf1589a83377268d7ebe2c73f)
REM AIRSS Version 0.9.1 bugfix July 2018 build 013d7b7c2542+ Fri, 06 Jul 2018 19:26:36 +0100
REM compiler GCC version 6.3.0
REM options -cpp -iprefix /gpfs/warwick/csc/orac/software/Core/GCCcore/6.3.0/bin/../lib/gcc/x86_64-pc-linux-gnu/6.3.0/ -mtune=generic -march=x86-64 -g -O0
REM seed -672389716 -1898281934 -264350553 -1557838261 -1957258895 1624965680 2044358555 702656498 686264865 -1503106089 1019214509 -946720323
REM
REM C.POTCAR (d86ddea03c3ceb6dc662c8ad6801f873)
REM 
CELL 1.54180   15.00000   15.00000   15.00000   90.00000   90.00000   90.00000
LATT -1
SFAC C  
C      1  0.2400356486214  0.4853413048305  0.4408673039384 1.0
C      1  0.4160972313439  0.5115519081023  0.3146662917802 1.0
C      1  0.5972133905195  0.2638429987091  0.8311673516786 1.0
C      1  0.3162128366752  0.2832167597036  0.6187732956996 1.0
C      1  0.8254474428324  0.6077626799687  0.5841722137839 1.0
C      1  0.5057103933486  0.2940080894443  0.8476068660930 1.0
C      1  0.8060023676420  0.6692261178572  0.4496547793010 1.0
C      1  0.3440100071468  0.6888810099343  0.1839045384737 1.0
C      1  0.3392246236549  0.1871377591248  0.4821743040656 1.0
C      1  0.2038398705157  0.6207271888297  0.3909956601908 1.0
C      1  0.3459842043000  0.4624468151552  0.2747373896992 1.0
C      1  0.5993652938374  0.6750979279525  0.4884881659086 1.0
C      1  0.2778499516411  0.7623642560328  0.7325449682210 1.0
C      1  0.5318579913272  0.3607214644680  0.9160385890542 1.0
C      1  0.2463810767458  0.4809098219116  0.2654152288352 1.0
C      1  0.4831892046404  0.4829240666288  0.1033922113833 1.0
C      1  0.4831015374927  0.2905878723692  0.5315161589431 1.0
C      1  0.6885231671022  0.3649470614457  0.3924988030163 1.0
C      1  0.7214822714945  0.2871654473135  0.3320215643585 1.0
C      1  0.5632185491516  0.2835759112627  0.6631190737699 1.0
C      1  0.8661996737720  0.4621227454919  0.5643168475405 1.0
C      1  0.3894571672438  0.4534580727550  0.4461374053098 1.0
C      1  0.1580023997326  0.6739531996337  0.4564860748076 1.0
C      1  0.4315008422761  0.5109729018219  0.6370263637315 1.0
C      1  0.5501102064841  0.5239120262517  0.4695386510376 1.0
C      1  0.7783579714070  0.3385536179208  0.6238879158360 1.0
C      1  0.6817504749002  0.3157948333245  0.2419573431864 1.0
C      1  0.7811265893485  0.6850922684161  0.6050841319293 1.0
C      1  0.3800813663387  0.1309015798706  0.6334162196486 1.0
C      1  0.3976650956471  0.4141263544608  0.3507551234284 1.0
C      1  0.4208495256631  0.3186126741148  0.6061311653996 1.0
C      1  0.4444970455696  0.8133967417981  0.6020292670946 1.0
C      1  0.7305502370092  0.5471556381585  0.7564922714958 1.0
C      1  0.4283772381492  0.3108827376760  0.2166682943908 1.0
C      1  0.8719678156400  0.3304062704540  0.4881399271518 1.0
C      1  0.3633658906786  0.6293746605408  0.7989705399847 1.0
C      1  0.2840087879369  0.4574742690261  0.5913966021347 1.0
C      1  0.5698047212972  0.5554022674840  0.3671703621880 1.0
C      1  0.3434432257126  0.4416999116767  0.8227586924761 1.0
C      1  0.3620502865818  0.3521518790061  0.7817237428537 1.0
C      1  0.1906355355347  0.5359033456738  0.7618117482004 1.0
C      1  0.5788123864569  0.6560829791498  0.3435472208113 1.0
C      1  0.5912389501656  0.7015628374276  0.5739589279968 1.0
C      1  0.5113286457746  0.1301455012512  0.4372282133086 1.0
C      1  0.2724733098479  0.4196874016654  0.6839133040969 1.0
C      1  0.4160521420000  0.1565421841099  0.4354511530464 1.0
C      1  0.4176519955633  0.7740923573146  0.3189622073789 1.0
C      1  0.5133506905052  0.1058614967800  0.3412849841592 1.0
C      1  0.3042457554330  0.3332778251541  0.7091710623392 1.0
C      1  0.5403418622220  0.4091207751317  0.1250189905776 1.0
C      1  0.5851635636157  0.8399550024568  0.6383193264944 1.0
C      1  0.7512054784182  0.2452290662192  0.6182306763689 1.0
C      1  0.6206962269834  0.3417388837906  0.8834171639218 1.0
C      1  0.6181737056578  0.2523764305941  0.4794878697129 1.0
C      1  0.6537137327147  0.7683001827188  0.6203114537162 1.0
C      1  0.7931535788374  0.2337468355217  0.3752479631782 1.0
C      1  0.5311124320527  0.8142067995942  0.2244057396528 1.0
C      1  0.5841514615379  0.3084808879698  0.2458399668944 1.0
C      1  0.5155290712933  0.3568426621126  0.4767033776358 1.0
C      1  0.7027083454847  0.3899092294533  0.1914866202463 1.0
C      1  0.5143705884749  0.8814524544683  0.3737879281648 1.0
C      1  0.6179447933262  0.5601945277783  0.8603596862878 1.0
C      1  0.6387749853897  0.8595078199651  0.4852671256060 1.0
C      1  0.6206548619111  0.4378178265979  0.6509664191179 1.0
C      1  0.4389757529165  0.6345507385562  0.4272533012859 1.0
C      1  0.6513737028421  0.5201753623004  0.3227676370407 1.0
C      1  0.7718749649174  0.7334152406571  0.5204093011468 1.0
C      1  0.8523861245798  0.3668947148148  0.5744712062515 1.0
C      1  0.7127325356343  0.1920379213772  0.3741386371022 1.0
C      1  0.7653724645567  0.2088339543720  0.5277999347355 1.0
C      1  0.4213476613285  0.7232954709831  0.4625331412707 1.0
C      1  0.1074749180972  0.4082956284219  0.3901219034643 1.0
C      1  0.4445303402588  0.1679953124020  0.6889219894167 1.0
C      1  0.5909878032118  0.4991647786782  0.2421382536435 1.0
C      1  0.2816508100923  0.6802158912379  0.7781921929812 1.0
C      1  0.5836239966123  0.1568374822552  0.4973905498644 1.0
C      1  0.1222259405124  0.5893791569917  0.4378628263703 1.0
C      1  0.6195892141014  0.6413991335435  0.8072026993164 1.0
C      1  0.2995684788301  0.4205694998976  0.2018210297178 1.0
C      1  0.8465876045486  0.4231071361025  0.4537677149738 1.0
C      1  0.7931868564742  0.5175337061688  0.6015853705066 1.0
C      1  0.7621963685974  0.4928557094122  0.6899926133325 1.0
C      1  0.2746949058540  0.7731589968534  0.4040141326122 1.0
C      1  0.6075115841845  0.6637434542219  0.2395923534065 1.0
C      1  0.5438754230125  0.3152353859746  0.3280512475334 1.0
C      1  0.6384789273524  0.2692925562174  0.7376933107669 1.0
C      1  0.3268235379587  0.6898345237666  0.5748235248014 1.0
C      1  0.5157918009645  0.4504153804706  0.9265748392567 1.0
C      1  0.2489468507349  0.2733597575197  0.3480375016784 1.0
C      1  0.6091644561868  0.8669801923773  0.3903299105955 1.0
C      1  0.4794804355650  0.4441481954274  0.4946155827210 1.0
C      1  0.5064100471863  0.5664879875865  0.6355898598875 1.0
C      1  0.7219374250569  0.4024633853857  0.6782713249642 1.0
C      1  0.3269846039162  0.3305728554329  0.2077656646150 1.0
C      1  0.6793930150706  0.4023030910972  0.8355354528322 1.0
C      1  0.2585952070317  0.7651839498500  0.5672651865806 1.0
C      1  0.7601502649480  0.4680120726884  0.2023328773345 1.0
C      1  0.5518753220920  0.3825316632376  0.6462116718417 1.0
C      1  0.2779486977905  0.6151151783147  0.6226491146971 1.0
C      1  0.4475744313199  0.8696453489666  0.4439618777260 1.0
C      1  0.7135135584148  0.4531969632579  0.3564410924502 1.0
C      1  0.8542300703146  0.5988026822267  0.4910393494084 1.0
C      1  0.4991639981897  0.5611602399149  0.1293502686275 1.0
C      1  0.7473662965582  0.6614572501793  0.3691992585067 1.0
C      1  0.7800649061370  0.4944044997682  0.2892602753923 1.0
C      1  0.3299718938342  0.1872054395516  0.5791153102480 1.0
C      1  0.4991748964856  0.8140979614690  0.6797566754490 1.0
C      1  0.5725309349301  0.8812864768701  0.5522847523511 1.0
C      1  0.3390079343640  0.5388311413133  0.6021963204594 1.0
C      1  0.5177711096513  0.3338422164781  0.1753167502754 1.0
C      1  0.5913513467837  0.3274509576179  0.4169550087071 1.0
C      1  0.1612832756169  0.3614356752920  0.6029633693102 1.0
C      1  0.4622928168997  0.4182915718676  0.6076475181341 1.0
C      1  0.4374353767704  0.1658694262182  0.3405842801092 1.0
C      1  0.6304925873377  0.5207910450815  0.5332456428186 1.0
C      1  0.7081625634227  0.7500808168529  0.3620898738914 1.0
C      1  0.2834908303078  0.5735562233192  0.4351557088014 1.0
C      1  0.1841505451200  0.4494436476298  0.6256470760716 1.0
C      1  0.8246263126023  0.2520824732951  0.4656103264244 1.0
C      1  0.6537862742805  0.8127961583858  0.3215493168732 1.0
C      1  0.5394193398214  0.5898495952920  0.2113269807145 1.0
C      1  0.1944451025536  0.3523292619181  0.3876397107758 1.0
C      1  0.2193662405717  0.6481943136915  0.3004590783035 1.0
C      1  0.4665095001191  0.2631951393405  0.6910898926412 1.0
C      1  0.2966354881818  0.6194629139909  0.1752960380276 1.0
C      1  0.6286181226203  0.4507646920183  0.1597739860121 1.0
C      1  0.2291940506156  0.3139121787885  0.5695558706029 1.0
C      1  0.4777455746633  0.8725869139446  0.5313428970484 1.0
C      1  0.5389967923948  0.6872034120901  0.7969143985529 1.0
C      1  0.1387407980124  0.4893315668369  0.4366043874451 1.0
C      1  0.4788078085769  0.8493083787658  0.2919359809948 1.0
C      1  0.2672364416349  0.7301715076279  0.3132981359239 1.0
C      1  0.8885442311252  0.5068814833009  0.4819077832112 1.0
C      1  0.1435514458046  0.5232585414126  0.6755395720320 1.0
C      1  0.4224549106331  0.7214040563624  0.5665982167522 1.0
C      1  0.2479311728612  0.7877459817210  0.6559688985165 1.0
C      1  0.2854200666384  0.2502368629248  0.4326521798303 1.0
C      1  0.4460635228237  0.3321952975300  0.3175695684351 1.0
C      1  0.7079988881174  0.2114270266956  0.6931105395722 1.0
C      1  0.7169356779353  0.4931210638113  0.5229631188448 1.0
C      1  0.3766765177673  0.7978735977379  0.4116160423203 1.0
C      1  0.4899238305944  0.7513742708016  0.7487697038639 1.0
C      1  0.4319955183863  0.0749739160478  0.6915369835556 1.0
C      1  0.4821252862333  0.6975911249247  0.3635744132541 1.0
C      1  0.2722558931339  0.4815434234264  0.7639297394714 1.0
C      1  0.5502784921687  0.5254008343724  0.9143654401924 1.0
C      1  0.3071642576065  0.6038524463448  0.5289479421172 1.0
C      1  0.2984131325876  0.4238882614566  0.4939343893532 1.0
C      1  0.7027238372880  0.5341906799560  0.1561710414972 1.0
C      1  0.5954358239534  0.5274852838882  0.6233784996361 1.0
C      1  0.2170116135903  0.7542185573000  0.4771343476775 1.0
C      1  0.2095122449337  0.4460239041367  0.3535283999378 1.0
C      1  0.6946550313262  0.6119351728855  0.2120394032086 1.0
C      1  0.5635884639334  0.2383887653235  0.5604112183103 1.0
C      1  0.6943441042847  0.6415006953673  0.7449590754706 1.0
C      1  0.3454489892605  0.7412122215442  0.2603016967930 1.0
C      1  0.5075789829435  0.5311166099990  0.2897160742885 1.0
C      1  0.2508802497819  0.3317008573272  0.4744225364315 1.0
C      1  0.1924540001977  0.6066143301141  0.6736015667958 1.0
C      1  0.7377868770870  0.5878905819575  0.2976822964919 1.0
C      1  0.6851670835805  0.5005262455729  0.8302585310747 1.0
C      1  0.4452485747093  0.6794056083811  0.7926383810191 1.0
C      1  0.2395918414177  0.5796788533105  0.2377776977734 1.0
C      1  0.5015780679733  0.6536869083765  0.5862332042054 1.0
C      1  0.3549734978686  0.5313803737994  0.8002205353888 1.0
C      1  0.7024437747831  0.7981712645855  0.5310009223611 1.0
C      1  0.5166771214995  0.6155170037672  0.4901291951723 1.0
C      1  0.6066266600017  0.7693524918064  0.2410534705810 1.0
C      1  0.4420777276696  0.3012760133851  0.7820749355670 1.0
C      1  0.7459473326189  0.4360304726820  0.4479004445553 1.0
C      1  0.3031608310709  0.2637280452416  0.2708698213879 1.0
C      1  0.4016300838545  0.2411000687870  0.2876898631970 1.0
C      1  0.3805734371556  0.5533699397074  0.4036934808992 1.0
C      1  0.1979576000073  0.6326953083283  0.7669103206952 1.0
C      1  0.6920450417382  0.3554332349506  0.7565064483560 1.0
C      1  0.7137164198535  0.7010582068715  0.6719750903424 1.0
C      1  0.6841302848142  0.1805323562130  0.4696980666031 1.0
C      1  0.6489989736405  0.6846610772839  0.4066875066031 1.0
END
