TITL C-25374-6139-22 -2.031 3375.00 -345.96744266 0 0 43 (C1) n - 1
REM
REM Run started: at 2020.12.22 18:22:20 in /rds/project/t2_vol4/rds-t2-cs072/BORA/CARBON/AIRSS/Generating-Clusters/Str-Search/Only-C1/C10-100
REM VASP from code version vasp.5.4.4.18Apr17-6-g9f103f2a35 (build Oct 11 2019 16:45:47) gamma-only
REM
REM
REM
REM
REM ./C.cell (67c5d0192afd7a3ce4a0888e5fe73b87)
REM AIRSS Version 0.9.1 bugfix July 2018 build 013d7b7c2542+ Fri, 06 Jul 2018 19:26:36 +0100
REM compiler GCC version 4.8.5 20150623 (Red Hat 4.8.5-39)
REM options -cpp -mtune=generic -march=x86-64 -g -O0
REM seed -1609715996 -265679356 1303977421 56919026 -735855841 -10548985 -728927122 873974205 -544270908 -1004502481 900117092 2037388430
REM
REM C.POTCAR (d86ddea03c3ceb6dc662c8ad6801f873)
REM 
CELL 1.54180   15.00000   15.00000   15.00000   90.00000   90.00000   90.00000
LATT -1
SFAC C  
C      1  0.6487652881874  0.6019271216922  0.3721944936397 1.0
C      1  0.4731147292846  0.4393836425726  0.5456164322794 1.0
C      1  0.4984122706016  0.3564606500559  0.4015038696490 1.0
C      1  0.3672302518855  0.3767668930490  0.5059799067524 1.0
C      1  0.5096892216806  0.5805614886213  0.4381852790617 1.0
C      1  0.6634336824359  0.5514022242081  0.5627481863053 1.0
C      1  0.3584233652688  0.5962088849785  0.4236126568476 1.0
C      1  0.5845361821375  0.6430115656901  0.4365309174737 1.0
C      1  0.4440447707949  0.5826151690206  0.3609880802018 1.0
C      1  0.4744670722892  0.4190314335720  0.3319279680981 1.0
C      1  0.3161747153892  0.4534275409905  0.4814641626107 1.0
C      1  0.5936572948768  0.3746893869005  0.4217898373088 1.0
C      1  0.5733107286095  0.5199836924648  0.5912843896793 1.0
C      1  0.3569872232892  0.6054565494403  0.5214011539488 1.0
C      1  0.5570462001484  0.4530742595534  0.2922942216522 1.0
C      1  0.5156850246799  0.6881109527331  0.5804096154534 1.0
C      1  0.6769320340168  0.5115836020747  0.3969530935823 1.0
C      1  0.5772650040919  0.6532222738056  0.6466560964891 1.0
C      1  0.3185484167015  0.5190889624369  0.5543169026788 1.0
C      1  0.4603910860036  0.2596491595095  0.6047466772636 1.0
C      1  0.5908515950108  0.6889623983993  0.5151301924452 1.0
C      1  0.4004597977600  0.5152264789194  0.7000592179523 1.0
C      1  0.3888547622800  0.3917281293541  0.6018405529595 1.0
C      1  0.3464378266076  0.4740336444735  0.6345472462720 1.0
C      1  0.5559029952599  0.5375788850067  0.2509356043563 1.0
C      1  0.4548058653669  0.2440972036088  0.5204268840926 1.0
C      1  0.4362453287848  0.5946396901996  0.6647065640672 1.0
C      1  0.4930628838567  0.4789006487947  0.7192604234463 1.0
C      1  0.5626100080835  0.4187808892544  0.5890491395386 1.0
C      1  0.5317734005318  0.5676164025120  0.6767976458603 1.0
C      1  0.4076715828563  0.4870509183391  0.3437964564181 1.0
C      1  0.6527258912569  0.6448149038485  0.5802071746814 1.0
C      1  0.4238567558593  0.6449743604841  0.5851330062286 1.0
C      1  0.6792773652182  0.4891348148159  0.4909691425914 1.0
C      1  0.6252820531532  0.4063345705847  0.5061102195213 1.0
C      1  0.6267558640116  0.4370386134688  0.3544974469714 1.0
C      1  0.4362652931322  0.3159246871963  0.4639223287204 1.0
C      1  0.6030420096558  0.6100550548458  0.2906620861176 1.0
C      1  0.5055619076606  0.5256376558795  0.5130284920391 1.0
C      1  0.4476323636996  0.3321988227857  0.6573946730634 1.0
C      1  0.3372910717547  0.5028631810810  0.4031721780733 1.0
C      1  0.5055850327577  0.6098388958188  0.2848823170037 1.0
C      1  0.5199337830688  0.3969137969597  0.6828671666042 1.0
END
