TITL C-25683-137-50 -9.409 3375.00 -1595.69097415 0 0 194 () n - 1
REM
REM Run started: at 2020.12.26 22:15:52 in /gpfs/home/chem/mssmkc/CARBON/AIRSS/Generating-Clusters/Str-Search/Only-C1/C100-200
REM VASP from code version vasp.5.4.4.18Apr17-6-g9f103f2a35 (build Oct 11 2019 16:45:47) gamma-only
REM
REM
REM
REM
REM ./C.cell (efaf0b2bf1589a83377268d7ebe2c73f)
REM AIRSS Version 0.9.1 bugfix July 2018 build 013d7b7c2542+ Fri, 06 Jul 2018 19:26:36 +0100
REM compiler GCC version 6.3.0
REM options -cpp -iprefix /gpfs/warwick/csc/orac/software/Core/GCCcore/6.3.0/bin/../lib/gcc/x86_64-pc-linux-gnu/6.3.0/ -mtune=generic -march=x86-64 -g -O0
REM seed 1014308112 1694437697 210275094 -2030839253 -599649817 255092979 229871958 1178140452 851027014 -88473204 1288201117 656620494
REM
REM C.POTCAR (d86ddea03c3ceb6dc662c8ad6801f873)
REM 
CELL 1.54180   15.00000   15.00000   15.00000   90.00000   90.00000   90.00000
LATT -1
SFAC C  
C      1  0.6668569819340  0.5549149067752  0.8687912597453 1.0
C      1  0.7778878083831  0.6761380560285  0.6451801599738 1.0
C      1  0.3800288336345  0.3711950518587  0.7021568197636 1.0
C      1  0.5293803562736  0.7265597935328  0.4826094631659 1.0
C      1  0.2506436945717  0.2986516526077  0.7204753858560 1.0
C      1  0.6368999469215  0.5936579512909  0.5188312083358 1.0
C      1  0.1460387786609  0.5140697524601  0.6420818051542 1.0
C      1  0.1721745037548  0.6385840140112  0.2675146908384 1.0
C      1  0.3084653947165  0.7636897226245  0.7146317006688 1.0
C      1  0.5744734337570  0.1480767761087  0.5990121105926 1.0
C      1  0.2881348588578  0.8437407711290  0.2781094683915 1.0
C      1  0.3498026133604  0.8434072751459  0.6728143501272 1.0
C      1  0.7667315988313  0.7215617180946  0.5643937539106 1.0
C      1  0.7235202353618  0.4669477044808  0.1830776476429 1.0
C      1  0.4060785683314  0.1551230251592  0.5789125940781 1.0
C      1  0.5337955705851  0.8691574083956  0.2979452608899 1.0
C      1  0.7479434657421  0.2946844639450  0.6051866442667 1.0
C      1  0.4588630906430  0.5504675197205  0.7103142037463 1.0
C      1  0.5358271309996  0.5781747969915  0.5400852223176 1.0
C      1  0.2888352843829  0.3309095085153  0.5299274352220 1.0
C      1  0.4099539313096  0.1512302920652  0.4799219988891 1.0
C      1  0.2695193830746  0.4184795589678  0.2068410887053 1.0
C      1  0.2265461707979  0.5734439653874  0.7829918583708 1.0
C      1  0.5470123085099  0.5927849457180  0.6908790042880 1.0
C      1  0.6485336203707  0.3341272261322  0.2151588386915 1.0
C      1  0.4064036795502  0.5985213854960  0.2408779860493 1.0
C      1  0.6865975695420  0.7785497013789  0.4089649089198 1.0
C      1  0.5856085408931  0.2337215265964  0.5377930260093 1.0
C      1  0.7351533210535  0.4262761847108  0.8210763386190 1.0
C      1  0.7510347701283  0.5749557958551  0.8190146394567 1.0
C      1  0.1443531787947  0.3680084251930  0.5809397634597 1.0
C      1  0.5906633211285  0.5164031057498  0.7178156722182 1.0
C      1  0.6689849380411  0.8246547865593  0.4934692700241 1.0
C      1  0.7241549533808  0.6814068377311  0.4020716570281 1.0
C      1  0.5126002391155  0.2348733840655  0.2512251798545 1.0
C      1  0.3102920660792  0.5344165008787  0.7677941524259 1.0
C      1  0.3070569260110  0.7513401933728  0.3603700806383 1.0
C      1  0.1551256087227  0.4201224397850  0.6609729948028 1.0
C      1  0.3783863405958  0.6824349460010  0.6771733074412 1.0
C      1  0.4789236284602  0.3800111623233  0.7190675744245 1.0
C      1  0.5599501981745  0.9434255617724  0.4385504579853 1.0
C      1  0.3095399351861  0.4493269165436  0.7139274257362 1.0
C      1  0.6609788159394  0.4586982260308  0.8745030789381 1.0
C      1  0.4690769320074  0.4309070787033  0.0904028968928 1.0
C      1  0.3204042623416  0.6503362177325  0.3765517725358 1.0
C      1  0.8600649304843  0.5263185738639  0.6242619988120 1.0
C      1  0.1446650150946  0.5210875669836  0.5452664836212 1.0
C      1  0.3847505751764  0.6883682376681  0.5248240986822 1.0
C      1  0.4452153652812  0.3480110109103  0.5274681450903 1.0
C      1  0.7175722313488  0.4012160047806  0.2499943082163 1.0
C      1  0.5025656522145  0.5200816141585  0.1083535716381 1.0
C      1  0.4229130701056  0.5146003850065  0.6244583247192 1.0
C      1  0.5679649607255  0.4009576107026  0.4412280883982 1.0
C      1  0.3726161914520  0.2872291198022  0.1612568210950 1.0
C      1  0.3165354600885  0.8430497922263  0.5876993845541 1.0
C      1  0.5632019435505  0.7525763594300  0.7134475344539 1.0
C      1  0.1628958227776  0.7013468126304  0.4224486843288 1.0
C      1  0.2946188565556  0.8043219058857  0.4420137535860 1.0
C      1  0.6440868102552  0.4798772002892  0.6504032614636 1.0
C      1  0.9181649621989  0.1935146697508  0.4596860400450 1.0
C      1  0.7150814545775  0.3116243830444  0.3853039201064 1.0
C      1  0.3338553372783  0.8583851338396  0.3656325104861 1.0
C      1  0.6300153731389  0.9094952784088  0.4907329494946 1.0
C      1  0.4912358794633  0.1610742218249  0.4181651632736 1.0
C      1  0.5052884091530  0.4725961683740  0.7576519721086 1.0
C      1  0.7509581871106  0.4889524832925  0.4310851747315 1.0
C      1  0.1810356798677  0.4008448860165  0.3492470318064 1.0
C      1  0.2966261622752  0.3091993326389  0.4401148168087 1.0
C      1  0.5164550146665  0.3528378493813  0.1237798065570 1.0
C      1  0.4596782804844  0.5631475792211  0.4683857021841 1.0
C      1  0.4778204391641  0.7269852452632  0.6438310041784 1.0
C      1  0.6769525685684  0.8313412689844  0.3345026563977 1.0
C      1  0.3315533807002  0.4806906635529  0.6167836126409 1.0
C      1  0.7986969985029  0.5945840499299  0.2609407652998 1.0
C      1  0.7989261796453  0.6957232077698  0.4803489702733 1.0
C      1  0.2213275875392  0.7431430401210  0.6615813443591 1.0
C      1  0.8432503294528  0.3857508973563  0.6823184175212 1.0
C      1  0.2558936748195  0.2184073656694  0.4363092834545 1.0
C      1  0.3653916037588  0.3081521591146  0.8555232764478 1.0
C      1  0.8467281050607  0.4754340849822  0.7090950414601 1.0
C      1  0.4210523853001  0.3941902642130  0.3618815607249 1.0
C      1  0.3193317418423  0.1660289290766  0.2544303659668 1.0
C      1  0.2918753022633  0.5638844911871  0.5745487463988 1.0
C      1  0.7133471164070  0.4511924302077  0.5155477592477 1.0
C      1  0.2289778801564  0.6326207601802  0.4373909765162 1.0
C      1  0.4776390105808  0.2089883519205  0.7167932228986 1.0
C      1  0.8334980422906  0.3039240275019  0.5409566138920 1.0
C      1  0.3459428801661  0.6439728971098  0.5921321102371 1.0
C      1  0.5561331421521  0.7006857903146  0.8049676566953 1.0
C      1  0.2632476152751  0.5102528792570  0.1801111916224 1.0
C      1  0.2408715258942  0.5865482673108  0.2399735515596 1.0
C      1  0.4808841241024  0.4726378185902  0.8531392552056 1.0
C      1  0.6081310178540  0.3694015766882  0.1372881683591 1.0
C      1  0.3255117767967  0.2145511955295  0.1877339831446 1.0
C      1  0.6631541511301  0.1840086804860  0.4027931136920 1.0
C      1  0.6730653222474  0.7633420034183  0.5725475917364 1.0
C      1  0.7153244334292  0.6601742229382  0.7920931487698 1.0
C      1  0.3355610179792  0.1905417588325  0.6407990052351 1.0
C      1  0.6070643935080  0.5495404958494  0.3690067592541 1.0
C      1  0.2029650921032  0.2850379612450  0.5663396134032 1.0
C      1  0.7099190709267  0.3466502177736  0.7726120917869 1.0
C      1  0.6089208142571  0.4029918364740  0.6119054822679 1.0
C      1  0.5143036975441  0.5825783102558  0.3883302441555 1.0
C      1  0.3782333207518  0.8369186317054  0.5038362610981 1.0
C      1  0.5929740307251  0.6432228577931  0.2189605230515 1.0
C      1  0.0907965822333  0.1889137801798  0.4792457687599 1.0
C      1  0.7358024180872  0.5634021814771  0.1940206487786 1.0
C      1  0.7913477124857  0.4974609620701  0.7855355761212 1.0
C      1  0.8956946713283  0.5137007775666  0.3732277623311 1.0
C      1  0.5021087321952  0.3983045512015  0.9011586068563 1.0
C      1  0.6497199957655  0.7646504193794  0.6764507346494 1.0
C      1  0.2328332513968  0.7846015691782  0.5769365473656 1.0
C      1  0.4281737914744  0.3403292808009  0.8988841125924 1.0
C      1  0.2210587185443  0.5737989549840  0.5117142133667 1.0
C      1  0.4693767589267  0.2834453461420  0.1749883220826 1.0
C      1  0.2267895065859  0.6696823368463  0.7975241203796 1.0
C      1  0.2252497968247  0.3900717603695  0.7149733331109 1.0
C      1  0.3847164206067  0.2177180913618  0.7194971994156 1.0
C      1  0.0054832485625  0.1879966489339  0.4705811528343 1.0
C      1  0.7670972940688  0.3270684853880  0.6988279046988 1.0
C      1  0.7350860650613  0.2313427108283  0.4575236335093 1.0
C      1  0.6035913006877  0.2683161654173  0.2646657071268 1.0
C      1  0.1618648278975  0.5801939183531  0.7079811561860 1.0
C      1  0.6819326299284  0.5845674515724  0.4253816747114 1.0
C      1  0.5993273594232  0.5310073214344  0.1111278397781 1.0
C      1  0.5706108707578  0.5612534215765  0.2722336749137 1.0
C      1  0.7687705349317  0.3755523274897  0.5494274473380 1.0
C      1  0.3737781532869  0.4350775685267  0.0942451026725 1.0
C      1  0.4745312070450  0.3753791640978  0.4378605616175 1.0
C      1  0.3309977058049  0.3606355105815  0.3603717261304 1.0
C      1  0.5123710595865  0.7949779525578  0.2479686613172 1.0
C      1  0.8522365024152  0.4955349463428  0.4527038435044 1.0
C      1  0.6125184854365  0.4442039371203  0.3636368742334 1.0
C      1  0.2109050370890  0.7705733534566  0.4837233534350 1.0
C      1  0.4717100877832  0.5110220517276  0.5491703904500 1.0
C      1  0.4940751253463  0.9068192237989  0.3787620251739 1.0
C      1  0.7830314867435  0.5829741046129  0.6180720758454 1.0
C      1  0.6338744818550  0.6491270642038  0.8393819506958 1.0
C      1  0.5465602247881  0.7203462241619  0.2251104091042 1.0
C      1  0.4732949819331  0.5572075545803  0.2985851257326 1.0
C      1  0.6161873138730  0.3242358592232  0.8018777311641 1.0
C      1  0.3843495899861  0.6041590772311  0.7512120332728 1.0
C      1  0.6221850881416  0.4090512250388  0.5172391289293 1.0
C      1  0.2591182809933  0.3869867867270  0.2992322671990 1.0
C      1  0.8382053208701  0.2311226297611  0.4751072172961 1.0
C      1  0.3304821177199  0.3720681720328  0.1451278501598 1.0
C      1  0.5990310473443  0.9980459929218  0.5020131434076 1.0
C      1  0.4665647786488  0.1815151266990  0.3273632124205 1.0
C      1  0.5405124830061  0.6513496307072  0.6117145380551 1.0
C      1  0.4940337996540  0.6788734929665  0.4123592474605 1.0
C      1  0.6094157807422  0.0894147471578  0.5242262630387 1.0
C      1  0.3012377055743  0.7227705880766  0.8076005521789 1.0
C      1  0.2500650223858  0.2410876668225  0.6451519302117 1.0
C      1  0.4665584363650  0.4546829068782  0.2974879548262 1.0
C      1  0.3690936048599  0.1623887048424  0.3308209531108 1.0
C      1  0.6899399637712  0.2318760681930  0.5524885677031 1.0
C      1  0.6983195505258  0.5343150223426  0.5827026602705 1.0
C      1  0.6505665387674  0.4513596879502  0.1180618957055 1.0
C      1  0.4875112274761  0.1566549497568  0.6366925553138 1.0
C      1  0.5578381595356  0.4568312320418  0.2821639955547 1.0
C      1  0.5380770787007  0.2937519436138  0.7410802915437 1.0
C      1  0.1769006038271  0.2182148348067  0.4915362579051 1.0
C      1  0.3411840885464  0.2934296623199  0.7618764667969 1.0
C      1  0.7229148039696  0.7109252752057  0.7140084139549 1.0
C      1  0.4095642603136  0.8873804001090  0.4156821917904 1.0
C      1  0.3891818772076  0.6765853646571  0.8260601425192 1.0
C      1  0.4722097598956  0.6983295315376  0.8408026358046 1.0
C      1  0.6591522375089  0.2516256452464  0.3395802549695 1.0
C      1  0.1290621107254  0.4312882265762  0.5099028138661 1.0
C      1  0.4009093490983  0.6468362268305  0.4398661754019 1.0
C      1  0.2287927554683  0.7783648370412  0.3054873432902 1.0
C      1  0.5826876713111  0.1623271394384  0.4554665782365 1.0
C      1  0.5129938647269  0.3005149370798  0.5686199147421 1.0
C      1  0.1626393679153  0.7116649312136  0.3228225515599 1.0
C      1  0.6067792502956  0.6901110567314  0.5448620170842 1.0
C      1  0.6303295229267  0.8866356159447  0.2911549349344 1.0
C      1  0.5431821975593  0.3426633885495  0.6515130931039 1.0
C      1  0.7914748209353  0.6642952501139  0.3256743047796 1.0
C      1  0.8674537767981  0.3836054784621  0.5857969369822 1.0
C      1  0.6724006141250  0.1346284948164  0.5929030748572 1.0
C      1  0.4179876552738  0.5667253296287  0.1478824323297 1.0
C      1  0.8629491236868  0.5338297268106  0.2971289125797 1.0
C      1  0.3593644900278  0.3769997858065  0.5830828328165 1.0
C      1  0.8817448709726  0.4746687380323  0.5483973596288 1.0
C      1  0.3342449657896  0.1588382879390  0.4190435222988 1.0
C      1  0.8406369519080  0.6862942092190  0.4025307531413 1.0
C      1  0.4508313084883  0.7605054630043  0.5420904017046 1.0
C      1  0.3257242846765  0.6103311543232  0.2838392101206 1.0
C      1  0.1399954861638  0.4113224445585  0.4199264822088 1.0
C      1  0.3395632837155  0.5220225556398  0.1201382173659 1.0
C      1  0.6552646408946  0.6008161588792  0.1563664024260 1.0
C      1  0.5952875537610  0.3846707360493  0.8735294836211 1.0
C      1  0.1754603983265  0.6777629539277  0.7135464659358 1.0
C      1  0.7127533502025  0.4130061778401  0.3549888232983 1.0
END
