TITL C-25683-137-1 -7.213 3375.00 -1241.92040365 0 0 152 () n - 1
REM
REM Run started: at 2020.12.25 01:24:41 in /gpfs/home/chem/mssmkc/CARBON/AIRSS/Generating-Clusters/Str-Search/Only-C1/C100-200
REM VASP from code version vasp.5.4.4.18Apr17-6-g9f103f2a35 (build Oct 11 2019 16:45:47) gamma-only
REM
REM
REM
REM
REM ./C.cell (efaf0b2bf1589a83377268d7ebe2c73f)
REM AIRSS Version 0.9.1 bugfix July 2018 build 013d7b7c2542+ Fri, 06 Jul 2018 19:26:36 +0100
REM compiler GCC version 6.3.0
REM options -cpp -iprefix /gpfs/warwick/csc/orac/software/Core/GCCcore/6.3.0/bin/../lib/gcc/x86_64-pc-linux-gnu/6.3.0/ -mtune=generic -march=x86-64 -g -O0
REM seed -112523249 -48833903 2137132998 1929667584 1126526115 -1059847790 919542323 149758664 252233964 494723526 -244574116 1160165618
REM
REM C.POTCAR (d86ddea03c3ceb6dc662c8ad6801f873)
REM 
CELL 1.54180   15.00000   15.00000   15.00000   90.00000   90.00000   90.00000
LATT -1
SFAC C  
C      1  0.5689891625235  0.4908673302872  0.7011767214071 1.0
C      1  0.5213422465668  0.6341004910970  0.3803412062502 1.0
C      1  0.5015204074434  0.8319192684725  0.5552548009657 1.0
C      1  0.4907670973020  0.6977213488675  0.2969460335227 1.0
C      1  0.6545200926833  0.3533564114303  0.8423972712281 1.0
C      1  0.2510205247987  0.6567161296738  0.3355465482037 1.0
C      1  0.5294090694014  0.5588570095623  0.7603974310046 1.0
C      1  0.6380870211919  0.5249929908387  0.6524145816972 1.0
C      1  0.7419197289046  0.5381351785065  0.2127545596300 1.0
C      1  0.2410404160113  0.7702135328747  0.5382022753562 1.0
C      1  0.8097078619557  0.4200724341002  0.3159893562137 1.0
C      1  0.4536438371457  0.7042615498645  0.6271104543758 1.0
C      1  0.5404580289637  0.6718362117724  0.4724720447461 1.0
C      1  0.5892092701850  0.3424303804467  0.6393091395011 1.0
C      1  0.4902618604120  0.7219828531289  0.8081490489184 1.0
C      1  0.6135572677726  0.1685785880517  0.4713296211043 1.0
C      1  0.5524649214491  0.7769299350073  0.3228907196325 1.0
C      1  0.7437651831041  0.4745248386993  0.7761831033412 1.0
C      1  0.6187829448346  0.6079769604480  0.7860003734252 1.0
C      1  0.3545393404583  0.3846102014757  0.4406941592072 1.0
C      1  0.8249464505321  0.7068289014535  0.4696725186068 1.0
C      1  0.6608684385194  0.5671568921481  0.4130144801608 1.0
C      1  0.3119030559065  0.2716350691294  0.3285093300786 1.0
C      1  0.8077768668654  0.6822656829816  0.6910030789555 1.0
C      1  0.2207832412153  0.4842459179688  0.7129977351651 1.0
C      1  0.1596950312728  0.4825283363391  0.4929125252956 1.0
C      1  0.7022642404350  0.3864434588905  0.7712437812926 1.0
C      1  0.5347082224691  0.4059053161417  0.4038215617415 1.0
C      1  0.6265465877732  0.6888144267787  0.5128348815563 1.0
C      1  0.2017826488584  0.7499314023994  0.4528947868858 1.0
C      1  0.7168014259137  0.5628772741264  0.8015850146576 1.0
C      1  0.3784910950249  0.4878854443196  0.8355523359535 1.0
C      1  0.5195182541441  0.2566435081735  0.6519803880225 1.0
C      1  0.5136188735364  0.8254668948412  0.3956667740983 1.0
C      1  0.4033368808068  0.5174901349234  0.6175936901126 1.0
C      1  0.6513341462918  0.8420110904914  0.4898606507247 1.0
C      1  0.3815300537505  0.3181187555745  0.8366540524136 1.0
C      1  0.6594159350240  0.6156375820050  0.6889290211640 1.0
C      1  0.5502545893611  0.4813961535133  0.2159241031803 1.0
C      1  0.4239956499074  0.3746340560517  0.1132942353699 1.0
C      1  0.2211115651935  0.4237236549121  0.6423655992264 1.0
C      1  0.3795112867510  0.4484250975531  0.1325899239579 1.0
C      1  0.3307116434512  0.7941024935751  0.5678872648464 1.0
C      1  0.3814154794705  0.3103764382542  0.5023721266496 1.0
C      1  0.6918518447570  0.2376437192763  0.4590593143321 1.0
C      1  0.3899616253499  0.7107024753199  0.2954716095054 1.0
C      1  0.2632591456117  0.7400100241416  0.3817021462134 1.0
C      1  0.6755369262146  0.2512820978951  0.3004370330946 1.0
C      1  0.6076859701365  0.4262467715209  0.1691310083091 1.0
C      1  0.8359678983401  0.5006640373145  0.3637880157710 1.0
C      1  0.4823944296123  0.5689368638448  0.5890195110536 1.0
C      1  0.3113572401061  0.5678441897779  0.2133421795037 1.0
C      1  0.3556672063222  0.7673338844051  0.3653045624376 1.0
C      1  0.1704740577911  0.6451376021754  0.4686401756736 1.0
C      1  0.4158587197986  0.2378349300929  0.4636384723979 1.0
C      1  0.4474599024017  0.1911044657459  0.3935903177504 1.0
C      1  0.3833543647965  0.4471472949769  0.2322923789296 1.0
C      1  0.6982758076393  0.4607181235009  0.1773604712023 1.0
C      1  0.3782938189611  0.4549140265429  0.6910209176441 1.0
C      1  0.5734554691289  0.3831029487981  0.8927890347735 1.0
C      1  0.4069734333095  0.7135661504526  0.7929666270840 1.0
C      1  0.6237505910730  0.3102134883016  0.4676883912299 1.0
C      1  0.2879013401428  0.6058313072140  0.7375666871045 1.0
C      1  0.6893435384991  0.3598570389809  0.6708428194165 1.0
C      1  0.8072177508277  0.3834529318659  0.4653168236447 1.0
C      1  0.2020240720873  0.5974523499857  0.3904269381628 1.0
C      1  0.5459555675567  0.2238783565746  0.2508214554602 1.0
C      1  0.1750763250131  0.4042089838738  0.5537672930880 1.0
C      1  0.4705114916958  0.5146857368872  0.8323072165730 1.0
C      1  0.7070562709598  0.4614722824602  0.6318884836832 1.0
C      1  0.4790701091854  0.3155554669955  0.1576247640560 1.0
C      1  0.5234422159137  0.6411971315193  0.2205720700038 1.0
C      1  0.2543438362238  0.2655868236818  0.5995365739883 1.0
C      1  0.4483802353248  0.3864662782085  0.7009522861705 1.0
C      1  0.2067405559739  0.5779517450239  0.6938566732064 1.0
C      1  0.3492042793564  0.3111618981880  0.5987007756589 1.0
C      1  0.7470567606408  0.3012611647963  0.6068847018385 1.0
C      1  0.8142595981466  0.6385392652200  0.4187105120234 1.0
C      1  0.2445302806421  0.2460026524139  0.3874631549874 1.0
C      1  0.2519897757321  0.2108526335189  0.6722170304905 1.0
C      1  0.7980903757308  0.4605521497474  0.5913446919447 1.0
C      1  0.5343484495568  0.4068724532848  0.6870810251009 1.0
C      1  0.5248332142741  0.7711618014739  0.6244757991432 1.0
C      1  0.7387661181246  0.2671579865081  0.3676860687628 1.0
C      1  0.3168351842580  0.4040980652737  0.6260108938539 1.0
C      1  0.3382437991593  0.6888560084511  0.7357210688221 1.0
C      1  0.3219373726844  0.6451782913871  0.2705657411092 1.0
C      1  0.5765449894465  0.5704898016070  0.2502691047822 1.0
C      1  0.3560648659048  0.7206046094631  0.6382595682867 1.0
C      1  0.3423971356032  0.4766053422689  0.5642545359865 1.0
C      1  0.5327008811680  0.5262937620239  0.5120649558439 1.0
C      1  0.1932700607311  0.3123109346149  0.5340110383898 1.0
C      1  0.5618371350910  0.8482757599645  0.4783865611482 1.0
C      1  0.2209509422075  0.6754953442705  0.5633968707175 1.0
C      1  0.6123025426654  0.5936328859477  0.4959867005126 1.0
C      1  0.8151210006074  0.7328011382108  0.6267487202021 1.0
C      1  0.4199302524744  0.6030988751498  0.1086964107213 1.0
C      1  0.5058749415079  0.6262891006866  0.6724931529195 1.0
C      1  0.4674516428567  0.4591057843784  0.2649160876522 1.0
C      1  0.5902706006839  0.3628496602940  0.5413089416646 1.0
C      1  0.5835439926000  0.2340927152055  0.3389971928897 1.0
C      1  0.1933699428573  0.2671350844261  0.4516927951171 1.0
C      1  0.4998640656204  0.4354932167633  0.8837537940444 1.0
C      1  0.4582344741408  0.2473363986851  0.2310348233913 1.0
C      1  0.4842548728006  0.6492692728346  0.1351531950546 1.0
C      1  0.3738467118326  0.6343981166480  0.4987672951895 1.0
C      1  0.7937224147551  0.3462281192650  0.3776495753778 1.0
C      1  0.1663201740163  0.6111581700365  0.6150344346504 1.0
C      1  0.7844840516004  0.7459097445927  0.5389031562533 1.0
C      1  0.5773598202044  0.7047115129097  0.7837266333463 1.0
C      1  0.2976077946884  0.4844766590413  0.2645452456919 1.0
C      1  0.3089440765769  0.3666147702367  0.3613863429078 1.0
C      1  0.3504494285564  0.5451018186476  0.1269642292351 1.0
C      1  0.4244821714911  0.2929532001522  0.6769045872830 1.0
C      1  0.8162168908117  0.4816157054941  0.4663058445173 1.0
C      1  0.6030626767117  0.5872591354923  0.3434546833356 1.0
C      1  0.2539033494258  0.4481019096598  0.3372771129181 1.0
C      1  0.8186767802892  0.5931702396453  0.3349013577766 1.0
C      1  0.7001915939651  0.6964493229361  0.2744022667757 1.0
C      1  0.3998639188477  0.2291409500160  0.3078813953352 1.0
C      1  0.5465143870273  0.1712228314077  0.4059518924232 1.0
C      1  0.3804683808926  0.5587828760590  0.4432771253630 1.0
C      1  0.4720825000504  0.5487462574284  0.4130738282025 1.0
C      1  0.5793132421270  0.3340762722792  0.1623396761216 1.0
C      1  0.7590887489839  0.6199068908452  0.2604032562625 1.0
C      1  0.4182636342786  0.8152292359659  0.4215420291020 1.0
C      1  0.3150075381076  0.5075028010223  0.7605383569079 1.0
C      1  0.6302523268613  0.1723808117198  0.5681533856295 1.0
C      1  0.4877691342696  0.4685634604677  0.3585255171579 1.0
C      1  0.7560170311482  0.5522009025020  0.4282707186909 1.0
C      1  0.6226933304482  0.2651052088040  0.2125192077407 1.0
C      1  0.7125691246702  0.2258498467205  0.5607243556420 1.0
C      1  0.7702354245957  0.4501880366024  0.2358078804552 1.0
C      1  0.5863384120606  0.6958205259709  0.6802250515599 1.0
C      1  0.4622542189789  0.6565932161446  0.5360804018561 1.0
C      1  0.3705462843184  0.2625703829952  0.7661530722900 1.0
C      1  0.6208676194602  0.3049581502561  0.9134839406981 1.0
C      1  0.7987757824402  0.3643225357318  0.5572739514642 1.0
C      1  0.1392715988721  0.5707349144325  0.5318412824796 1.0
C      1  0.3000968364483  0.2048825410602  0.7417961988793 1.0
C      1  0.6425240762828  0.7538725129998  0.2982301480084 1.0
C      1  0.5479574230941  0.4321675225453  0.4977141704053 1.0
C      1  0.6885779323242  0.7642064200015  0.5169827527041 1.0
C      1  0.4071140491427  0.3975644208715  0.8679165846899 1.0
C      1  0.7594131484490  0.6029733916617  0.7158848445585 1.0
C      1  0.4081826367401  0.8265934226612  0.5171879074694 1.0
C      1  0.5764401844956  0.3239859516684  0.3893212758242 1.0
C      1  0.1986209346632  0.5005128430078  0.4023892360434 1.0
C      1  0.3445855602735  0.4751891921099  0.4720614574853 1.0
C      1  0.5571566424157  0.1812731657109  0.6250520389351 1.0
C      1  0.3159513923729  0.6615164128699  0.5660061661722 1.0
C      1  0.7858693563254  0.5037168591408  0.6874409538147 1.0
END
