TITL C-25683-137-47 -5.75 3375.00 -967.02834429 0 0 119 () n - 1
REM
REM Run started: at 2020.12.26 19:21:11 in /gpfs/home/chem/mssmkc/CARBON/AIRSS/Generating-Clusters/Str-Search/Only-C1/C100-200
REM VASP from code version vasp.5.4.4.18Apr17-6-g9f103f2a35 (build Oct 11 2019 16:45:47) gamma-only
REM
REM
REM
REM
REM ./C.cell (efaf0b2bf1589a83377268d7ebe2c73f)
REM AIRSS Version 0.9.1 bugfix July 2018 build 013d7b7c2542+ Fri, 06 Jul 2018 19:26:36 +0100
REM compiler GCC version 6.3.0
REM options -cpp -iprefix /gpfs/warwick/csc/orac/software/Core/GCCcore/6.3.0/bin/../lib/gcc/x86_64-pc-linux-gnu/6.3.0/ -mtune=generic -march=x86-64 -g -O0
REM seed -1847940242 -1176648543 2050520902 -993334917 282634659 360760191 -389457266 919677573 -980751403 -312208741 396343828 262638161
REM
REM C.POTCAR (d86ddea03c3ceb6dc662c8ad6801f873)
REM 
CELL 1.54180   15.00000   15.00000   15.00000   90.00000   90.00000   90.00000
LATT -1
SFAC C  
C      1  0.3907713419917  0.3784916420168  0.7778849785768 1.0
C      1  0.4861619408984  0.2980922147997  0.2419608253991 1.0
C      1  0.2688022187163  0.3794812886012  0.3476924857880 1.0
C      1  0.3159097349304  0.5369790829640  0.7923334378940 1.0
C      1  0.4923493908882  0.6620262811003  0.6111211932136 1.0
C      1  0.6798916817526  0.6322375688777  0.3874023246605 1.0
C      1  0.6348736765116  0.6000394436571  0.4757375477237 1.0
C      1  0.5769905145630  0.3194883691979  0.7706249553467 1.0
C      1  0.3414634624014  0.4204017433661  0.3943801447731 1.0
C      1  0.7763440866227  0.6047843511804  0.4029887838176 1.0
C      1  0.6904671504258  0.5305449918274  0.2508803221397 1.0
C      1  0.5683029639282  0.7343147667523  0.3399405526712 1.0
C      1  0.5250006322171  0.1799236323816  0.5195716322285 1.0
C      1  0.6551112828662  0.4129811423219  0.1493084443418 1.0
C      1  0.4542744622054  0.4056259150542  0.5261665977488 1.0
C      1  0.6862635125097  0.3440817234614  0.3527055212250 1.0
C      1  0.6302428730813  0.5833859432371  0.3137837573977 1.0
C      1  0.4962899324143  0.5740549695878  0.6036856488432 1.0
C      1  0.4845008429657  0.2065563797475  0.6775188821586 1.0
C      1  0.4543702457200  0.8263061438145  0.5821282474468 1.0
C      1  0.7533624176026  0.4695168865155  0.5279631374283 1.0
C      1  0.3972040185590  0.1869043347720  0.6590647326958 1.0
C      1  0.1933357903414  0.4634900033751  0.5823000303754 1.0
C      1  0.6630121162616  0.6517668778769  0.5423265151877 1.0
C      1  0.5231302123308  0.3450055699283  0.5724245820947 1.0
C      1  0.3736732557058  0.1882964249541  0.5606586062645 1.0
C      1  0.5427686689643  0.6201491097656  0.7650045316646 1.0
C      1  0.7810546430399  0.5310773847873  0.5955028455750 1.0
C      1  0.6627773817585  0.8593614284586  0.4871453126247 1.0
C      1  0.1694420712918  0.6376621585302  0.6118855069375 1.0
C      1  0.6612250121991  0.3443831642704  0.1959427118568 1.0
C      1  0.1381231144824  0.5691676394283  0.4605616074319 1.0
C      1  0.4464279392268  0.6250185073340  0.7790854931630 1.0
C      1  0.3893539435707  0.8304873825942  0.5045486080713 1.0
C      1  0.3672873144714  0.1888787909292  0.3410647963221 1.0
C      1  0.3944286387450  0.6898960787828  0.7232312510658 1.0
C      1  0.3928952634634  0.7300065125372  0.3691072140895 1.0
C      1  0.3187702842850  0.5921752166193  0.2325088002428 1.0
C      1  0.4379347209491  0.3601201138464  0.2100496580628 1.0
C      1  0.4399931869838  0.5076727562767  0.5551610533661 1.0
C      1  0.8075632705255  0.6453922246112  0.4769198479580 1.0
C      1  0.3088233263194  0.6863944738834  0.6818685349350 1.0
C      1  0.6408139564456  0.3080786568827  0.2804096009916 1.0
C      1  0.7436407348441  0.7119013038467  0.5193881259491 1.0
C      1  0.7925059127601  0.6898677090304  0.6105322781912 1.0
C      1  0.6740884906829  0.5313183166690  0.7553460912477 1.0
C      1  0.6343594784574  0.4467633438211  0.7662645016480 1.0
C      1  0.3606516575011  0.6515344259303  0.2999179749454 1.0
C      1  0.2664972188286  0.5220954237729  0.5660003079964 1.0
C      1  0.6440703467447  0.5047879378642  0.1653556349666 1.0
C      1  0.7947516559716  0.5142445454490  0.3734034701650 1.0
C      1  0.4360833098708  0.1709188607045  0.4908598363850 1.0
C      1  0.4963603182384  0.4803769961163  0.4732655054848 1.0
C      1  0.5337312334603  0.2390988071029  0.5968406811039 1.0
C      1  0.3489755424629  0.5498511023957  0.5481736843956 1.0
C      1  0.4420791617060  0.1806447961131  0.3936289883055 1.0
C      1  0.6066498501591  0.8875274033878  0.5443401449119 1.0
C      1  0.4855368525797  0.4927791874257  0.3766259321598 1.0
C      1  0.6701697450958  0.3257805438113  0.6401832376269 1.0
C      1  0.2261865113347  0.5935637905573  0.2381412489700 1.0
C      1  0.6562199656369  0.3617861905412  0.7328140103978 1.0
C      1  0.3531050798937  0.6448360971371  0.5225104429535 1.0
C      1  0.6193867765984  0.5919123677530  0.8026531222762 1.0
C      1  0.6225765753943  0.2366068106675  0.6461206836423 1.0
C      1  0.6550566437837  0.7313009739681  0.3870234603188 1.0
C      1  0.3068436224923  0.7949430116470  0.5391792889600 1.0
C      1  0.4332428735498  0.7361710593106  0.6323901631472 1.0
C      1  0.3445387340087  0.3224525083873  0.7380240426972 1.0
C      1  0.6076737820159  0.3798010265507  0.5810051439210 1.0
C      1  0.5524612760769  0.2621521465819  0.2941872266535 1.0
C      1  0.3798046230768  0.6562665105692  0.4368146546108 1.0
C      1  0.1618919003349  0.5881678623813  0.2914548635660 1.0
C      1  0.3100684778064  0.2559772158248  0.5796405512057 1.0
C      1  0.6935788304823  0.2013523511919  0.5801286297352 1.0
C      1  0.6776943226252  0.2021673548490  0.4840192251837 1.0
C      1  0.5531763225008  0.6336360659546  0.1901170597977 1.0
C      1  0.7347758919864  0.2893123212465  0.4795209802620 1.0
C      1  0.7687179060758  0.3556359797936  0.4082435856315 1.0
C      1  0.4182723678406  0.8164507963927  0.4143223688510 1.0
C      1  0.5897271668684  0.1886969260744  0.4493278688437 1.0
C      1  0.6530302760643  0.6397493316054  0.6372376305165 1.0
C      1  0.1676753903377  0.5556658870051  0.5510611122952 1.0
C      1  0.4848797303580  0.7719518286753  0.3653391148164 1.0
C      1  0.8298009546499  0.6115234158325  0.5659190044511 1.0
C      1  0.5615986787354  0.6214190933534  0.6661963691871 1.0
C      1  0.2242629160288  0.3882936681273  0.5473231046038 1.0
C      1  0.7436398299588  0.2829924448338  0.5798624900072 1.0
C      1  0.4546704194904  0.4458835272786  0.7985082635712 1.0
C      1  0.5960318229927  0.5083422631295  0.4653611946910 1.0
C      1  0.3923096743898  0.4331469232729  0.1951722453221 1.0
C      1  0.3663571317705  0.5036524894087  0.2435735624668 1.0
C      1  0.5311197099145  0.8702649014295  0.5835431886234 1.0
C      1  0.2143463072271  0.7869066229778  0.5394293626772 1.0
C      1  0.2943416087066  0.2181721826537  0.3121290374797 1.0
C      1  0.3418530448620  0.7168472582466  0.5926757950387 1.0
C      1  0.6968097267695  0.7803027098606  0.4552981138049 1.0
C      1  0.7357091257779  0.6640661805651  0.6808917116996 1.0
C      1  0.7298165193099  0.5637469569580  0.6805215720870 1.0
C      1  0.5597438314566  0.2371728732757  0.7308248279229 1.0
C      1  0.6556598882694  0.4354010838459  0.5103307134907 1.0
C      1  0.3672974439549  0.3803898419138  0.4749935767655 1.0
C      1  0.2281223796270  0.6354626858638  0.6900138961459 1.0
C      1  0.2500563782529  0.5689298135507  0.7528741338900 1.0
C      1  0.1399385067461  0.5770475744917  0.3782943628085 1.0
C      1  0.3290324502201  0.2545390211369  0.6767471997097 1.0
C      1  0.5715652345955  0.6594189450197  0.2757268197318 1.0
C      1  0.1719985232402  0.7185712989252  0.5674591783108 1.0
C      1  0.7958090788752  0.4475233747189  0.4395749376222 1.0
C      1  0.5805512650631  0.5682906422583  0.1425326960895 1.0
C      1  0.5727321052874  0.5172947399149  0.3649710401097 1.0
C      1  0.7673384910836  0.4968358032053  0.2844450628751 1.0
C      1  0.5342195457100  0.2042278876617  0.3697658897365 1.0
C      1  0.4097781696112  0.5369930993220  0.7983260007912 1.0
C      1  0.3782002815000  0.5916950554257  0.3679977507049 1.0
C      1  0.5447864792088  0.4128573563971  0.7956873271897 1.0
C      1  0.2614273837098  0.3015685760230  0.3195632772504 1.0
C      1  0.2942898791266  0.3353828782120  0.5282829625207 1.0
C      1  0.6707312881935  0.3576228842289  0.4471835864392 1.0
C      1  0.3915353740455  0.4964673176684  0.3440455076492 1.0
END
