TITL C-26764-575-18 -4.748 3375.00 -825.50315582 0 0 100 () n - 1
REM
REM Run started: at 2020.12.25 15:13:51 in /gpfs/home/chem/mssmkc/CARBON/AIRSS/Generating-Clusters/Str-Search/Only-C1/C100-200
REM VASP from code version vasp.5.4.4.18Apr17-6-g9f103f2a35 (build Oct 11 2019 16:45:47) gamma-only
REM
REM
REM
REM
REM ./C.cell (efaf0b2bf1589a83377268d7ebe2c73f)
REM AIRSS Version 0.9.1 bugfix July 2018 build 013d7b7c2542+ Fri, 06 Jul 2018 19:26:36 +0100
REM compiler GCC version 6.3.0
REM options -cpp -iprefix /gpfs/warwick/csc/orac/software/Core/GCCcore/6.3.0/bin/../lib/gcc/x86_64-pc-linux-gnu/6.3.0/ -mtune=generic -march=x86-64 -g -O0
REM seed -2056045868 -1516662497 -1447773457 1546075961 -507393031 529451849 676379976 -1462818781 -649778081 -35372333 1887922556 1065345646
REM
REM C.POTCAR (d86ddea03c3ceb6dc662c8ad6801f873)
REM 
CELL 1.54180   15.00000   15.00000   15.00000   90.00000   90.00000   90.00000
LATT -1
SFAC C  
C      1  0.7432398804446  0.5253788799693  0.3426729009515 1.0
C      1  0.3449146334281  0.3298956755060  0.2800265393038 1.0
C      1  0.6756825479748  0.7211023356270  0.5958905515211 1.0
C      1  0.3593884810488  0.3113314119334  0.3724117185297 1.0
C      1  0.4952845359230  0.5225791185396  0.2523336234849 1.0
C      1  0.4686341758170  0.4698964031534  0.6896955129027 1.0
C      1  0.6539287734493  0.5087166318302  0.7485656575442 1.0
C      1  0.3390533380234  0.2951123583008  0.6400251440922 1.0
C      1  0.5475276659214  0.2195003340454  0.2598938850851 1.0
C      1  0.5197491188192  0.4081707539825  0.3788444393295 1.0
C      1  0.4989869218021  0.4513409602118  0.7842010185002 1.0
C      1  0.5162419093959  0.3066122274152  0.2492729961925 1.0
C      1  0.2349399702058  0.4038511620174  0.5993641934147 1.0
C      1  0.7807003388953  0.6127747876512  0.4766649788431 1.0
C      1  0.7805639748629  0.5916121833926  0.5713787067135 1.0
C      1  0.5966266769793  0.3591916163155  0.6965045129679 1.0
C      1  0.4852655522661  0.6880784624771  0.2696333837146 1.0
C      1  0.4797187754843  0.4311356335451  0.6107761818379 1.0
C      1  0.3269473900993  0.4335641327775  0.7351611905961 1.0
C      1  0.2855977399774  0.3280089643584  0.5696440966513 1.0
C      1  0.5058063712719  0.7463831686928  0.6204357679676 1.0
C      1  0.5563945356219  0.5433156695217  0.4627273312387 1.0
C      1  0.4824345042745  0.5734062946578  0.4134196939553 1.0
C      1  0.6364372851256  0.4417837226403  0.2700583227185 1.0
C      1  0.4342703843053  0.3569890117921  0.2321440836002 1.0
C      1  0.6761682799601  0.6725327215292  0.3555604792369 1.0
C      1  0.2872233771577  0.6362430615972  0.6577577486968 1.0
C      1  0.4523101737716  0.4429946216052  0.2120297432362 1.0
C      1  0.6243562286209  0.7914505696383  0.4426398079310 1.0
C      1  0.5931396072522  0.7269174589050  0.6546275133540 1.0
C      1  0.7714805151501  0.4906345740830  0.5708058868937 1.0
C      1  0.4727416018691  0.6159320973670  0.2322975791435 1.0
C      1  0.6131517538705  0.7462731468914  0.3586664269159 1.0
C      1  0.5451437197187  0.2123230514723  0.5140337702592 1.0
C      1  0.3768440937932  0.5349635229334  0.5435338296238 1.0
C      1  0.2411317790105  0.6279398981251  0.5034812816246 1.0
C      1  0.4443451369546  0.3059261735740  0.7326928377111 1.0
C      1  0.6928826559184  0.2512777545386  0.5499039002266 1.0
C      1  0.4147584713689  0.7225508737421  0.6411290095043 1.0
C      1  0.6642015835427  0.5942663802885  0.6917630280489 1.0
C      1  0.4284160155580  0.5971550535437  0.7510466048009 1.0
C      1  0.2262401979935  0.5189605457378  0.3071293027088 1.0
C      1  0.1927907940548  0.5984257470591  0.3441717941340 1.0
C      1  0.7968413506943  0.4592109467834  0.4800244173074 1.0
C      1  0.4506810164008  0.3363799118632  0.4172863751640 1.0
C      1  0.6375251137962  0.1977930491499  0.5191255893617 1.0
C      1  0.5199241244979  0.3588974759421  0.7561588958138 1.0
C      1  0.5372139182078  0.8214091419794  0.4645487987364 1.0
C      1  0.3509188494058  0.3434574734860  0.7249956237387 1.0
C      1  0.2781769266533  0.6887220267823  0.5764366398406 1.0
C      1  0.6837739911737  0.7432998605319  0.5017981475960 1.0
C      1  0.6212310269910  0.5555537690350  0.6038410861040 1.0
C      1  0.6225194658027  0.2241945123644  0.3071223873452 1.0
C      1  0.4195805075345  0.7367542573379  0.4809806952074 1.0
C      1  0.2814463284951  0.4793840325110  0.3779651496806 1.0
C      1  0.2394723307289  0.5530396637555  0.6440301016019 1.0
C      1  0.5716143794518  0.4487430451958  0.4538269163774 1.0
C      1  0.6517924965492  0.3024833842153  0.3425573746013 1.0
C      1  0.3714576302660  0.4656755893384  0.3838471047592 1.0
C      1  0.5248416401589  0.6070227090053  0.7644192720301 1.0
C      1  0.5533832222680  0.3604370597985  0.6014377076904 1.0
C      1  0.2017719235990  0.6430459069063  0.4142605382242 1.0
C      1  0.6737002888931  0.5879710838850  0.3113504074749 1.0
C      1  0.7337365393664  0.4143889458470  0.6261376359292 1.0
C      1  0.3568272975327  0.7374762428656  0.5635631047184 1.0
C      1  0.2647237598840  0.3689371304504  0.2522288434886 1.0
C      1  0.5795928189360  0.3671518061614  0.3024999811353 1.0
C      1  0.3034533812320  0.3479563355103  0.4668833423035 1.0
C      1  0.7636103537517  0.3745707415789  0.4608728525232 1.0
C      1  0.4844851551277  0.2667192662326  0.4788750865135 1.0
C      1  0.3909002358008  0.4038123053137  0.4631017194212 1.0
C      1  0.4193122022839  0.4564971665814  0.5427336408623 1.0
C      1  0.5003261711046  0.2759026855605  0.5775990898218 1.0
C      1  0.5671485697631  0.5213851104563  0.7844131927943 1.0
C      1  0.5186797172729  0.7509265511802  0.3305847663667 1.0
C      1  0.6700600613341  0.4213313072227  0.7032851110512 1.0
C      1  0.2037299391493  0.4598476714878  0.5260629986932 1.0
C      1  0.4701106450908  0.7942247742966  0.4001163948596 1.0
C      1  0.7272912928734  0.6804341480968  0.4419778925249 1.0
C      1  0.2596148388090  0.4618304616719  0.6727093744427 1.0
C      1  0.4190469302654  0.6369583920267  0.4505449297950 1.0
C      1  0.2266248954449  0.4451436520140  0.2498824994134 1.0
C      1  0.4975998299942  0.7739115428804  0.5313840655570 1.0
C      1  0.7272815374586  0.6434016458337  0.6284667759212 1.0
C      1  0.3396082823429  0.5911566152234  0.4849302564075 1.0
C      1  0.7195711285980  0.4374685906991  0.3184817771547 1.0
C      1  0.6039702445420  0.5272827383862  0.2649397634806 1.0
C      1  0.7147988752900  0.3443756685101  0.5437760807360 1.0
C      1  0.2018675422104  0.5511734000740  0.5564971844342 1.0
C      1  0.6654464513573  0.4765825820556  0.5756364651358 1.0
C      1  0.3737777987174  0.6555184368446  0.6988245485088 1.0
C      1  0.5752728068520  0.5956825918248  0.5394476323600 1.0
C      1  0.7921542934238  0.5348720932778  0.4223832788900 1.0
C      1  0.4601068044412  0.4951079873667  0.3516599134903 1.0
C      1  0.4061106432631  0.4960831606687  0.7592275702813 1.0
C      1  0.2413043072782  0.4257951930558  0.4487382096163 1.0
C      1  0.7256094704625  0.3600128748060  0.3735701514657 1.0
C      1  0.5931472562276  0.6579075670062  0.7185168449312 1.0
C      1  0.6170716463639  0.4035763328509  0.5303665987595 1.0
C      1  0.4324984776032  0.2646221312295  0.6480501218495 1.0
END
