TITL C-26764-575-16 -8.245 3375.00 -1431.23260133 0 0 173 () n - 1
REM
REM Run started: at 2020.12.25 14:11:11 in /gpfs/home/chem/mssmkc/CARBON/AIRSS/Generating-Clusters/Str-Search/Only-C1/C100-200
REM VASP from code version vasp.5.4.4.18Apr17-6-g9f103f2a35 (build Oct 11 2019 16:45:47) gamma-only
REM
REM
REM
REM
REM ./C.cell (efaf0b2bf1589a83377268d7ebe2c73f)
REM AIRSS Version 0.9.1 bugfix July 2018 build 013d7b7c2542+ Fri, 06 Jul 2018 19:26:36 +0100
REM compiler GCC version 6.3.0
REM options -cpp -iprefix /gpfs/warwick/csc/orac/software/Core/GCCcore/6.3.0/bin/../lib/gcc/x86_64-pc-linux-gnu/6.3.0/ -mtune=generic -march=x86-64 -g -O0
REM seed -1059563458 -601165012 -1885613099 -951092434 1821345841 -1860663733 1874398537 -42864788 -1396226639 2031649976 659360503 -1338001794
REM
REM C.POTCAR (d86ddea03c3ceb6dc662c8ad6801f873)
REM 
CELL 1.54180   15.00000   15.00000   15.00000   90.00000   90.00000   90.00000
LATT -1
SFAC C  
C      1  0.1947339269343  0.8025462297568  0.5235599865806 1.0
C      1  0.8259160581012  0.6376097051241  0.3795048185105 1.0
C      1  0.5504728082056  0.7463497041968  0.7480657322864 1.0
C      1  0.8302861466450  0.4779546870069  0.5822023491617 1.0
C      1  0.1651591236105  0.3170027037415  0.6978777237096 1.0
C      1  0.1185439399431  0.5100517370289  0.6853876075139 1.0
C      1  0.5070911839132  0.1782752075029  0.2614870718868 1.0
C      1  0.4996083177355  0.1431539645925  0.4198539682333 1.0
C      1  0.5337168580196  0.1293961745224  0.5933453276559 1.0
C      1  0.6821416497892  0.6608446392234  0.7847558567369 1.0
C      1  0.6433668908393  0.4955732463366  0.6258064054844 1.0
C      1  0.4614080075592  0.4434736853006  0.4008777234211 1.0
C      1  0.1164289424523  0.3518970148527  0.6288319532215 1.0
C      1  0.4587556978042  0.5411725077538  0.4092680621421 1.0
C      1  0.4656892973439  0.4806427000299  0.8693103826566 1.0
C      1  0.8510435175644  0.5421013752986  0.6569623504381 1.0
C      1  0.6152142653369  0.3632819925158  0.4178677906990 1.0
C      1  0.1839978781703  0.7835938060922  0.4430136769094 1.0
C      1  0.2496417567234  0.2286103585485  0.4365803516746 1.0
C      1  0.5901337756327  0.5714816659190  0.6110356416626 1.0
C      1  0.3353637127677  0.1673384501071  0.2679325625770 1.0
C      1  0.6471289811035  0.3797769875002  0.3180904100303 1.0
C      1  0.4440008351243  0.7818043724404  0.2348449919235 1.0
C      1  0.0924235244624  0.5212571024853  0.4649263727575 1.0
C      1  0.5646006834696  0.7003657975961  0.4917222177090 1.0
C      1  0.6219157716046  0.8687090256360  0.5033739416172 1.0
C      1  0.4481800960115  0.7341287820914  0.1543486030983 1.0
C      1  0.5307160471233  0.5843644423052  0.3693246499174 1.0
C      1  0.3879033042430  0.3617688090429  0.7968156273392 1.0
C      1  0.5116224693183  0.1374045165592  0.6835191562644 1.0
C      1  0.3997766327183  0.6096999166243  0.4263890750273 1.0
C      1  0.6536002851559  0.5281019748870  0.8871050550483 1.0
C      1  0.4196652744911  0.3532756467801  0.1078904252800 1.0
C      1  0.5756137732131  0.4957686865441  0.9263315277658 1.0
C      1  0.3327742641137  0.7171279495514  0.5143616112718 1.0
C      1  0.8265423137973  0.3916518534650  0.7077817361256 1.0
C      1  0.6233364917655  0.2739709750836  0.1911478666223 1.0
C      1  0.4879197725800  0.3634933190604  0.5392022317748 1.0
C      1  0.3972351403341  0.3720086702089  0.2702553910586 1.0
C      1  0.8270214248503  0.5987976886003  0.2863772326919 1.0
C      1  0.5267423688378  0.4159790736765  0.9062092286525 1.0
C      1  0.4315788318481  0.6609594659285  0.1165582203329 1.0
C      1  0.2660433421357  0.5279472393318  0.2011049289458 1.0
C      1  0.4520008093801  0.6227108785946  0.7010045878902 1.0
C      1  0.7181143768988  0.4713144178730  0.8440635346293 1.0
C      1  0.7462981319501  0.4802251507462  0.1938995190052 1.0
C      1  0.0823555029396  0.4448111250676  0.6275671489941 1.0
C      1  0.5861518771234  0.4278128115339  0.6680148347525 1.0
C      1  0.7804830096069  0.5237219569793  0.7942829139453 1.0
C      1  0.5818521958762  0.4650422893139  0.1603284228904 1.0
C      1  0.3824280707222  0.7347817959027  0.3020799376846 1.0
C      1  0.3955390030086  0.3584291755414  0.5222772288309 1.0
C      1  0.4140337350516  0.1525943770291  0.4575263644176 1.0
C      1  0.7613195872591  0.6133726200782  0.7603217808868 1.0
C      1  0.6262680151601  0.6505831048247  0.5558456628966 1.0
C      1  0.4885258306074  0.8482666191709  0.2792411989515 1.0
C      1  0.5071128729975  0.5614798744585  0.6611964325900 1.0
C      1  0.7977035483074  0.4042766249146  0.1544574242860 1.0
C      1  0.5162373206400  0.3871561507240  0.6277012322396 1.0
C      1  0.7689720799755  0.5804660373128  0.2181477241957 1.0
C      1  0.3446973253360  0.8612389875948  0.5815132751200 1.0
C      1  0.6020817775524  0.1795018280762  0.5625390676734 1.0
C      1  0.3767718700651  0.4136095101022  0.4462827245526 1.0
C      1  0.6060303740970  0.7118738951190  0.3232517287917 1.0
C      1  0.7995494550193  0.4415453678832  0.3409955694482 1.0
C      1  0.3562423956712  0.7449759899301  0.7133708665586 1.0
C      1  0.8574016832491  0.5175929056498  0.3318720782344 1.0
C      1  0.3688027892233  0.5945902235023  0.7364713006521 1.0
C      1  0.4578574476226  0.2991804999786  0.8185235712213 1.0
C      1  0.5589133687610  0.1933799886177  0.7470268193621 1.0
C      1  0.3054654231068  0.6619966196412  0.7284486152064 1.0
C      1  0.6287870846939  0.3154235083178  0.8263902128837 1.0
C      1  0.3086037486850  0.3344681547087  0.5641727993131 1.0
C      1  0.2798068689984  0.7841122157660  0.5684266704619 1.0
C      1  0.6389352612626  0.2247170931575  0.3625205013099 1.0
C      1  0.7720402639351  0.3250006115842  0.1666626186466 1.0
C      1  0.7221450647285  0.7766394746560  0.4185212643487 1.0
C      1  0.7054968188857  0.6262970343966  0.4883125326130 1.0
C      1  0.6362618579581  0.2471506894580  0.7585088284850 1.0
C      1  0.3248372981191  0.8078590442124  0.6543113281005 1.0
C      1  0.2858814680354  0.2541511931683  0.5215416982061 1.0
C      1  0.3394443092435  0.1227165567004  0.7192665508249 1.0
C      1  0.7612328231730  0.3390000014637  0.7514487504163 1.0
C      1  0.7191394089871  0.2596709615211  0.2018180385710 1.0
C      1  0.5384383477425  0.6774068734879  0.3943703138481 1.0
C      1  0.7880048603848  0.3209660098076  0.5649022561441 1.0
C      1  0.5394652934106  0.6384756991533  0.8693941526826 1.0
C      1  0.6361566401171  0.7185833252921  0.7209576950829 1.0
C      1  0.3969799514392  0.9020846720198  0.5177003474062 1.0
C      1  0.8080164029161  0.6270935662011  0.6768827154538 1.0
C      1  0.6628394451348  0.2371503560645  0.5401310405319 1.0
C      1  0.8377082038485  0.4836351171699  0.7318548154356 1.0
C      1  0.4728452891718  0.4227852837947  0.2963503143131 1.0
C      1  0.4299717169698  0.4528901699860  0.7794972967181 1.0
C      1  0.1810338715984  0.4245187280265  0.3012567296546 1.0
C      1  0.4948936509919  0.3083125478124  0.1386147135239 1.0
C      1  0.5782406753827  0.8443354606040  0.4105318407335 1.0
C      1  0.7398209284745  0.7747832554596  0.5830948593253 1.0
C      1  0.5639265368713  0.9365341539696  0.5442774547129 1.0
C      1  0.7260306157925  0.4367336558987  0.2866229657564 1.0
C      1  0.5582387020261  0.1754576293713  0.3489308741164 1.0
C      1  0.1256529013103  0.5659954780667  0.4019993001122 1.0
C      1  0.5055381973475  0.7111763947420  0.8202704764792 1.0
C      1  0.7721974391074  0.7005135669998  0.6242061288182 1.0
C      1  0.3289644539058  0.6273581471940  0.4878878441178 1.0
C      1  0.7383941054390  0.5416900554405  0.5025048272239 1.0
C      1  0.2442069864330  0.4099319516814  0.5408932591977 1.0
C      1  0.2340793250497  0.7600213983071  0.3693682890653 1.0
C      1  0.4808209210754  0.9380560740963  0.5399173426311 1.0
C      1  0.8014855901297  0.4102366972556  0.4312983677737 1.0
C      1  0.3890342775317  0.7595604688554  0.4474072238832 1.0
C      1  0.7146578725402  0.8233993368658  0.5028316351147 1.0
C      1  0.7145845292075  0.2683902462565  0.7040621973240 1.0
C      1  0.5284956704382  0.4932236896921  0.2388669984604 1.0
C      1  0.8712953431711  0.5575634978916  0.4160950999961 1.0
C      1  0.5638782556307  0.3965353941577  0.2662696380885 1.0
C      1  0.2059155081775  0.5115219976031  0.2725510850357 1.0
C      1  0.5586868252006  0.5703822387510  0.2857237560517 1.0
C      1  0.3520003033134  0.5090833754889  0.7626847644108 1.0
C      1  0.5671668625479  0.7886227581959  0.4937238862775 1.0
C      1  0.4880927372670  0.1228892859373  0.5106804169526 1.0
C      1  0.6732967160932  0.2836521941950  0.4496750402725 1.0
C      1  0.8370158702791  0.3837364530074  0.6145830851126 1.0
C      1  0.4893217384799  0.8668739979785  0.3681456268097 1.0
C      1  0.3995967031839  0.8563110217072  0.4233783821363 1.0
C      1  0.6600952511590  0.5176421536069  0.1555607806080 1.0
C      1  0.7283271861511  0.2631041170524  0.6092764634002 1.0
C      1  0.2183183115672  0.6210173119066  0.7207333769826 1.0
C      1  0.3714739281740  0.5911908062837  0.1305844474780 1.0
C      1  0.4552137601991  0.7181777781619  0.7313381848468 1.0
C      1  0.2711956120368  0.4672819442932  0.7733024755211 1.0
C      1  0.2324001262601  0.6750501332901  0.3242005169779 1.0
C      1  0.2391636291472  0.5163560259332  0.5805787012337 1.0
C      1  0.1809163305089  0.3504409962573  0.3384369009184 1.0
C      1  0.7538559672131  0.6819243630391  0.4255885511691 1.0
C      1  0.7254575193129  0.4931856160328  0.5795334308187 1.0
C      1  0.3341620013406  0.5008037229055  0.1268215543092 1.0
C      1  0.6682177400503  0.2782619181017  0.2851316509331 1.0
C      1  0.2238327270473  0.3138931474437  0.7569578984826 1.0
C      1  0.3739907005656  0.4229122339420  0.0961605916268 1.0
C      1  0.6471186102730  0.7903657113707  0.3615998408435 1.0
C      1  0.4180381417302  0.1552452993010  0.2622563747443 1.0
C      1  0.3283677381539  0.1869304937926  0.4692276386670 1.0
C      1  0.1875113338415  0.5658930719398  0.6473245241782 1.0
C      1  0.6332885053810  0.6187598029966  0.8565666470854 1.0
C      1  0.3289907808433  0.7976151438296  0.3657637140158 1.0
C      1  0.5723089327900  0.3634788328784  0.1685891583032 1.0
C      1  0.0841260651201  0.4568228837330  0.5293234941151 1.0
C      1  0.4960266028240  0.4640442165339  0.6938308524162 1.0
C      1  0.1808793165081  0.5905974645144  0.3309259505356 1.0
C      1  0.1946829315021  0.5238827783468  0.7482856285253 1.0
C      1  0.5010180459558  0.5596756465343  0.9089976742176 1.0
C      1  0.1473252024258  0.3821549719242  0.5412619202754 1.0
C      1  0.7070339963080  0.3759607751512  0.8223705204499 1.0
C      1  0.5348321147349  0.3902635907987  0.4533286714703 1.0
C      1  0.3127148652586  0.6112516383949  0.2037052065702 1.0
C      1  0.6780189523708  0.6036617565024  0.1967091988069 1.0
C      1  0.5413680589783  0.3383291466111  0.8578627040938 1.0
C      1  0.4348728587783  0.6948848187121  0.3891432358816 1.0
C      1  0.4726336438769  0.2145999580525  0.7849695851134 1.0
C      1  0.2991811001030  0.4588925383788  0.4690546190822 1.0
C      1  0.7662413421538  0.3345048145281  0.4708188619240 1.0
C      1  0.3112579275431  0.6728302400717  0.2695807123136 1.0
C      1  0.8280377025698  0.4970500909739  0.4823599312105 1.0
C      1  0.5347214362781  0.2321812249711  0.1863568737048 1.0
C      1  0.2848659978684  0.2439702285377  0.2856895044930 1.0
C      1  0.2203134004419  0.2656267741857  0.3548667815460 1.0
C      1  0.6717325155162  0.7157759978115  0.6283035309107 1.0
C      1  0.2933882317872  0.3706112506420  0.7848344485955 1.0
C      1  0.2847237784085  0.5467243160380  0.5088387355754 1.0
C      1  0.3345053737122  0.3201209026278  0.2638746151332 1.0
C      1  0.4230597241351  0.1490637697208  0.7287130436595 1.0
C      1  0.6163256786553  0.6440643407380  0.2587036149480 1.0
END
