TITL C-26260-8727-4 -11.559 3375.00 0 0 0 382 (C1) n - 1
REM
REM Run started: at 2020.03.11 03:56:56 in /rds/user/bk393/hpc-work/AIRSS.pl-DENE/CARBON/New-Try
REM VASP from code version vasp.5.4.4.18Apr17-6-g9f103f2a35 (build Oct 11 2019 16:45:47) gamma-only
REM
REM
REM
REM
REM ./C.cell (67df479faaa1345d4e7bfe0367c0c0c2)
REM AIRSS Version 0.9.1 bugfix July 2018 build 013d7b7c2542+ Fri, 06 Jul 2018 19:26:36 +0100
REM compiler GCC version 4.8.5 20150623 (Red Hat 4.8.5-39)
REM options -cpp -mtune=generic -march=x86-64 -g -O0
REM seed 1195758194 -1059146032 -1040340065 2020883729 -1775429074 174557026 1391286221 -568001780 -1107928759 1683906798 -1504368472 -1352713532
REM
REM C.POTCAR (d86ddea03c3ceb6dc662c8ad6801f873)
REM 
CELL 1.54180   15.00000   15.00000   15.00000   90.00000   90.00000   90.00000
LATT -1
SFAC C  
C      1  0.0314423558109  0.3637037555019  0.6364121510827 1.0
C      1  0.5945219914844  0.9568651062041  0.3304340343729 1.0
C      1  0.0724425257098  0.6746960195094  0.6662778343186 1.0
C      1  0.1639649409765  0.1401280429131  0.3041569800909 1.0
C      1  0.6592121392820  0.3051642971732  0.5394136628506 1.0
C      1  0.8177227455727  0.5329140112993  0.2911745370822 1.0
C      1  0.4100548223169  0.1357493237019  0.8637537868361 1.0
C      1  0.4706659485218  0.3663502967672  0.3064535122378 1.0
C      1  0.9049972469662  0.4158720192994  0.2090647421494 1.0
C      1  0.7130596557275  0.7664467286512  0.3322620546403 1.0
C      1  0.1582186775664  0.5672041215705  0.8498750826236 1.0
C      1  0.4582906226358  0.2673477073639  0.2976944611722 1.0
C      1  0.6921417869684  0.3323596671282  0.8380476612848 1.0
C      1  0.6735025524226  0.1523099923308  0.4891821561387 1.0
C      1  0.9049746632758  0.7020851861503  0.4875357268996 1.0
C      1  0.3163305673496  0.3257504293893  0.2461943538853 1.0
C      1  0.0893880243829  0.7092911364459  0.4243112627934 1.0
C      1  0.7784435876788  0.3483401013229  0.8947084846470 1.0
C      1  0.5494491679886  0.8735306810932  0.5987963833707 1.0
C      1  0.9690405654731  0.5700056130872  0.3593510826906 1.0
C      1  0.9310616384014  0.4353283311095  0.6513994926186 1.0
C      1  0.8183634606106  0.0046271059527  0.3751236565761 1.0
C      1  0.2581877887946  0.6550396824355  0.0780101615583 1.0
C      1  0.2615928481432  0.4040277910957  0.1998000375225 1.0
C      1  0.5118078161924  0.3648096156491  0.8441659747801 1.0
C      1  0.5119900804776  0.0676778428088  0.7448550161552 1.0
C      1  0.3926725548064  0.5724006619112  0.4281318981375 1.0
C      1  0.3072134787491  0.2084113216457  0.6103189475664 1.0
C      1  0.9191011946551  0.3319553969328  0.3592517200250 1.0
C      1  0.2281092504633  0.0718704454021  0.3085341390664 1.0
C      1  0.7842095015136  0.2853647704449  0.6469344346677 1.0
C      1  0.2377977729619  0.2727557006031  0.2735090693093 1.0
C      1  0.5231825316964  0.3497186351817  0.6506073159256 1.0
C      1  0.4836428948070  0.8469567403114  0.9015647876505 1.0
C      1  0.5117935880688  0.3815100605960  0.0259117146675 1.0
C      1  0.6110311424472  0.0244582334574  0.6183751645440 1.0
C      1  0.6571200968889  0.6807262191810  0.0678932625912 1.0
C      1  0.8373968548957  0.2720132843000  0.3450561804654 1.0
C      1  0.6749390633023  0.2495205687785  0.4484540693538 1.0
C      1  0.0831555889361  0.3549057965584  0.7204105758138 1.0
C      1  0.4667108132460  0.6613233077395  0.1311350320205 1.0
C      1  0.5253292277865  0.1699610856941  0.5988045725763 1.0
C      1  0.7399566322062  0.2901036882173  0.0811008858307 1.0
C      1  0.5554484218335  0.6371100534100  0.8068036586302 1.0
C      1  0.3243743231082  0.8217907092138  0.4672365879323 1.0
C      1  0.3022913958832  0.6306889479413  0.7677503112414 1.0
C      1  0.3922138891831  0.2528689363459  0.7186162183965 1.0
C      1  0.6286434635277  0.2813046547390  0.9658435966527 1.0
C      1  0.3789042072110  0.6640181793578  0.9390264765737 1.0
C      1  0.6190478894474  0.8198577894609  0.2247091737510 1.0
C      1  0.4619857552726  0.1396480702725  0.7821509118124 1.0
C      1  0.7824773898020  0.5783718853090  0.4342621638903 1.0
C      1  0.7346180096740  0.6144963332901  0.8478970967682 1.0
C      1  0.8583914425588  0.3750509371773  0.8390311844840 1.0
C      1  0.1760580052061  0.2099528761914  0.2231338398484 1.0
C      1  0.1627349560663  0.1881555289390  0.6597461062290 1.0
C      1  0.8919759426964  0.7006842349809  0.7176135491604 1.0
C      1  0.6123730536693  0.5417420219025  0.5234605031375 1.0
C      1  0.9030256257150  0.3069678595805  0.5286363130951 1.0
C      1  0.6217399171583  0.4506819392106  0.5181719458576 1.0
C      1  0.2032735204021  0.8681784368130  0.6587012812001 1.0
C      1  0.2884422093550  0.0747399363282  0.2334090321659 1.0
C      1  0.4742322099623  0.7834218298339  0.4267320463927 1.0
C      1  0.8643524892885  0.2852461840487  0.7955617942057 1.0
C      1  0.4469755084361  0.6313427488331  0.6824328870582 1.0
C      1  0.2354861852650  0.2508333142195  0.3697406410177 1.0
C      1  0.5254563751452  0.8094833395018  0.7416328376661 1.0
C      1  0.5199607228656  0.7509983794201  0.9031459333711 1.0
C      1  0.6768382504347  0.3668346072119  0.9271520589107 1.0
C      1  0.4847439940387  0.1477637056513  0.9243108275864 1.0
C      1  0.9456391264482  0.5773723786970  0.2088881512889 1.0
C      1  0.5917949985617  0.3697884008356  0.5129954431200 1.0
C      1  0.5301531345252  0.3486941172670  0.4418289500840 1.0
C      1  0.1557558787230  0.6830214280183  0.7294301679361 1.0
C      1  0.3851438761184  0.2863371673730  0.9737781885950 1.0
C      1  0.4112087532201  0.2881778426028  0.2136168672818 1.0
C      1  0.1202856926674  0.7252347435742  0.8713889601440 1.0
C      1  0.3584893816055  0.2803053689561  0.0716370583438 1.0
C      1  0.6415246651185  0.2029758247893  0.9152955379357 1.0
C      1  0.1083971085508  0.2884220776365  0.2300975277439 1.0
C      1  0.2286479605013  0.5421727098517  0.4523643523901 1.0
C      1  0.3208219516076  0.2009324309053  0.4049765447609 1.0
C      1  0.3173141287153  0.0621658689875  0.7018270029425 1.0
C      1  0.4541695382562  0.0652607034771  0.3779954406669 1.0
C      1  0.6105407546073  0.6189941953766  0.2500641057595 1.0
C      1  0.5878827483278  0.7475338351897  0.0755897777922 1.0
C      1  0.6373146822788  0.2541155348390  0.6264377641193 1.0
C      1  0.0277861419221  0.4401480653089  0.2845119098865 1.0
C      1  0.7341128694260  0.7112666711012  0.5241722282675 1.0
C      1  0.6683477309751  0.6618328678419  0.9127667709100 1.0
C      1  0.7110353370965  0.6207196483535  0.7475775655386 1.0
C      1  0.9035347949672  0.6439129672886  0.7896833368254 1.0
C      1  0.1241123855565  0.8293929493547  0.7194202808914 1.0
C      1  0.0782089830624  0.3841915061663  0.3584044233846 1.0
C      1  0.7658078744516  0.3034183436091  0.4112241522904 1.0
C      1  0.4722858601223  0.5474176544175  0.6330627558125 1.0
C      1  0.3904865053313  0.5275447181784  0.8497747292107 1.0
C      1  0.4829707792602  0.7231619875168  0.3391572532067 1.0
C      1  0.3318126729603  0.9195949277057  0.2227659983347 1.0
C      1  0.0032939028921  0.3948641170320  0.1946314375093 1.0
C      1  0.4465325129211  0.0080321268556  0.2019246434194 1.0
C      1  0.5405446722316  0.4513921660127  0.8688012722622 1.0
C      1  0.8188196091262  0.6197047139633  0.3453136237179 1.0
C      1  0.2602280384611  0.2753409239242  0.0909377729469 1.0
C      1  0.4491947767765  0.0044423312618  0.6295967060499 1.0
C      1  0.0371900569085  0.3164719629514  0.1692648373040 1.0
C      1  0.4341396549466  0.8790628206053  0.4021310236161 1.0
C      1  0.3067350561652  0.2608229453779  0.9174225343782 1.0
C      1  0.2263514419839  0.4985610826229  0.0659027703310 1.0
C      1  0.6138467951474  0.5152861958310  0.6896597497409 1.0
C      1  0.9145619399756  0.4785180558053  0.7353338806241 1.0
C      1  0.3562678476235  0.4607582093617  0.5385773378776 1.0
C      1  0.4387709051509  0.3700863178786  0.6290086675473 1.0
C      1  0.5973575782510  0.5304340618217  0.9855626062553 1.0
C      1  0.9052207053222  0.6661315798612  0.8906632454308 1.0
C      1  0.1911224197043  0.4007743978226  0.5588870143636 1.0
C      1  0.6999447576856  0.2061498112219  0.1098909828800 1.0
C      1  0.6430671412330  0.1116048243408  0.2695304661567 1.0
C      1  0.7077745360886  0.4888586784470  0.5337726841886 1.0
C      1  0.8487611571700  0.3365487546056  0.1830336031825 1.0
C      1  0.7037574737292  0.2318368672297  0.8464604395165 1.0
C      1  0.7585168779586  0.6963319627818  0.3618304183354 1.0
C      1  0.2468430591471  0.4159671332727  0.6409155083481 1.0
C      1  0.3606895394352  0.9936747220068  0.7662125947043 1.0
C      1  0.3295860123344  0.6179535159973  0.0204016405463 1.0
C      1  0.0011509468791  0.8249697324873  0.5996722724051 1.0
C      1  0.4609781667984  0.6493546372053  0.7841901366277 1.0
C      1  0.5359449953738  0.9099314032672  0.7592502357228 1.0
C      1  0.5428612571256  0.2527446584147  0.6663940639975 1.0
C      1  0.3073055368759  0.2140217326624  0.7662327997992 1.0
C      1  0.0145430756814  0.5678566210575  0.4542743960378 1.0
C      1  0.2319770107989  0.0017733143294  0.5394012373897 1.0
C      1  0.8369666195090  0.8751310458420  0.4756055090848 1.0
C      1  0.4592048732282  0.5302792998717  0.0356487067955 1.0
C      1  0.1348113591392  0.7859386786942  0.4778397182540 1.0
C      1  0.7334046302086  0.1074054407622  0.2447802669620 1.0
C      1  0.2424796549223  0.3440971013400  0.4007937068115 1.0
C      1  0.0517625033974  0.4763412205086  0.5030563757443 1.0
C      1  0.2115173064544  0.0917344013977  0.5187317525085 1.0
C      1  0.5446065665202  0.4047696397137  0.3543165414823 1.0
C      1  0.8777491892068  0.7942213812804  0.7039319018612 1.0
C      1  0.5971724479421  0.2737161054191  0.3839337176139 1.0
C      1  0.1444541039850  0.6377591391470  0.1805189099740 1.0
C      1  0.3468472915759  0.6469523937769  0.6734585153117 1.0
C      1  0.8285154511079  0.6338830800764  0.8667500191811 1.0
C      1  0.6225695651349  0.7533245934766  0.9137321779892 1.0
C      1  0.1556931392580  0.4923670236210  0.5228082416687 1.0
C      1  0.1094174041608  0.6360775462901  0.5735701063592 1.0
C      1  0.6200468963174  0.5768597204834  0.7710152466754 1.0
C      1  0.6160095526068  0.0808510591768  0.4437753807700 1.0
C      1  0.8934875509874  0.4950073373017  0.3572205790957 1.0
C      1  0.5790613170099  0.6582459144285  0.5885920494894 1.0
C      1  0.2422678106766  0.8810384735953  0.2383736511304 1.0
C      1  0.5241025665319  0.0739148632661  0.6416116420858 1.0
C      1  0.0824545127777  0.3028255228857  0.5001485287482 1.0
C      1  0.4052511249483  0.5860837355754  0.0964936248604 1.0
C      1  0.4848283143996  0.5929768659387  0.4634001561596 1.0
C      1  0.7558712777614  0.5221490625297  0.6107822138909 1.0
C      1  0.4295389470592  0.9172798326510  0.1830681888352 1.0
C      1  0.8322921526184  0.6660181678709  0.6378876761956 1.0
C      1  0.4822292846774  0.2343296176635  0.7595799954399 1.0
C      1  0.2779440720624  0.7125135068614  0.1588565230374 1.0
C      1  0.8601376457105  0.5579938733021  0.5044207561824 1.0
C      1  0.8602582194707  0.9114553411743  0.3304874252468 1.0
C      1  0.5243316664234  0.6057599419440  0.1953616927277 1.0
C      1  0.8380742380148  0.1967109679269  0.6292545457950 1.0
C      1  0.5123245985520  0.0653050098727  0.4482984538187 1.0
C      1  0.5263220410138  0.9769552545970  0.4850359041839 1.0
C      1  0.4779112245651  0.5388644983512  0.2344352879014 1.0
C      1  0.6987331269171  0.4649947684915  0.1225861089341 1.0
C      1  0.7299321697659  0.4819084925141  0.2997117277717 1.0
C      1  0.0773977519041  0.6400161184420  0.4807344796499 1.0
C      1  0.4105962158982  0.4708600447673  0.9689280923727 1.0
C      1  0.2437800701258  0.3397951525372  0.6883009433871 1.0
C      1  0.1633638977216  0.1741085884731  0.5544258404746 1.0
C      1  0.3221514906819  0.4894699206860  0.9211865544643 1.0
C      1  0.8656000462075  0.4658192294880  0.4521030863376 1.0
C      1  0.3762541277745  0.6263390252512  0.8374420908506 1.0
C      1  0.1431003305165  0.5500222597478  0.6049361555020 1.0
C      1  0.5183149197313  0.7302902743312  0.8031091178076 1.0
C      1  0.2842793155506  0.4146385551599  0.8728762937683 1.0
C      1  0.7346031262713  0.8628388253449  0.7568767038565 1.0
C      1  0.6741578904990  0.0979062013432  0.6471852950420 1.0
C      1  0.0238722530898  0.5479320463743  0.2744559719187 1.0
C      1  0.9305410605816  0.4170377012597  0.3075017447814 1.0
C      1  0.9064113582707  0.1894365910736  0.3540822532188 1.0
C      1  0.6420674761735  0.3701886291756  0.2424383945099 1.0
C      1  0.1367382263805  0.4687697917448  0.8315806981624 1.0
C      1  0.8087283616839  0.3197745779830  0.4997414574162 1.0
C      1  0.7764412225706  0.7906170332620  0.7036813545667 1.0
C      1  0.4139859665188  0.4683068389117  0.6206773428298 1.0
C      1  0.3031356527093  0.4971449975793  0.2238109522392 1.0
C      1  0.3912206832724  0.5207070097394  0.1795292328614 1.0
C      1  0.7262385239964  0.8984109527231  0.9323204371020 1.0
C      1  0.6828791740979  0.3674413339585  0.1015501712436 1.0
C      1  0.4956697096749  0.7167259782656  0.0487448063735 1.0
C      1  0.7694178019449  0.1185490371944  0.6144859857725 1.0
C      1  0.6433342132446  0.0455423533655  0.3464374061569 1.0
C      1  0.4208193383265  0.7480766468480  0.1620077165944 1.0
C      1  0.8863325649130  0.2052907419694  0.5405735477146 1.0
C      1  0.5714611069051  0.6299525322700  0.4903892171958 1.0
C      1  0.5416016624044  0.2128385804755  0.3106270197837 1.0
C      1  0.4137034523020  0.3822301667478  0.0015568963091 1.0
C      1  0.1152011937158  0.3334993378929  0.5868037482147 1.0
C      1  0.3878671913536  0.6861125735530  0.3100673830104 1.0
C      1  0.7160509062577  0.6355097733813  0.1278773349671 1.0
C      1  0.3523802365875  0.3711572492057  0.5108422681511 1.0
C      1  0.1859161806418  0.3953062115665  0.8740204159232 1.0
C      1  0.5711536357541  0.8297036677342  0.4408995765308 1.0
C      1  0.6024161558006  0.9331946795292  0.6694268293605 1.0
C      1  0.2125712583913  0.6216407465368  0.6040842730586 1.0
C      1  0.4805524981535  0.5349346104961  0.3979553926985 1.0
C      1  0.3985910139552  0.8777475198127  0.8772115238278 1.0
C      1  0.6958387374045  0.2020916102850  0.7593279177062 1.0
C      1  0.5249231070653  0.7938070300399  0.6548872925670 1.0
C      1  0.4024530065535  0.7604169505819  0.4895026324131 1.0
C      1  0.7579158788245  0.1346610283337  0.1433822794062 1.0
C      1  0.5741794155216  0.6706684646687  0.3261904318408 1.0
C      1  0.2868192694980  0.9978357981722  0.3755484081695 1.0
C      1  0.2574904955018  0.3963369348248  0.0994874837406 1.0
C      1  0.5712498359123  0.8144748655204  0.1390165781175 1.0
C      1  0.7730783033347  0.9446493467035  0.4591050179285 1.0
C      1  0.4683550598334  0.9350195847143  0.5567652087136 1.0
C      1  0.6849936658994  0.9352364876011  0.4954161705068 1.0
C      1  0.7027411220246  0.2778721598609  0.6968575546676 1.0
C      1  0.9479501453055  0.5703826008961  0.7436093968033 1.0
C      1  0.5340437345164  0.5009121171463  0.3214084067530 1.0
C      1  0.7346363098532  0.4625246940890  0.7651553917022 1.0
C      1  0.5231677027982  0.2362668710695  0.0909318534711 1.0
C      1  0.3147092899633  0.4840078052514  0.6278653311784 1.0
C      1  0.0380579086811  0.3862248415482  0.4530234944549 1.0
C      1  0.9296793587258  0.3364056620810  0.6284658653365 1.0
C      1  0.6048927919836  0.2254256364137  0.1488530490684 1.0
C      1  0.7063821226067  0.7657385572609  0.2322047100693 1.0
C      1  0.3436634853372  0.7401263824955  0.6355169193725 1.0
C      1  0.4518662278787  0.3765665703127  0.2114337671867 1.0
C      1  0.4940498258020  0.2808655675829  0.8482778922843 1.0
C      1  0.5748513024224  0.1647872401133  0.2255509615411 1.0
C      1  0.9373332455396  0.6143109503603  0.4973891928565 1.0
C      1  0.5694286714624  0.5590860701357  0.6141440032430 1.0
C      1  0.6318491278243  0.5271788908825  0.2847990334998 1.0
C      1  0.4111609896516  0.4290744462614  0.1538108097098 1.0
C      1  0.4265702500185  0.3355512361371  0.4544713363868 1.0
C      1  0.4081846584357  0.2038446662998  0.3581671261014 1.0
C      1  0.2386363399109  0.3297338523805  0.9051158950491 1.0
C      1  0.1754362493662  0.7345767392097  0.1653308243412 1.0
C      1  0.8764669616074  0.5151239276284  0.2065640870828 1.0
C      1  0.2369332636575  0.2035589184102  0.1431792475652 1.0
C      1  0.1982467234242  0.5839823042655  0.1159055572592 1.0
C      1  0.3609467509476  0.0148291220301  0.2485705788578 1.0
C      1  0.8344879057791  0.8323720846738  0.5644528639000 1.0
C      1  0.1812951507875  0.8078063415676  0.2319702703988 1.0
C      1  0.6765579827145  0.3717327460660  0.7489231281323 1.0
C      1  0.6194980525186  0.0044095455621  0.5132925931697 1.0
C      1  0.2523766149727  0.6392045294355  0.4001039394254 1.0
C      1  0.2298278897391  0.7498006160805  0.0831594367338 1.0
C      1  0.2608162480598  0.1623645122329  0.6926253685489 1.0
C      1  0.4068888943595  0.4540574361202  0.7829869401410 1.0
C      1  0.9359545197881  0.3678749303493  0.4537682287153 1.0
C      1  0.2997562407152  0.9751449169687  0.4737274254029 1.0
C      1  0.3680153831692  0.0598347178974  0.6247936432686 1.0
C      1  0.3448392465254  0.8444224405202  0.3666908002547 1.0
C      1  0.1647374237844  0.7595947637257  0.3099938862022 1.0
C      1  0.1857111245708  0.3612718115739  0.2564042307866 1.0
C      1  0.3508101601022  0.9355007451302  0.8379407060610 1.0
C      1  0.9112008203901  0.8377649640981  0.6284734018026 1.0
C      1  0.4965807344689  0.7052742618033  0.6231591337962 1.0
C      1  0.7657724463487  0.1157420169903  0.5227144422078 1.0
C      1  0.5779056342744  0.1345103949527  0.8894184766149 1.0
C      1  0.2014087818769  0.9429509624695  0.6100796138878 1.0
C      1  0.4262105976068  0.7887885084468  0.0706751431182 1.0
C      1  0.1551601739327  0.2890851249256  0.6726046847442 1.0
C      1  0.3258937417166  0.7606038756909  0.3219738075395 1.0
C      1  0.9140854963538  0.6607757936436  0.3390251356482 1.0
C      1  0.9150779238473  0.7466279958787  0.4038867108197 1.0
C      1  0.3077779140448  0.1361264482824  0.1657628672886 1.0
C      1  0.2894168563698  0.1475821108504  0.4852263263930 1.0
C      1  0.0932805308860  0.6217527704125  0.2622965066068 1.0
C      1  0.6716659245055  0.6988162875437  0.6049602200731 1.0
C      1  0.5670261260996  0.7662898711004  0.2986662973585 1.0
C      1  0.3299744674269  0.1914396422908  0.8593007652306 1.0
C      1  0.8233163543063  0.3254284515343  0.0949928121353 1.0
C      1  0.2117535759115  0.6143188541449  0.7796487371191 1.0
C      1  0.6872070507001  0.6693128973269  0.2095525297558 1.0
C      1  0.5935884668777  0.0900342778576  0.8041137677993 1.0
C      1  0.3037177566532  0.5829348267384  0.5968468698988 1.0
C      1  0.0732339899661  0.2779563945865  0.3283880459110 1.0
C      1  0.2385045011026  0.7354020994628  0.3723662710388 1.0
C      1  0.5822454280281  0.4163770495572  0.7082952288663 1.0
C      1  0.3591229130467  0.1351288487461  0.5621460746469 1.0
C      1  0.6283473502709  0.3220613990727  0.1690409500909 1.0
C      1  0.6838074860670  0.7868060335420  0.5622032025339 1.0
C      1  0.0979255247155  0.6942767694867  0.3250341347665 1.0
C      1  0.3591341466088  0.3825973207384  0.0846941326472 1.0
C      1  0.1349225003178  0.7640849771123  0.7906637891754 1.0
C      1  0.1381759887008  0.2106165095122  0.3780863943381 1.0
C      1  0.6315283676865  0.3610470329718  0.3381344889639 1.0
C      1  0.3258034696261  0.5421122773312  0.4964325061201 1.0
C      1  0.6833716605992  0.5190871648683  0.8381431807524 1.0
C      1  0.0760066065377  0.5130269016469  0.6711161152698 1.0
C      1  0.5095791707201  0.5792760768074  0.9619624839359 1.0
C      1  0.3474463728771  0.7311520697456  0.2262304176305 1.0
C      1  0.8099701980011  0.8899028863885  0.2520284162093 1.0
C      1  0.6326852828113  0.4671545724331  0.9093265035934 1.0
C      1  0.8835932646635  0.8424600794230  0.3982066395091 1.0
C      1  0.7468045071521  0.8391330000459  0.6180793718852 1.0
C      1  0.4579560264053  0.9802316676999  0.7327126420074 1.0
C      1  0.4159880107770  0.7385216582418  0.5743536767794 1.0
C      1  0.3770974095227  0.0234777072957  0.3459545139625 1.0
C      1  0.6296635753282  0.1665256498959  0.5827902413083 1.0
C      1  0.4017414310249  0.1477097316313  0.1570941597767 1.0
C      1  0.2597698223054  0.7809316505514  0.6418394730517 1.0
C      1  0.8664091522961  0.7359229013231  0.2056214946744 1.0
C      1  0.4122272529317  0.2372584247608  0.4527420096715 1.0
C      1  0.1227879506359  0.6403522571954  0.8931730561852 1.0
C      1  0.6939042332405  0.8969842830950  0.6822501821983 1.0
C      1  0.8310672724543  0.7260358071007  0.5522675859690 1.0
C      1  0.8731753730071  0.2755464571520  0.6929812557449 1.0
C      1  0.8009130955180  0.2553110324843  0.8593588687472 1.0
C      1  0.8739154568573  0.1018522768124  0.3983486707969 1.0
C      1  0.4371713293488  0.1990095062174  0.5485098100027 1.0
C      1  0.7209369878914  0.4081367244387  0.3750188673917 1.0
C      1  0.7387603654670  0.6928589328859  0.6835616813745 1.0
C      1  0.4275350554910  0.2359520259189  0.1281842627135 1.0
C      1  0.4766360986993  0.1075005555535  0.2148372952446 1.0
C      1  0.4717475931030  0.5109565069038  0.9024534533833 1.0
C      1  0.2798677933917  0.5335730934322  0.9952826561962 1.0
C      1  0.7305806738201  0.9422645214647  0.2571414975413 1.0
C      1  0.0173606035167  0.4610492419613  0.6060751554274 1.0
C      1  0.9765115958825  0.2510647175402  0.3414641834099 1.0
C      1  0.5413255557261  0.2884231638826  0.0080944866238 1.0
C      1  0.7307713455883  0.8772077024740  0.8487347154231 1.0
C      1  0.4750511594757  0.8390139764743  0.1409608424445 1.0
C      1  0.6210804209375  0.8513987986132  0.5248086670600 1.0
C      1  0.3144159240001  0.3126023955562  0.7490766882113 1.0
C      1  0.1089857998412  0.2186549835852  0.4769597184192 1.0
C      1  0.8265798222562  0.5738886113386  0.5955861941150 1.0
C      1  0.3200752202743  0.3637222635337  0.3410703984676 1.0
C      1  0.2882775914773  0.5304637899219  0.3069730105150 1.0
C      1  0.2570503364064  0.3369822568224  0.5022489041063 1.0
C      1  0.3400432520263  0.3933979643000  0.7979695190651 1.0
C      1  0.6630421369304  0.6033188156390  0.0027358277883 1.0
C      1  0.4739174504331  0.2459343872728  0.9409660402436 1.0
C      1  0.0681035986161  0.7787313688417  0.6528321136398 1.0
C      1  0.6616763886847  0.1210626664285  0.7423635154195 1.0
C      1  0.5340329018907  0.9163627628364  0.4011979691241 1.0
C      1  0.2857206071096  0.9072801109826  0.3217168547397 1.0
C      1  0.8311490773636  0.4549749537514  0.7846648282448 1.0
C      1  0.8030031659744  0.7986984406517  0.2137443509206 1.0
C      1  0.1016954577434  0.4458644283083  0.7477970338001 1.0
C      1  0.3995846328190  0.3793407918439  0.3707348090332 1.0
C      1  0.0225424364784  0.5927653053707  0.6985466082347 1.0
C      1  0.0775130441542  0.8114929707635  0.5537828255546 1.0
C      1  0.6406970927789  0.8448457903930  0.8918782589428 1.0
C      1  0.9095409001124  0.4573750664209  0.8457933606419 1.0
C      1  0.4698773854446  0.1364795331837  0.3183474187133 1.0
C      1  0.7429846162310  0.0255889572992  0.3097054625600 1.0
C      1  0.7875923441779  0.1878854475186  0.2151357938956 1.0
C      1  0.1757999355325  0.4057919530596  0.3497655145428 1.0
C      1  0.7589464859626  0.4764380696065  0.4472342862381 1.0
C      1  0.2485654706695  0.2320447111695  0.5346842687047 1.0
C      1  0.2266861172598  0.7894631527388  0.4590013589943 1.0
C      1  0.8508781822283  0.1374685189100  0.4817064699546 1.0
C      1  0.7204227364391  0.5500550383143  0.0818668101365 1.0
C      1  0.5097870122638  0.4302564100113  0.7759217539193 1.0
C      1  0.9161989134676  0.6692760982069  0.2372807782868 1.0
C      1  0.7138388871446  0.5272678728397  0.6940638271157 1.0
C      1  0.3918509586786  0.2657411159009  0.6200474707564 1.0
C      1  0.2195211138175  0.4982458699050  0.3636505236542 1.0
C      1  0.7520862724510  0.3295056587994  0.5663310357030 1.0
C      1  0.2122962241546  0.7033780259282  0.6575875229138 1.0
C      1  0.5405336174209  0.4684008845067  0.0461767328180 1.0
C      1  0.8166217169595  0.2707291923220  0.2467309577109 1.0
C      1  0.4775161359464  0.6779062892191  0.9593437726600 1.0
C      1  0.5579682366157  0.8935098050341  0.8627426476884 1.0
C      1  0.7192712462618  0.6596369291787  0.4425520048036 1.0
C      1  0.6738423293701  0.4603409960364  0.2201388152562 1.0
C      1  0.6411045423773  0.9102328934227  0.2632325995292 1.0
C      1  0.3364824530364  0.6089964704153  0.3538760855178 1.0
C      1  0.6218842773186  0.6736773048785  0.4164328281765 1.0
C      1  0.3802546861192  0.9106464126393  0.4889218707642 1.0
C      1  0.6253613344540  0.7747298200091  0.3817134699478 1.0
END
