TITL C-26764-575-44 -8.609 3375.00 -1545.63164273 0 0 188 () n - 1
REM
REM Run started: at 2020.12.26 15:47:40 in /gpfs/home/chem/mssmkc/CARBON/AIRSS/Generating-Clusters/Str-Search/Only-C1/C100-200
REM VASP from code version vasp.5.4.4.18Apr17-6-g9f103f2a35 (build Oct 11 2019 16:45:47) gamma-only
REM
REM
REM
REM
REM ./C.cell (efaf0b2bf1589a83377268d7ebe2c73f)
REM AIRSS Version 0.9.1 bugfix July 2018 build 013d7b7c2542+ Fri, 06 Jul 2018 19:26:36 +0100
REM compiler GCC version 6.3.0
REM options -cpp -iprefix /gpfs/warwick/csc/orac/software/Core/GCCcore/6.3.0/bin/../lib/gcc/x86_64-pc-linux-gnu/6.3.0/ -mtune=generic -march=x86-64 -g -O0
REM seed 1595042882 -564564647 1052283663 -74272817 2142294303 889065953 -133505358 186848038 151546324 -1749732636 1791122076 1871699082
REM
REM C.POTCAR (d86ddea03c3ceb6dc662c8ad6801f873)
REM 
CELL 1.54180   15.00000   15.00000   15.00000   90.00000   90.00000   90.00000
LATT -1
SFAC C  
C      1  0.6645283366573  0.5307126538084  0.1431732628711 1.0
C      1  0.6499932828477  0.7934637591643  0.2454097843856 1.0
C      1  0.3263932297206  0.6256184646432  0.6261778086005 1.0
C      1  0.5219546914712  0.7303916845362  0.8940366518549 1.0
C      1  0.8297500632289  0.3065316593237  0.6027816095548 1.0
C      1  0.8551129129982  0.5791382770224  0.3565737818922 1.0
C      1  0.7195233424795  0.8848111413075  0.5285389963375 1.0
C      1  0.7458888896728  0.4982988361523  0.8202590234797 1.0
C      1  0.4987264275032  0.2802433143361  0.1419173570599 1.0
C      1  0.2420363755252  0.2259005792812  0.5173529541204 1.0
C      1  0.3581497115341  0.4881038123597  0.8864465451709 1.0
C      1  0.4190845968834  0.1995221544076  0.7700834359563 1.0
C      1  0.4345145250222  0.5853712387230  0.1477196764918 1.0
C      1  0.7030705213828  0.2051467274654  0.6511167112673 1.0
C      1  0.9054273435301  0.4576673126884  0.5775305483047 1.0
C      1  0.8190420170566  0.3620868731198  0.3452690514914 1.0
C      1  0.6188998433116  0.5949435024611  0.0942308507828 1.0
C      1  0.4748866334879  0.3727052999661  0.6249934672404 1.0
C      1  0.2368199509634  0.7099291113511  0.7508357059618 1.0
C      1  0.2795494448381  0.4386722226600  0.6506007029651 1.0
C      1  0.1847966929921  0.2380396203888  0.5867327602705 1.0
C      1  0.8115796194249  0.6685886180027  0.4926341482718 1.0
C      1  0.3036487623031  0.3220344555521  0.3669577779350 1.0
C      1  0.8172203312993  0.6547000579481  0.3991354176865 1.0
C      1  0.5417979536821  0.5944618034872  0.5013810293558 1.0
C      1  0.4748006451361  0.5617917743884  0.6963175800122 1.0
C      1  0.2500235844080  0.3703815204818  0.2953535587196 1.0
C      1  0.1197850900544  0.5839234052443  0.4577316444318 1.0
C      1  0.8655087016396  0.5060496140977  0.4281273303604 1.0
C      1  0.8758317334003  0.4095758777081  0.4024791297609 1.0
C      1  0.2821844016996  0.3751330507665  0.2076916398044 1.0
C      1  0.5925535770925  0.6791155348453  0.8675607009528 1.0
C      1  0.1562046299918  0.6440702190931  0.3937489177291 1.0
C      1  0.3855168979251  0.5407647316144  0.2248246494925 1.0
C      1  0.5015864077874  0.2195822409109  0.8120258710705 1.0
C      1  0.4251006537754  0.2940709421129  0.5773841395127 1.0
C      1  0.1134957489659  0.5612564351564  0.6118942311250 1.0
C      1  0.5124526034661  0.5276092412862  0.8913317928637 1.0
C      1  0.1290690351601  0.6244435825358  0.5458086307691 1.0
C      1  0.3869038278297  0.3695736477745  0.0982906069007 1.0
C      1  0.4600458314607  0.6302128586186  0.3561996797853 1.0
C      1  0.3916050163145  0.5636950907210  0.3936193261771 1.0
C      1  0.5319509558286  0.4661824570915  0.2747174699012 1.0
C      1  0.6737285888775  0.3373287579331  0.2600836291131 1.0
C      1  0.1378797543942  0.4091662998561  0.6295739595008 1.0
C      1  0.4335966755071  0.7203530604233  0.3960817752600 1.0
C      1  0.6419347117856  0.8524087842767  0.3043231673962 1.0
C      1  0.3875277213565  0.6048378837728  0.6999123593996 1.0
C      1  0.5136633396981  0.8546753155468  0.7206216419248 1.0
C      1  0.4942607952441  0.8922906296827  0.5073400454356 1.0
C      1  0.7544375562805  0.3932045102834  0.2832172052414 1.0
C      1  0.1307201291559  0.4253373607849  0.4024768170276 1.0
C      1  0.8486637627669  0.5893920156275  0.7212065962839 1.0
C      1  0.1855443088743  0.3218912289701  0.6279276030960 1.0
C      1  0.2807560648564  0.5417973921351  0.2197835005797 1.0
C      1  0.3717626371572  0.1947413513822  0.4288944976264 1.0
C      1  0.7989277670501  0.5756336167679  0.7940600759484 1.0
C      1  0.1625192680286  0.5612354416980  0.6939174650785 1.0
C      1  0.3504284428699  0.0827732784413  0.4662072520882 1.0
C      1  0.6485032358235  0.4351585851850  0.6975505230648 1.0
C      1  0.4667754918490  0.4357155312737  0.5485265690244 1.0
C      1  0.7333817191705  0.6778378800647  0.3568008904750 1.0
C      1  0.4553097158012  0.3668832680671  0.8978517570167 1.0
C      1  0.3112563972422  0.3992829329841  0.4980275459260 1.0
C      1  0.5785933993655  0.5452912509377  0.2760738658200 1.0
C      1  0.2509475939062  0.3152159154988  0.4616439707559 1.0
C      1  0.6730665905526  0.5452935559512  0.2434325358196 1.0
C      1  0.4759428343023  0.4004264223351  0.7173612564252 1.0
C      1  0.2717096148460  0.7065898989667  0.5930195700224 1.0
C      1  0.5253662582234  0.4325314869493  0.9050549627916 1.0
C      1  0.3487462703658  0.8225639173864  0.6900948519784 1.0
C      1  0.7112833757047  0.5878604160662  0.6351814426451 1.0
C      1  0.4202743622947  0.5537882211818  0.8604441566861 1.0
C      1  0.6576330373406  0.7074943056408  0.2100429218573 1.0
C      1  0.5022592394025  0.6448833349014  0.1768811457295 1.0
C      1  0.3525711581572  0.4572080235825  0.0931529149053 1.0
C      1  0.5397621912617  0.6285193176236  0.4158789049449 1.0
C      1  0.3737207844499  0.7026330601938  0.4641777333844 1.0
C      1  0.2438774467621  0.6395004107543  0.2288003700743 1.0
C      1  0.2621572137012  0.8755661567159  0.2566886098365 1.0
C      1  0.4671916589905  0.1359392554843  0.3264346109594 1.0
C      1  0.8979289496935  0.5326965243969  0.5226487281241 1.0
C      1  0.1920057008838  0.4418770621180  0.3293468052695 1.0
C      1  0.6928502578657  0.7565730641036  0.6477959539695 1.0
C      1  0.2174082111564  0.5241675056447  0.2963800975917 1.0
C      1  0.1939943626435  0.6143607654386  0.3099847930610 1.0
C      1  0.5755197120304  0.1773339540109  0.5284842659281 1.0
C      1  0.2826174450131  0.4623947221147  0.1569236367355 1.0
C      1  0.8446938246536  0.3271717748371  0.4323243728671 1.0
C      1  0.5910641400683  0.5822770127766  0.8814852182513 1.0
C      1  0.2647550100854  0.7168757938313  0.1856981608501 1.0
C      1  0.7205713982445  0.6382390672928  0.2635567337999 1.0
C      1  0.3505646423297  0.6065208601035  0.4668280881508 1.0
C      1  0.5894987045823  0.8254094676913  0.7401903520211 1.0
C      1  0.3470446265452  0.2752456671550  0.6387196827293 1.0
C      1  0.5649154423395  0.4191145851454  0.7555180852875 1.0
C      1  0.5343035123542  0.8667604380897  0.4257557458218 1.0
C      1  0.4138858560214  0.2060008624767  0.2796049125003 1.0
C      1  0.4296089561974  0.5148948171029  0.0808986232539 1.0
C      1  0.5845833879731  0.3697883253972  0.8466565248919 1.0
C      1  0.1883680741652  0.6965546580419  0.5387349533120 1.0
C      1  0.1084160069841  0.4901819160508  0.4697246499922 1.0
C      1  0.4416426776008  0.7452298966707  0.8772150431154 1.0
C      1  0.3706997024719  0.4058242583825  0.8966723384387 1.0
C      1  0.6867684319085  0.9065847881824  0.4548415781050 1.0
C      1  0.8111990103128  0.5973945634847  0.6412291537200 1.0
C      1  0.6324701815250  0.1905723500770  0.2084095657875 1.0
C      1  0.5133101504542  0.7771840155880  0.3981632574183 1.0
C      1  0.4400676018406  0.1273467071938  0.4241130587131 1.0
C      1  0.7349175111242  0.2274660618487  0.4961190804593 1.0
C      1  0.2765461047660  0.3410764635003  0.6521169756864 1.0
C      1  0.8534717819667  0.6110360221490  0.5538224245953 1.0
C      1  0.7200430680739  0.8007355600787  0.5714879028095 1.0
C      1  0.6777599514933  0.7136006869333  0.4204083474182 1.0
C      1  0.6460076447207  0.5295512801001  0.6640816702956 1.0
C      1  0.4886563458479  0.4846348103388  0.7495338962983 1.0
C      1  0.6435060672554  0.1809721537949  0.7192424543717 1.0
C      1  0.5579601737106  0.3185193884271  0.6129570182517 1.0
C      1  0.4331731839932  0.4782538715190  0.2763189640825 1.0
C      1  0.1963276813103  0.6382994402583  0.7366070067401 1.0
C      1  0.5585427232026  0.1369124249626  0.3514507809376 1.0
C      1  0.5852947403244  0.3353178649162  0.3663751711849 1.0
C      1  0.5931622249688  0.5012152738590  0.0886176281587 1.0
C      1  0.8820006769837  0.3842721394490  0.6079370197048 1.0
C      1  0.6871382699165  0.2743708049171  0.4272470549309 1.0
C      1  0.1026924474569  0.4720219227832  0.5679686670413 1.0
C      1  0.5107446899516  0.5151355343836  0.5485829130176 1.0
C      1  0.6513685382333  0.4016254658326  0.5280155983506 1.0
C      1  0.3253319237652  0.5647212618291  0.5490809980488 1.0
C      1  0.5797105667965  0.6370366515460  0.5752298516644 1.0
C      1  0.7640832457356  0.3202238632603  0.7603464356847 1.0
C      1  0.3893193277157  0.6267303045242  0.7975787601426 1.0
C      1  0.3040626619385  0.4745128399989  0.5643288173810 1.0
C      1  0.6363441987712  0.3750556133353  0.6145679181590 1.0
C      1  0.6623323082436  0.7700181722703  0.7416582422725 1.0
C      1  0.2122704503253  0.8036438216351  0.4073244390897 1.0
C      1  0.2333015088681  0.8453110190052  0.3373069614632 1.0
C      1  0.6755553141702  0.1902060524396  0.5580156243781 1.0
C      1  0.3400132284606  0.7547755195564  0.5336635063958 1.0
C      1  0.7527233746551  0.4866787921157  0.2666779128577 1.0
C      1  0.3111119109667  0.7960716372693  0.6074774531289 1.0
C      1  0.5904801770540  0.6700451748351  0.1439981231370 1.0
C      1  0.5112789845594  0.4551712125400  0.0796932617997 1.0
C      1  0.1940917095375  0.4714554041299  0.6868111845416 1.0
C      1  0.7716577146874  0.2720584245038  0.6719038492137 1.0
C      1  0.5118855658363  0.2984967741553  0.8610188220966 1.0
C      1  0.6825673908753  0.3516611438350  0.8387676885255 1.0
C      1  0.3141505542101  0.7649465107203  0.7609955521850 1.0
C      1  0.3507574654183  0.3172790159615  0.1681723422291 1.0
C      1  0.2605076143595  0.7984615287667  0.2122109109158 1.0
C      1  0.4079810762745  0.3693852082373  0.5012614434523 1.0
C      1  0.7321207953514  0.6349553231738  0.8337751805109 1.0
C      1  0.7712242514499  0.4961983894889  0.4541095474355 1.0
C      1  0.6714926290239  0.6708121327406  0.5935819028956 1.0
C      1  0.7227414740460  0.7145009106670  0.5120782637744 1.0
C      1  0.6279743824983  0.3419169576354  0.4526944282056 1.0
C      1  0.6267811178634  0.1782660215595  0.3003609529818 1.0
C      1  0.8145948367132  0.2772502483530  0.5109667128778 1.0
C      1  0.5535614783379  0.5610252450237  0.6339294298572 1.0
C      1  0.3079988708067  0.1616329453365  0.4915190546421 1.0
C      1  0.3671532636486  0.2158244299478  0.7077293176477 1.0
C      1  0.6670895840394  0.2754983083515  0.1789776166080 1.0
C      1  0.6216277381613  0.8914767109813  0.3885134225519 1.0
C      1  0.7095720158787  0.4675354721504  0.4987710455714 1.0
C      1  0.6564973790275  0.2651623649398  0.3369405865116 1.0
C      1  0.3730698610492  0.7174441682094  0.8232746688382 1.0
C      1  0.4585286017994  0.8887133368101  0.5819819449858 1.0
C      1  0.7233290707528  0.4144540474396  0.7693722870210 1.0
C      1  0.3636700852091  0.3961429732959  0.4113637349348 1.0
C      1  0.5166928967293  0.6248502422019  0.2714447767203 1.0
C      1  0.5836780857967  0.2448651200735  0.1484211109269 1.0
C      1  0.1838721226525  0.7251034240644  0.4450831082495 1.0
C      1  0.1576919929814  0.3327015859534  0.4420001371290 1.0
C      1  0.5194866756627  0.2449430875138  0.5749562978625 1.0
C      1  0.8079694324044  0.5638205544194  0.2758036386969 1.0
C      1  0.4804213688805  0.3638523108130  0.0951406715112 1.0
C      1  0.4362984501392  0.8641607039845  0.6724732041031 1.0
C      1  0.6818785744743  0.5562099071260  0.8646730847294 1.0
C      1  0.6734274255386  0.7050588695057  0.8151578857638 1.0
C      1  0.5814590332626  0.3845175370719  0.2891798934712 1.0
C      1  0.7473204427707  0.2832335674643  0.8490815200026 1.0
C      1  0.3941765398408  0.4750987473527  0.3648840412853 1.0
C      1  0.4188065392015  0.2545918662109  0.1945116986678 1.0
C      1  0.5380127927481  0.1382504551799  0.4501122590568 1.0
C      1  0.0782798935437  0.3293466476287  0.4084240103219 1.0
C      1  0.5780253750244  0.1867193538274  0.7681707997461 1.0
C      1  0.5823864072693  0.7134436751045  0.4030979589102 1.0
C      1  0.3558044837856  0.2391186385490  0.3468141923696 1.0
END
