TITL C-26764-575-31 -7.287 3375.00 -1272.19582698 0 0 155 () n - 1
REM
REM Run started: at 2020.12.26 00:49:45 in /gpfs/home/chem/mssmkc/CARBON/AIRSS/Generating-Clusters/Str-Search/Only-C1/C100-200
REM VASP from code version vasp.5.4.4.18Apr17-6-g9f103f2a35 (build Oct 11 2019 16:45:47) gamma-only
REM
REM
REM
REM
REM ./C.cell (efaf0b2bf1589a83377268d7ebe2c73f)
REM AIRSS Version 0.9.1 bugfix July 2018 build 013d7b7c2542+ Fri, 06 Jul 2018 19:26:36 +0100
REM compiler GCC version 6.3.0
REM options -cpp -iprefix /gpfs/warwick/csc/orac/software/Core/GCCcore/6.3.0/bin/../lib/gcc/x86_64-pc-linux-gnu/6.3.0/ -mtune=generic -march=x86-64 -g -O0
REM seed 1321587182 -1974005692 1641484737 1597724033 1612213822 871805844 801265470 -1881920502 -105366332 815829847 -663056370 1070842258
REM
REM C.POTCAR (d86ddea03c3ceb6dc662c8ad6801f873)
REM 
CELL 1.54180   15.00000   15.00000   15.00000   90.00000   90.00000   90.00000
LATT -1
SFAC C  
C      1  0.4832567494755  0.4951152289777  0.7221526843755 1.0
C      1  0.6462890332729  0.8449086437438  0.5912456849697 1.0
C      1  0.2662977856371  0.2101276006155  0.3984384388812 1.0
C      1  0.7931200780888  0.5163063663987  0.5610234601814 1.0
C      1  0.3257101325051  0.2991601232162  0.4998128786693 1.0
C      1  0.4681019233143  0.8313500593840  0.5673404343332 1.0
C      1  0.4711507963076  0.6461230504898  0.4124012429854 1.0
C      1  0.4695296381564  0.4111124424998  0.6877838461918 1.0
C      1  0.5790319767370  0.2681614451069  0.7776981940536 1.0
C      1  0.2884390684446  0.8253683945062  0.2745791396786 1.0
C      1  0.8776362178930  0.5007262720971  0.7054108161299 1.0
C      1  0.3681246252957  0.4639458940223  0.8348515119518 1.0
C      1  0.7948605318311  0.4372657412216  0.7008383226468 1.0
C      1  0.5108900922806  0.2462362982555  0.2760448825890 1.0
C      1  0.6675953946618  0.5615779375134  0.2212874389075 1.0
C      1  0.7560707200562  0.2905671076741  0.3237680304613 1.0
C      1  0.4854325927267  0.2547874440645  0.4882066350346 1.0
C      1  0.3484076170273  0.1703520709375  0.4299247275583 1.0
C      1  0.4237399695050  0.6438447229453  0.5761929112220 1.0
C      1  0.7241392961631  0.6925067891526  0.6661001869396 1.0
C      1  0.7101096873349  0.2540735519727  0.5688881972274 1.0
C      1  0.5008459817779  0.3878869929631  0.8308178955204 1.0
C      1  0.5183070928801  0.8245997883243  0.3972164605191 1.0
C      1  0.6608285256044  0.4714105945758  0.1985921767244 1.0
C      1  0.4690889351137  0.8076361934700  0.3137772010293 1.0
C      1  0.6262540596589  0.4821539202987  0.6047996083394 1.0
C      1  0.6299810461784  0.5599534807437  0.4805611673311 1.0
C      1  0.6192140855954  0.8127819782326  0.6695581755135 1.0
C      1  0.3321623141664  0.6540352815330  0.6319286933457 1.0
C      1  0.5563151369269  0.6555494501775  0.3832116186951 1.0
C      1  0.4589843272885  0.6891063036249  0.1939120309272 1.0
C      1  0.7980229335650  0.5335105464615  0.6582967996990 1.0
C      1  0.7490473993520  0.7216775589237  0.5731547349799 1.0
C      1  0.4808980222610  0.3440081534951  0.4339410761137 1.0
C      1  0.5183769149207  0.7253663923500  0.8041141318543 1.0
C      1  0.6622090880308  0.7429187346353  0.7183093839957 1.0
C      1  0.3922190182047  0.6286117234041  0.3603068704369 1.0
C      1  0.6360626958820  0.5437167353980  0.6839315232714 1.0
C      1  0.3715349282947  0.3057658586694  0.1751161718705 1.0
C      1  0.7362348979585  0.2552987300847  0.7172836214133 1.0
C      1  0.0968969889809  0.5748258334159  0.5156179834819 1.0
C      1  0.7747792531387  0.6676689159130  0.4928822089093 1.0
C      1  0.8105683029233  0.3728583506145  0.6244410957939 1.0
C      1  0.6759329251769  0.2393100526646  0.3238890709573 1.0
C      1  0.6398058807214  0.4929736435152  0.4072070023504 1.0
C      1  0.5893533934299  0.6109687771717  0.2232885255935 1.0
C      1  0.3231733699572  0.6468549221224  0.7276747953970 1.0
C      1  0.7926337534118  0.5499478208689  0.3295141435154 1.0
C      1  0.2698180467240  0.4346277628197  0.7336377426248 1.0
C      1  0.5213870538705  0.6195448990144  0.6042878920282 1.0
C      1  0.6582915545976  0.4172054696229  0.8325798974925 1.0
C      1  0.1676846120062  0.3665434803123  0.5782376319781 1.0
C      1  0.8262265903310  0.4215249884518  0.5435540285771 1.0
C      1  0.4762518072888  0.2186039546044  0.6496078137684 1.0
C      1  0.2725887015332  0.2311319448654  0.3046886416552 1.0
C      1  0.6906134938017  0.5358824382658  0.7701780914567 1.0
C      1  0.5576999542301  0.7957848205428  0.5904340092233 1.0
C      1  0.3918293763582  0.5541507814454  0.5511435378249 1.0
C      1  0.2332768453100  0.4788338943169  0.2964311354203 1.0
C      1  0.7140498986881  0.8059016135781  0.5380700044885 1.0
C      1  0.4692474204856  0.4832990251213  0.8286230225082 1.0
C      1  0.5582649694857  0.6990977208759  0.5439633469064 1.0
C      1  0.4362521722064  0.5348169195037  0.1808676120077 1.0
C      1  0.7852429743526  0.2114983839258  0.5578383018762 1.0
C      1  0.6846217305329  0.7989279292354  0.4458851497186 1.0
C      1  0.5696804675529  0.3628221265413  0.3996577145769 1.0
C      1  0.2094259753584  0.4185045198599  0.6517468979398 1.0
C      1  0.7054390030755  0.7029147519288  0.4221751675042 1.0
C      1  0.3511900249173  0.3863756292661  0.7823834161952 1.0
C      1  0.5492554764185  0.5362106404845  0.5451092336645 1.0
C      1  0.3600250156759  0.5406083256823  0.3215268646197 1.0
C      1  0.2916505414073  0.3292627126817  0.1838890837680 1.0
C      1  0.3894751092734  0.2206539141408  0.5093480734284 1.0
C      1  0.1272559813408  0.6517873739284  0.5471596100946 1.0
C      1  0.5917521487844  0.6837919579936  0.2911456403403 1.0
C      1  0.6951813416991  0.4988248266264  0.5354286500910 1.0
C      1  0.8081177431343  0.3586396776940  0.3610243075369 1.0
C      1  0.7146083120206  0.3917203041863  0.2065566849789 1.0
C      1  0.5111103674086  0.4316065518532  0.2850941937944 1.0
C      1  0.6191333680057  0.6590023126199  0.4624782264550 1.0
C      1  0.2789525610259  0.4312910147760  0.4390499533966 1.0
C      1  0.2887533136049  0.4928087336965  0.3714508037973 1.0
C      1  0.7840446119968  0.2798119955611  0.6389281470301 1.0
C      1  0.3600599509735  0.1969095545249  0.2776824907922 1.0
C      1  0.4339632583899  0.4906665158729  0.2641643170934 1.0
C      1  0.3951752666407  0.8400520299843  0.6242914107222 1.0
C      1  0.2014952395937  0.3703435951431  0.4180924303106 1.0
C      1  0.6054919901749  0.7068006614614  0.7877046593089 1.0
C      1  0.7320319181774  0.6044380244230  0.2834599493621 1.0
C      1  0.5407327870819  0.5800058947429  0.6986127030618 1.0
C      1  0.6067169369680  0.8313473818866  0.4130301803587 1.0
C      1  0.2876754219605  0.6804635384498  0.2486242678887 1.0
C      1  0.6974529236752  0.4262942798755  0.4581054679633 1.0
C      1  0.6633755583625  0.2362357373965  0.7528534395121 1.0
C      1  0.2696022653518  0.7306382519056  0.6008804836332 1.0
C      1  0.3449517428922  0.6983681511648  0.3286721087345 1.0
C      1  0.7263299410622  0.5953418740549  0.6942328735805 1.0
C      1  0.8177962959752  0.5232823783503  0.4098785351890 1.0
C      1  0.5265927674671  0.2737539913889  0.5792674452005 1.0
C      1  0.6278118613180  0.3058836446639  0.5569762257629 1.0
C      1  0.6313206874388  0.3374254764605  0.2056020914447 1.0
C      1  0.6108675981535  0.2599884183143  0.2526611464151 1.0
C      1  0.6334496540382  0.2384166084725  0.4098487739734 1.0
C      1  0.7780691202432  0.3642082769659  0.2683501613588 1.0
C      1  0.5480940326500  0.2007900821338  0.4272366289438 1.0
C      1  0.2894283434532  0.5997067968898  0.7873201206586 1.0
C      1  0.4360044593662  0.4162767346422  0.4819594170363 1.0
C      1  0.2380693327324  0.3139385626051  0.2618916643498 1.0
C      1  0.5049369504307  0.6062215917420  0.1814840053156 1.0
C      1  0.5086338335418  0.7461403313264  0.2555024533896 1.0
C      1  0.4507233336033  0.7999783897721  0.4732702625925 1.0
C      1  0.7291571627027  0.4439224383753  0.7736449828678 1.0
C      1  0.3080869554445  0.1825307106353  0.6422033826551 1.0
C      1  0.5433819210695  0.6289088768460  0.7895537364053 1.0
C      1  0.4223227975605  0.2423124347536  0.2223886726005 1.0
C      1  0.1970623900806  0.2785196684531  0.5590152494649 1.0
C      1  0.3662622511556  0.8011732196679  0.3351895845998 1.0
C      1  0.4619254155301  0.4970627214475  0.5162302301926 1.0
C      1  0.6937907271809  0.6799497062161  0.3229726533816 1.0
C      1  0.4408315212078  0.3422847178502  0.7640895645867 1.0
C      1  0.6435418654513  0.3303454210637  0.4583223426399 1.0
C      1  0.4571947261695  0.7864752764570  0.7733282271520 1.0
C      1  0.5750053838488  0.4497706633077  0.3610541644572 1.0
C      1  0.3619152786879  0.8240719608910  0.4326474899747 1.0
C      1  0.6267839275055  0.5106968670542  0.8440978928218 1.0
C      1  0.5173131261069  0.3659998818532  0.6190756610524 1.0
C      1  0.3144116764988  0.5553707696601  0.5991634904146 1.0
C      1  0.2327839559775  0.2793242727299  0.4617558561303 1.0
C      1  0.2683559329352  0.4848106448397  0.6438249267447 1.0
C      1  0.3448641551366  0.3878981794829  0.4880149430489 1.0
C      1  0.1871342001224  0.7043360921689  0.5719303813859 1.0
C      1  0.8127584742185  0.5830821729079  0.4889207677509 1.0
C      1  0.4968393416396  0.3358667041141  0.3312204508894 1.0
C      1  0.2873440902363  0.5613242746193  0.2459643753084 1.0
C      1  0.1442476867169  0.4117997009269  0.4945840877963 1.0
C      1  0.8014176242266  0.4222506481262  0.4394993378336 1.0
C      1  0.6035698861739  0.3884224184193  0.6084652090262 1.0
C      1  0.2950833368231  0.8367300324189  0.4906701101743 1.0
C      1  0.2369088087517  0.2179627058626  0.6188755652707 1.0
C      1  0.4916664581683  0.2545275922527  0.7412529269509 1.0
C      1  0.3105009535767  0.8152769924271  0.5789701945864 1.0
C      1  0.4958091536818  0.1786678424977  0.3502587580491 1.0
C      1  0.3623446293679  0.6686616870417  0.1807319442132 1.0
C      1  0.3509198939493  0.5770743999483  0.1684863716957 1.0
C      1  0.2898555525662  0.5091306914554  0.8050412068632 1.0
C      1  0.2360318075936  0.7677071000100  0.2437498181697 1.0
C      1  0.4652909563177  0.6981785137321  0.4974846863674 1.0
C      1  0.5850149429768  0.3525659400457  0.8292493833605 1.0
C      1  0.5775096374666  0.4186569298993  0.2062305499901 1.0
C      1  0.4046920129130  0.1585216314482  0.3541312411144 1.0
C      1  0.3967635327991  0.1922627647810  0.6102498984428 1.0
C      1  0.5439198604309  0.5489396324711  0.8513208285672 1.0
C      1  0.4108929789902  0.8233786735694  0.7159166097378 1.0
C      1  0.1052221290261  0.4945103655640  0.4952374027819 1.0
C      1  0.2003535466826  0.3857916726248  0.3118147671967 1.0
END
