TITL C-27442-2732-16 -2.3 3375.00 -374.02829884 0 0 46 (C1) n - 1
REM
REM Run started: at 2020.12.26 16:31:53 in /rds/project/t2_vol4/rds-t2-cs072/BORA/CARBON/AIRSS/Generating-Clusters/Str-Search/Only-C1/C10-100
REM VASP from code version vasp.5.4.4.18Apr17-6-g9f103f2a35 (build Oct 11 2019 16:45:47) gamma-only
REM
REM
REM
REM
REM ./C.cell (67c5d0192afd7a3ce4a0888e5fe73b87)
REM AIRSS Version 0.9.1 bugfix July 2018 build 013d7b7c2542+ Fri, 06 Jul 2018 19:26:36 +0100
REM compiler GCC version 4.8.5 20150623 (Red Hat 4.8.5-39)
REM options -cpp -mtune=generic -march=x86-64 -g -O0
REM seed -1917321436 1983271817 -1515767800 -2072522822 -1532353473 1359525702 238161220 516229318 946423759 -783511955 859124328 525708875
REM
REM C.POTCAR (d86ddea03c3ceb6dc662c8ad6801f873)
REM 
CELL 1.54180   15.00000   15.00000   15.00000   90.00000   90.00000   90.00000
LATT -1
SFAC C  
C      1  0.6544530197274  0.4318157660204  0.3101605208837 1.0
C      1  0.6494438366767  0.5829905258783  0.6254510543044 1.0
C      1  0.3896008361520  0.3621168831060  0.3674382413982 1.0
C      1  0.3386047989440  0.3519964858319  0.5313930261454 1.0
C      1  0.4476890604658  0.6715056003667  0.4408697603730 1.0
C      1  0.4111575983925  0.3144324572521  0.5811866783179 1.0
C      1  0.3436625265294  0.6528743495490  0.6199115212338 1.0
C      1  0.5094896621427  0.6216373290133  0.3791615912605 1.0
C      1  0.5178275311758  0.7147853758083  0.5987874863706 1.0
C      1  0.4171295108425  0.5264764305116  0.6856060878984 1.0
C      1  0.3616291578273  0.6369986739397  0.4612774103343 1.0
C      1  0.3398990636222  0.5497859504943  0.4221399089054 1.0
C      1  0.6954686041015  0.4359554465258  0.3947752196598 1.0
C      1  0.4080692311061  0.6196968708680  0.6775601388693 1.0
C      1  0.4459071570808  0.2889707822971  0.3868702152059 1.0
C      1  0.5895101039327  0.7039392497364  0.5390977909861 1.0
C      1  0.4104509812908  0.4377968350160  0.3146213935865 1.0
C      1  0.5623517436694  0.5806601823298  0.6712894309540 1.0
C      1  0.4983627881607  0.6539849302531  0.6670827565735 1.0
C      1  0.4857687712186  0.2625329065451  0.4553249231832 1.0
C      1  0.4255639828516  0.3775384004905  0.6509144170050 1.0
C      1  0.5151951650418  0.4069543933080  0.6559507678075 1.0
C      1  0.6984554145355  0.5041245186807  0.6309664339809 1.0
C      1  0.7175056744695  0.5189699236313  0.4294328826657 1.0
C      1  0.5674132329760  0.5630893622667  0.4346838272905 1.0
C      1  0.3329874030266  0.3842443356499  0.4419292661231 1.0
C      1  0.5326350955508  0.4888021005670  0.4680226514183 1.0
C      1  0.3651209391093  0.4547706423898  0.6477319758144 1.0
C      1  0.3809913776184  0.5267253083649  0.3391156748443 1.0
C      1  0.5116614787697  0.4999426436317  0.6843437559576 1.0
C      1  0.7144875006366  0.4244542941128  0.6117947150266 1.0
C      1  0.6664766090850  0.5824586550900  0.4636529500434 1.0
C      1  0.5170102683925  0.6465871632918  0.2857435518903 1.0
C      1  0.5015799139577  0.7176523376954  0.5049718144537 1.0
C      1  0.3200197972580  0.6657324783060  0.5414179554612 1.0
C      1  0.6563163956324  0.6381421528661  0.5440688201198 1.0
C      1  0.4588416502235  0.5686987969005  0.2961356598118 1.0
C      1  0.6551028420060  0.3816934470461  0.4662577378837 1.0
C      1  0.5767067484539  0.4416015450760  0.2796637682517 1.0
C      1  0.4906562392167  0.4722995942192  0.2726763817066 1.0
C      1  0.5632775048466  0.3569850743045  0.5808265338899 1.0
C      1  0.4946493137725  0.2860247903663  0.5448977120822 1.0
C      1  0.3170043521358  0.4421086698288  0.5676488555051 1.0
C      1  0.3106085114963  0.4749399861386  0.4730450509237 1.0
C      1  0.6657125742801  0.3637835777074  0.5600276811897 1.0
C      1  0.5675441315981  0.4107228767269  0.4940742024094 1.0
END
