TITL C-27442-2732-14 -0.651 3375.00 -95.32584146 0 0 13 (C1) n - 1
REM
REM Run started: at 2020.12.26 15:52:59 in /rds/project/t2_vol4/rds-t2-cs072/BORA/CARBON/AIRSS/Generating-Clusters/Str-Search/Only-C1/C10-100
REM VASP from code version vasp.5.4.4.18Apr17-6-g9f103f2a35 (build Oct 11 2019 16:45:47) gamma-only
REM
REM
REM
REM
REM ./C.cell (67c5d0192afd7a3ce4a0888e5fe73b87)
REM AIRSS Version 0.9.1 bugfix July 2018 build 013d7b7c2542+ Fri, 06 Jul 2018 19:26:36 +0100
REM compiler GCC version 4.8.5 20150623 (Red Hat 4.8.5-39)
REM options -cpp -mtune=generic -march=x86-64 -g -O0
REM seed 1865687213 -486790623 190964416 1438765768 -1196044658 840192558 46529120 -1801802917 1378429301 -1101810880 571003454 1093354758
REM
REM C.POTCAR (d86ddea03c3ceb6dc662c8ad6801f873)
REM 
CELL 1.54180   15.00000   15.00000   15.00000   90.00000   90.00000   90.00000
LATT -1
SFAC C  
C      1  0.3448187157568  0.4088141556796  0.5007281643837 1.0
C      1  0.6711885183405  0.5518655766309  0.4876546530244 1.0
C      1  0.5612246424258  0.4032826252008  0.6091433033054 1.0
C      1  0.4926258947207  0.4223921784947  0.5522253264533 1.0
C      1  0.6240596221326  0.3923637497301  0.6659631348930 1.0
C      1  0.4973983219225  0.5011378706822  0.4899430282795 1.0
C      1  0.3368101925846  0.4780891059648  0.4446353067094 1.0
C      1  0.5940342694292  0.7111098458544  0.4311416487107 1.0
C      1  0.4085547579691  0.3758570014169  0.5461870844243 1.0
C      1  0.6201406051217  0.6302269427589  0.4572718210103 1.0
C      1  0.5796170801490  0.5451655664180  0.4822163904012 1.0
C      1  0.4215108794064  0.5265310560713  0.4425470261814 1.0
C      1  0.3480164000410  0.5531643250973  0.3903431122236 1.0
END
