TITL C-27557-7392-30 -3.156 3375.00 -539.60495048 0 0 66 (C1) n - 1
REM
REM Run started: at 2020.12.26 22:19:52 in /rds/project/t2_vol4/rds-t2-cs072/BORA/CARBON/AIRSS/Generating-Clusters/Str-Search/Only-C1/C10-100
REM VASP from code version vasp.5.4.4.18Apr17-6-g9f103f2a35 (build Oct 11 2019 16:45:47) gamma-only
REM
REM
REM
REM
REM ./C.cell (67c5d0192afd7a3ce4a0888e5fe73b87)
REM AIRSS Version 0.9.1 bugfix July 2018 build 013d7b7c2542+ Fri, 06 Jul 2018 19:26:36 +0100
REM compiler GCC version 4.8.5 20150623 (Red Hat 4.8.5-39)
REM options -cpp -mtune=generic -march=x86-64 -g -O0
REM seed 768143127 1770561328 1597758675 -1395648665 1115552083 -269396256 1042575712 -1333542846 417755992 1399809080 564294892 -2121227810
REM
REM C.POTCAR (d86ddea03c3ceb6dc662c8ad6801f873)
REM 
CELL 1.54180   15.00000   15.00000   15.00000   90.00000   90.00000   90.00000
LATT -1
SFAC C  
C      1  0.6154634584909  0.3540980484477  0.6432502829197 1.0
C      1  0.5761271713727  0.5065935772745  0.2515495377851 1.0
C      1  0.4306628887896  0.7342417694830  0.5542486177593 1.0
C      1  0.4833403888872  0.3189427146702  0.7286533940768 1.0
C      1  0.7597769986140  0.6501818667549  0.3576383297754 1.0
C      1  0.2918861292491  0.4438313213205  0.5952977949588 1.0
C      1  0.3671524853349  0.4186361984306  0.7383883407027 1.0
C      1  0.2988764798792  0.5192477161513  0.5255878381098 1.0
C      1  0.3131278540048  0.4712116034962  0.3559641633584 1.0
C      1  0.7044114012752  0.5494393845079  0.6892359277056 1.0
C      1  0.7249340654890  0.6085619897825  0.6335559471387 1.0
C      1  0.3901845045175  0.3291039129771  0.7123647350975 1.0
C      1  0.3284478196542  0.6117541036104  0.4076559857002 1.0
C      1  0.4104802347525  0.3524837991719  0.3328155506102 1.0
C      1  0.5860861288634  0.6770736000020  0.3889429690989 1.0
C      1  0.5355509072056  0.5012268086084  0.5987517620453 1.0
C      1  0.6665888583553  0.7070133000127  0.4999800192780 1.0
C      1  0.5741746810109  0.6569939710965  0.6197850035653 1.0
C      1  0.6883917960016  0.3101166233285  0.5931965285434 1.0
C      1  0.3222112873801  0.3553305237641  0.5656981816303 1.0
C      1  0.4734829865088  0.4930429073826  0.5208840059467 1.0
C      1  0.5440997042697  0.5711634234338  0.6732505713283 1.0
C      1  0.3790387749123  0.4613804324923  0.5222899235431 1.0
C      1  0.3768592081256  0.6957431370140  0.3898885907413 1.0
C      1  0.7172487768591  0.5874530420637  0.3117415365211 1.0
C      1  0.5747293466475  0.4216290736472  0.5822575335353 1.0
C      1  0.6212379225314  0.5029281412854  0.3961532201105 1.0
C      1  0.5198649079454  0.4020098287104  0.7608308578376 1.0
C      1  0.6670694221960  0.6627476902567  0.5864896153508 1.0
C      1  0.5323989649423  0.4213849783078  0.2643635448495 1.0
C      1  0.5833267747670  0.4221431590826  0.4150644016255 1.0
C      1  0.6487772158306  0.3002156599762  0.3582021443421 1.0
C      1  0.7037643529235  0.2838557020312  0.5161043362888 1.0
C      1  0.3712813894589  0.7428935548105  0.4811879356382 1.0
C      1  0.6884794087096  0.6848867177680  0.4065882984879 1.0
C      1  0.5288735428494  0.4067513710085  0.4947757449144 1.0
C      1  0.3664568255116  0.3718450603293  0.4777112170842 1.0
C      1  0.4625636312449  0.3271298882573  0.4820785626622 1.0
C      1  0.3362586172186  0.3829870533557  0.3833417787695 1.0
C      1  0.3804583725397  0.4990088623919  0.2821782821104 1.0
C      1  0.4482274649701  0.4671870878251  0.7645100497545 1.0
C      1  0.5777850839287  0.7303067077919  0.4817396658851 1.0
C      1  0.5665722167753  0.3547851187278  0.3412653779922 1.0
C      1  0.6593322246497  0.5200182543028  0.3048093593084 1.0
C      1  0.3767025650552  0.3020766247242  0.6207999164784 1.0
C      1  0.4325657172885  0.6759632364518  0.3079426468650 1.0
C      1  0.6070133842401  0.4183449581097  0.7298117891581 1.0
C      1  0.2772446277838  0.5327202897124  0.4212120345233 1.0
C      1  0.5198374191501  0.5821368142633  0.2518140227219 1.0
C      1  0.4386882547217  0.4208314053725  0.2696807929313 1.0
C      1  0.6908876971176  0.2779021223865  0.4264099560412 1.0
C      1  0.4236612762665  0.5817047184826  0.2639821434112 1.0
C      1  0.3176413031595  0.4751720397028  0.6827564848505 1.0
C      1  0.4630015064430  0.2822186306467  0.5768350420582 1.0
C      1  0.5222838435455  0.7139358579281  0.5600097113942 1.0
C      1  0.4146324365502  0.6137951425414  0.4320970749089 1.0
C      1  0.6273879136820  0.5108118546413  0.7178510978490 1.0
C      1  0.4877506953496  0.5685161588511  0.4610659131891 1.0
C      1  0.3634075548771  0.5598112656341  0.6702413307928 1.0
C      1  0.5279798355311  0.2967265613939  0.6467137959854 1.0
C      1  0.3504348901710  0.6862935238972  0.5592789844117 1.0
C      1  0.5722649101498  0.5807954149124  0.4241284457400 1.0
C      1  0.3319454498030  0.5987887275124  0.5868272708214 1.0
C      1  0.4509082532517  0.5507552684719  0.7155269563325 1.0
C      1  0.5273544452655  0.6686012616529  0.3055684380361 1.0
C      1  0.4803434451539  0.3125183375674  0.3791781870131 1.0
END
