TITL C-27430-8044-21 -1.298 3375.00 -204.61550686 0 0 26 (C1) n - 1
REM
REM Run started: at 2020.12.26 17:51:12 in /rds/project/t2_vol4/rds-t2-cs072/BORA/CARBON/AIRSS/Generating-Clusters/Str-Search/Only-C1/C10-100
REM VASP from code version vasp.5.4.4.18Apr17-6-g9f103f2a35 (build Oct 11 2019 16:45:47) gamma-only
REM
REM
REM
REM
REM ./C.cell (67c5d0192afd7a3ce4a0888e5fe73b87)
REM AIRSS Version 0.9.1 bugfix July 2018 build 013d7b7c2542+ Fri, 06 Jul 2018 19:26:36 +0100
REM compiler GCC version 4.8.5 20150623 (Red Hat 4.8.5-39)
REM options -cpp -mtune=generic -march=x86-64 -g -O0
REM seed 740589522 -1113516994 -2048646354 1718198408 -2057633348 -521303462 -320856615 1586245625 1849349284 1338485287 -1092731293 643672769
REM
REM C.POTCAR (d86ddea03c3ceb6dc662c8ad6801f873)
REM 
CELL 1.54180   15.00000   15.00000   15.00000   90.00000   90.00000   90.00000
LATT -1
SFAC C  
C      1  0.5501740406025  0.5978728036851  0.4563982815516 1.0
C      1  0.5680841389201  0.4820662966148  0.3143090854993 1.0
C      1  0.3768346472965  0.5685884692220  0.6558147981927 1.0
C      1  0.5207586181059  0.5268837771712  0.7312606475637 1.0
C      1  0.3924721957644  0.3665074091697  0.4255867303403 1.0
C      1  0.4777226382522  0.7514871326359  0.5359019847795 1.0
C      1  0.4344955700847  0.6699479691416  0.5469982764659 1.0
C      1  0.6336551630959  0.5482686868609  0.4509953311502 1.0
C      1  0.6318416180803  0.4809995495402  0.3770556522222 1.0
C      1  0.4828527742961  0.5054706788245  0.3344761473413 1.0
C      1  0.3950709435977  0.4259583690576  0.5059524912064 1.0
C      1  0.4380135527302  0.5563795132259  0.7112854115149 1.0
C      1  0.3999799660123  0.4691192009938  0.2927898950495 1.0
C      1  0.5704027812885  0.3566433166536  0.4826552397363 1.0
C      1  0.6550894349227  0.4826252513749  0.5198079392310 1.0
C      1  0.6063648808352  0.4606996261043  0.6011037099961 1.0
C      1  0.5501311386020  0.3893217913850  0.5717628425046 1.0
C      1  0.3821425387149  0.4035842270796  0.3426259601348 1.0
C      1  0.6365994548705  0.4147352563290  0.4491724366755 1.0
C      1  0.4064120475954  0.5237683401060  0.4936185850504 1.0
C      1  0.3917865287755  0.5867578558370  0.5630116154344 1.0
C      1  0.4730713889155  0.5448513799994  0.4246493271802 1.0
C      1  0.4536333178532  0.3709836262857  0.5623368149805 1.0
C      1  0.4718820121540  0.3386910319518  0.4699081610127 1.0
C      1  0.5818043900088  0.5068932393926  0.6773860257247 1.0
C      1  0.5187241186249  0.6708951013579  0.5031367094613 1.0
END
