TITL C-27557-7392-23 -3.586 3375.00 -601.00628582 0 0 74 (C1) n - 1
REM
REM Run started: at 2020.12.26 19:15:20 in /rds/project/t2_vol4/rds-t2-cs072/BORA/CARBON/AIRSS/Generating-Clusters/Str-Search/Only-C1/C10-100
REM VASP from code version vasp.5.4.4.18Apr17-6-g9f103f2a35 (build Oct 11 2019 16:45:47) gamma-only
REM
REM
REM
REM
REM ./C.cell (67c5d0192afd7a3ce4a0888e5fe73b87)
REM AIRSS Version 0.9.1 bugfix July 2018 build 013d7b7c2542+ Fri, 06 Jul 2018 19:26:36 +0100
REM compiler GCC version 4.8.5 20150623 (Red Hat 4.8.5-39)
REM options -cpp -mtune=generic -march=x86-64 -g -O0
REM seed -746854063 189720923 -1351772146 1609777638 -656832220 1938462112 -125347309 675395577 1592404 1900343038 -1309680395 767385087
REM
REM C.POTCAR (d86ddea03c3ceb6dc662c8ad6801f873)
REM 
CELL 1.54180   15.00000   15.00000   15.00000   90.00000   90.00000   90.00000
LATT -1
SFAC C  
C      1  0.5743242149401  0.4926163616730  0.4324307729805 1.0
C      1  0.3359891795919  0.2377118147952  0.3875736794520 1.0
C      1  0.3556410599157  0.4686506995067  0.2744064472964 1.0
C      1  0.6718716058532  0.6383739679537  0.5910388546437 1.0
C      1  0.3839299915364  0.2024704062643  0.4573360120915 1.0
C      1  0.6072869094348  0.7032589448192  0.5528365430203 1.0
C      1  0.7628688486950  0.4409727398816  0.5716113551762 1.0
C      1  0.4910936070746  0.2590675653994  0.5732379126837 1.0
C      1  0.7153641079520  0.3742089201879  0.4366338237055 1.0
C      1  0.5742758208327  0.6003870378533  0.7245781071010 1.0
C      1  0.6504830984696  0.4825441795891  0.1880405316865 1.0
C      1  0.3337021266816  0.3910554933947  0.6200301045569 1.0
C      1  0.7252158388851  0.4875424109299  0.2498734712134 1.0
C      1  0.2316343711291  0.5859586130252  0.5902283637599 1.0
C      1  0.4143074086298  0.5780082029643  0.4505065568292 1.0
C      1  0.4264517466195  0.5174430837108  0.7618623091314 1.0
C      1  0.4017160427881  0.3655792111908  0.6834986523766 1.0
C      1  0.3389220287988  0.3249858258177  0.3718871361654 1.0
C      1  0.4088017396571  0.6507787129684  0.6825866079298 1.0
C      1  0.5120524637616  0.4397440790075  0.3687117908760 1.0
C      1  0.3621232977194  0.5754067342523  0.7188220050849 1.0
C      1  0.7600154289313  0.4730383643096  0.6584100976095 1.0
C      1  0.6195270400334  0.3642289665193  0.5675604039813 1.0
C      1  0.4441335437562  0.7131801902222  0.3928238510820 1.0
C      1  0.7154605745046  0.3675550216955  0.5360911378212 1.0
C      1  0.2821802006974  0.5477408949525  0.6701741337816 1.0
C      1  0.6298650176277  0.3616516786803  0.2928782515031 1.0
C      1  0.5518211153909  0.4148445398815  0.2796335096967 1.0
C      1  0.5313965774264  0.6875616704405  0.3861383362658 1.0
C      1  0.6900728317611  0.4022697038681  0.2321705326629 1.0
C      1  0.5654425030842  0.3019453903054  0.4298583166849 1.0
C      1  0.4310240116566  0.2009149282566  0.5267333672983 1.0
C      1  0.5351822255861  0.4300018762128  0.7476956474041 1.0
C      1  0.4000683736142  0.3614254683240  0.4567643419355 1.0
C      1  0.2413654230384  0.6625111403341  0.5365243767401 1.0
C      1  0.7515180728511  0.4635498851213  0.4164418759955 1.0
C      1  0.3124809059403  0.7271104493748  0.5492923432645 1.0
C      1  0.7601122753230  0.5088667543766  0.5012509185661 1.0
C      1  0.6464362980905  0.3325043092833  0.3839665768629 1.0
C      1  0.3743233086111  0.8047754705937  0.5704300588315 1.0
C      1  0.4114103593126  0.5261016592546  0.2497766362820 1.0
C      1  0.6349688325943  0.5591692187678  0.3740395017786 1.0
C      1  0.5352255058474  0.7255330479932  0.6069628383620 1.0
C      1  0.3902126136408  0.6782721780722  0.5894742544492 1.0
C      1  0.5544615306056  0.3927577997985  0.6528625222754 1.0
C      1  0.7245788238226  0.5346570622002  0.6996733766200 1.0
C      1  0.5658672449407  0.2914096022241  0.5245913069334 1.0
C      1  0.5607818616957  0.4888669107094  0.2188517938316 1.0
C      1  0.6599689625285  0.6004532569448  0.6817681694836 1.0
C      1  0.5259754234948  0.5271418185955  0.7631007776703 1.0
C      1  0.6024152906255  0.6923778057230  0.4549541666315 1.0
C      1  0.2446757506530  0.4474173952820  0.3902551997694 1.0
C      1  0.5414320984870  0.5985796090296  0.3341237247919 1.0
C      1  0.4877733934868  0.5322289662362  0.4004019839237 1.0
C      1  0.3051392030045  0.4107831390350  0.3310525646219 1.0
C      1  0.4901803258137  0.5651029005881  0.5992993908016 1.0
C      1  0.7177339606126  0.5124799567523  0.3395617868342 1.0
C      1  0.5809105613517  0.4546446151928  0.5224458259628 1.0
C      1  0.5000558838797  0.5599707733555  0.2464190849215 1.0
C      1  0.4790893171110  0.3257799268634  0.6396062691375 1.0
C      1  0.2907395188929  0.6882844506830  0.4605904856956 1.0
C      1  0.5085953761325  0.6466747291306  0.6680046314479 1.0
C      1  0.2190587994798  0.4671371548477  0.4676768949926 1.0
C      1  0.4879126732758  0.3579569893210  0.4169660602092 1.0
C      1  0.3714923610339  0.6607865013055  0.4115525568957 1.0
C      1  0.6653506936926  0.6250327244483  0.4400945389299 1.0
C      1  0.4264764153711  0.5963489807048  0.5395757367506 1.0
C      1  0.2224701121550  0.4976899726709  0.5530217374211 1.0
C      1  0.4369355752697  0.4213378137245  0.7503286258216 1.0
C      1  0.4531652488101  0.7615013784226  0.5773052530372 1.0
C      1  0.7177002487752  0.5953603726790  0.5158193597001 1.0
C      1  0.5349793430625  0.4801915299431  0.5944981855555 1.0
C      1  0.2701028256525  0.4598998456620  0.6305683816674 1.0
C      1  0.3616826279976  0.3756281059012  0.5322073610458 1.0
END
