TITL C-27557-7392-9 -0.637 3375.00 -100.70130383 0 0 14 (C1) n - 1
REM
REM Run started: at 2020.12.26 14:45:24 in /rds/project/t2_vol4/rds-t2-cs072/BORA/CARBON/AIRSS/Generating-Clusters/Str-Search/Only-C1/C10-100
REM VASP from code version vasp.5.4.4.18Apr17-6-g9f103f2a35 (build Oct 11 2019 16:45:47) gamma-only
REM
REM
REM
REM
REM ./C.cell (67c5d0192afd7a3ce4a0888e5fe73b87)
REM AIRSS Version 0.9.1 bugfix July 2018 build 013d7b7c2542+ Fri, 06 Jul 2018 19:26:36 +0100
REM compiler GCC version 4.8.5 20150623 (Red Hat 4.8.5-39)
REM options -cpp -mtune=generic -march=x86-64 -g -O0
REM seed 885259557 -1829800454 -1160220213 -1540906314 1121889741 -1435259264 -722863911 2047038035 -1480377372 1601049686 619957061 1895239515
REM
REM C.POTCAR (d86ddea03c3ceb6dc662c8ad6801f873)
REM 
CELL 1.54180   15.00000   15.00000   15.00000   90.00000   90.00000   90.00000
LATT -1
SFAC C  
C      1  0.4062737293735  0.3613118590596  0.4100580871960 1.0
C      1  0.5848143992233  0.7034955264647  0.6251037987537 1.0
C      1  0.4249041202441  0.5078411526948  0.6152292676237 1.0
C      1  0.4718808304000  0.3059660438102  0.3607624522107 1.0
C      1  0.5520191460918  0.6270901821683  0.5781315517169 1.0
C      1  0.5051634204001  0.4094447997662  0.3712346138244 1.0
C      1  0.6236056231918  0.6746595034110  0.5353024768655 1.0
C      1  0.6569264079648  0.7514113598923  0.5829312886807 1.0
C      1  0.4625909986447  0.4260411282059  0.4603277024553 1.0
C      1  0.4972491471092  0.5573336902882  0.5732486412937 1.0
C      1  0.3649118054301  0.4856362259143  0.6752019274941 1.0
C      1  0.5617356069616  0.3217632337105  0.3722409190708 1.0
C      1  0.4643350317423  0.4831015158756  0.5278101345789 1.0
C      1  0.4235899332229  0.3849036787384  0.3124171382357 1.0
END
