TITL C-27442-2732-15 -3.194 3375.00 -524.60727595 0 0 64 (C1) n - 1
REM
REM Run started: at 2020.12.26 16:17:40 in /rds/project/t2_vol4/rds-t2-cs072/BORA/CARBON/AIRSS/Generating-Clusters/Str-Search/Only-C1/C10-100
REM VASP from code version vasp.5.4.4.18Apr17-6-g9f103f2a35 (build Oct 11 2019 16:45:47) gamma-only
REM
REM
REM
REM
REM ./C.cell (67c5d0192afd7a3ce4a0888e5fe73b87)
REM AIRSS Version 0.9.1 bugfix July 2018 build 013d7b7c2542+ Fri, 06 Jul 2018 19:26:36 +0100
REM compiler GCC version 4.8.5 20150623 (Red Hat 4.8.5-39)
REM options -cpp -mtune=generic -march=x86-64 -g -O0
REM seed 840041402 -994965628 149295369 1678270148 1755646688 -473943650 -985335149 901705575 -1461402674 761291350 -616667694 -1781770747
REM
REM C.POTCAR (d86ddea03c3ceb6dc662c8ad6801f873)
REM 
CELL 1.54180   15.00000   15.00000   15.00000   90.00000   90.00000   90.00000
LATT -1
SFAC C  
C      1  0.5789197811434  0.3362341506749  0.7013735042256 1.0
C      1  0.5767121783672  0.3231774123146  0.3519797031829 1.0
C      1  0.3909174118055  0.1978378870299  0.5461120743930 1.0
C      1  0.5925171996256  0.6241727906817  0.4542633554916 1.0
C      1  0.5384253262350  0.2466213000935  0.4012997718996 1.0
C      1  0.4499674098142  0.2288786543944  0.4021963162648 1.0
C      1  0.5298554844933  0.3908381704378  0.7397026268339 1.0
C      1  0.5920436068358  0.7878365943603  0.5452127242645 1.0
C      1  0.3516919387254  0.3774509631841  0.3677630144916 1.0
C      1  0.5213167893447  0.3820460294032  0.2951576949203 1.0
C      1  0.6825631632247  0.5809509214226  0.6387496755857 1.0
C      1  0.6889635572269  0.4358626875532  0.4376969390173 1.0
C      1  0.3938008669500  0.8004151449655  0.6812906528638 1.0
C      1  0.3601921881178  0.3456296403979  0.6184106974285 1.0
C      1  0.4338430732937  0.6892219226467  0.4435828459179 1.0
C      1  0.6350629808386  0.6149924696485  0.7111365112167 1.0
C      1  0.7011529794926  0.5256757885710  0.4122435495202 1.0
C      1  0.3837540944305  0.4245479993387  0.6689303067804 1.0
C      1  0.4278010371126  0.3980443774682  0.2995760829011 1.0
C      1  0.6535742401125  0.3525735388458  0.4024410872616 1.0
C      1  0.5252229620420  0.8060653768649  0.4998078282299 1.0
C      1  0.6889348704847  0.4281177984461  0.5380717338975 1.0
C      1  0.6163300312286  0.7116319026360  0.6904332887756 1.0
C      1  0.6124090378111  0.2946687083921  0.6256922507645 1.0
C      1  0.5425522090961  0.6092336657544  0.7342416692213 1.0
C      1  0.6931020549432  0.6527321009878  0.5740783973026 1.0
C      1  0.2700682796369  0.3251011889881  0.3603989082610 1.0
C      1  0.3366136018193  0.5266384102433  0.4514487572671 1.0
C      1  0.4706364403535  0.2092867704632  0.5964798723256 1.0
C      1  0.4563840486329  0.7620303000763  0.7216021565099 1.0
C      1  0.5293102562669  0.7089310469640  0.7322734830828 1.0
C      1  0.5763285797363  0.4512292351473  0.2603473930777 1.0
C      1  0.4771236986522  0.5463170638350  0.7045102434993 1.0
C      1  0.3275407195782  0.4704833825899  0.5299455360335 1.0
C      1  0.1986791937123  0.2772077082396  0.3644239017886 1.0
C      1  0.4372246296659  0.7809063075045  0.4691310996628 1.0
C      1  0.4423971097622  0.6082193415970  0.5489511685568 1.0
C      1  0.5068984314969  0.6886305080512  0.2355606410362 1.0
C      1  0.3802228884995  0.2343719707686  0.4576252167703 1.0
C      1  0.5597465625151  0.2274470717880  0.5770344213842 1.0
C      1  0.5107957585834  0.6413743154836  0.4890965436918 1.0
C      1  0.3899326898649  0.2559692479018  0.6203897244960 1.0
C      1  0.6576689088354  0.2931401063273  0.4795265711615 1.0
C      1  0.4002881655102  0.5594564637393  0.2319045702796 1.0
C      1  0.5889969999979  0.2306446661769  0.4835883971276 1.0
C      1  0.6455526707800  0.7333531431351  0.6015366999960 1.0
C      1  0.4404586631740  0.6306771915539  0.2188840131128 1.0
C      1  0.4622588696882  0.4520305774484  0.7189121080174 1.0
C      1  0.3340795999903  0.3221855634576  0.4512365373084 1.0
C      1  0.3246620716226  0.3746792338560  0.5327964582289 1.0
C      1  0.5626582673333  0.6865690426291  0.2982374327692 1.0
C      1  0.3821664633182  0.6089673528105  0.4713423315239 1.0
C      1  0.3683295203563  0.8199945159876  0.5202255439077 1.0
C      1  0.3600628746982  0.8272436768091  0.6035790369842 1.0
C      1  0.6655824863537  0.5651127304991  0.3342374477783 1.0
C      1  0.3851350315374  0.4864213941204  0.2854356781919 1.0
C      1  0.6344223198492  0.5096265498428  0.2633400705079 1.0
C      1  0.3574877431991  0.4987536789357  0.6158510970327 1.0
C      1  0.3412959617798  0.4781072310615  0.3694157765098 1.0
C      1  0.6771092938646  0.5133816274092  0.5703298138333 1.0
C      1  0.6138355483542  0.6418647753595  0.3597916221898 1.0
C      1  0.6723431884675  0.3363351208523  0.5628639813458 1.0
C      1  0.4197405929929  0.5701456929281  0.6304310857428 1.0
C      1  0.6743354967247  0.5817079989054  0.4958705563545 1.0
END
