TITL C-27430-8044-23 -4.309 3375.00 -753.15352820 0 0 92 (C1) n - 1
REM
REM Run started: at 2020.12.26 19:35:05 in /rds/project/t2_vol4/rds-t2-cs072/BORA/CARBON/AIRSS/Generating-Clusters/Str-Search/Only-C1/C10-100
REM VASP from code version vasp.5.4.4.18Apr17-6-g9f103f2a35 (build Oct 11 2019 16:45:47) gamma-only
REM
REM
REM
REM
REM ./C.cell (67c5d0192afd7a3ce4a0888e5fe73b87)
REM AIRSS Version 0.9.1 bugfix July 2018 build 013d7b7c2542+ Fri, 06 Jul 2018 19:26:36 +0100
REM compiler GCC version 4.8.5 20150623 (Red Hat 4.8.5-39)
REM options -cpp -mtune=generic -march=x86-64 -g -O0
REM seed 1125242908 876375265 645408990 -565704045 1927293568 -1836292095 1198083954 1760044589 -546940303 726545553 -1980778547 -2099636641
REM
REM C.POTCAR (d86ddea03c3ceb6dc662c8ad6801f873)
REM 
CELL 1.54180   15.00000   15.00000   15.00000   90.00000   90.00000   90.00000
LATT -1
SFAC C  
C      1  0.7730998199174  0.3580930683390  0.5693541843251 1.0
C      1  0.6306743519753  0.2381911523456  0.4345401046521 1.0
C      1  0.5983080378020  0.6875893716051  0.3330924584526 1.0
C      1  0.2115253098446  0.5187790117184  0.4952385478385 1.0
C      1  0.6100577771791  0.3796682105053  0.3753107018565 1.0
C      1  0.6740927201109  0.4750546962773  0.2736200534099 1.0
C      1  0.5966325160320  0.4976987484668  0.7741321055523 1.0
C      1  0.3142888103599  0.7267250752182  0.5180990305741 1.0
C      1  0.6716795089919  0.2989351252394  0.3708806846842 1.0
C      1  0.3021683230299  0.6813315644683  0.4314185164146 1.0
C      1  0.5292473815346  0.6472454151650  0.6907224878743 1.0
C      1  0.3679068800176  0.7181913521214  0.3713790204997 1.0
C      1  0.4033351834923  0.4779635117653  0.3400296184482 1.0
C      1  0.7817545381504  0.3821998147967  0.4778279358193 1.0
C      1  0.3817312394440  0.3112618029496  0.3932535221395 1.0
C      1  0.2574482018547  0.5276851210421  0.6497060716484 1.0
C      1  0.6887836924051  0.6101277405760  0.4571704737211 1.0
C      1  0.2673105451105  0.6233121944902  0.6521386930212 1.0
C      1  0.6026253057800  0.4721444197503  0.5280711347708 1.0
C      1  0.5010284099166  0.5078092871578  0.7793635606917 1.0
C      1  0.4151948351454  0.4613531513887  0.6053033836050 1.0
C      1  0.3876590229413  0.6294194557171  0.7618049501360 1.0
C      1  0.6175658972669  0.2872782468764  0.6070733650886 1.0
C      1  0.4178885006870  0.5181156049008  0.4342574972138 1.0
C      1  0.3292187257226  0.4550480417759  0.6578428617871 1.0
C      1  0.5990916461283  0.2478723196167  0.5246908600219 1.0
C      1  0.3250185660369  0.2915510610915  0.4628448198245 1.0
C      1  0.5237982316951  0.3845576981156  0.4209683158257 1.0
C      1  0.4882402696099  0.6330524461161  0.5315719545024 1.0
C      1  0.4701175434153  0.6093411712843  0.2677875093804 1.0
C      1  0.4800276978579  0.2924729387915  0.3910895932871 1.0
C      1  0.6454313531031  0.7649301454123  0.4689031783721 1.0
C      1  0.6387513050443  0.7532327441509  0.5643190430973 1.0
C      1  0.5395333040666  0.2334559810518  0.4489264232348 1.0
C      1  0.6700477846339  0.6753495796314  0.6058528984067 1.0
C      1  0.2205308092181  0.4298452239882  0.4527792909150 1.0
C      1  0.7135089034017  0.5030751778917  0.6686176684488 1.0
C      1  0.4746486802995  0.3693160136049  0.5974507882646 1.0
C      1  0.3381014292782  0.3148654265371  0.6754456294694 1.0
C      1  0.4122466843773  0.7890969486571  0.4252944530939 1.0
C      1  0.7203477321144  0.6116536388432  0.5479558417409 1.0
C      1  0.6362160720439  0.4675946149972  0.6105209720761 1.0
C      1  0.4581404357696  0.4179441935669  0.7654265348908 1.0
C      1  0.6407330773958  0.5229091355636  0.4372309197638 1.0
C      1  0.2514390547231  0.6077056087998  0.4824931545212 1.0
C      1  0.2652490515659  0.6591579927367  0.5650124500043 1.0
C      1  0.6197805631352  0.4068375389182  0.7601912246483 1.0
C      1  0.4396479278768  0.6878451410003  0.3093716493627 1.0
C      1  0.3703489816020  0.3803935241656  0.3177224267576 1.0
C      1  0.5400248127154  0.3237550324621  0.6584043057884 1.0
C      1  0.4325940616055  0.5211930195789  0.2534646426023 1.0
C      1  0.2729102762124  0.3883732756749  0.2985955670339 1.0
C      1  0.5168278528760  0.4166227500987  0.5159564839777 1.0
C      1  0.6083516480090  0.3279824924658  0.2887936579831 1.0
C      1  0.3693998704951  0.3943971188324  0.7336546775071 1.0
C      1  0.5019962645382  0.8057435334574  0.3995385907614 1.0
C      1  0.3206551600895  0.6557327122131  0.7214135518684 1.0
C      1  0.1996072453511  0.5004067899254  0.5864049030022 1.0
C      1  0.3583440879488  0.2389066024947  0.5412081651702 1.0
C      1  0.6815145067066  0.4081618598837  0.6843421603762 1.0
C      1  0.5518609875127  0.8092961510230  0.5593842589019 1.0
C      1  0.6368944784684  0.3951973869797  0.2203266721740 1.0
C      1  0.3905549866089  0.7826438564510  0.5186938025274 1.0
C      1  0.7959433457912  0.4500184108196  0.5455116182358 1.0
C      1  0.3484140610475  0.2202972056385  0.6310522236281 1.0
C      1  0.6794431878402  0.4526668710106  0.3707022638104 1.0
C      1  0.5364776355862  0.3598652516503  0.7454147074154 1.0
C      1  0.3914677990911  0.3171665606071  0.5899572432091 1.0
C      1  0.4771809986448  0.4476273533688  0.2084005610805 1.0
C      1  0.4843997584324  0.6810943742311  0.6074304140631 1.0
C      1  0.2246043733489  0.4136237000087  0.3609327018019 1.0
C      1  0.7589137292770  0.5285394879608  0.5847520345605 1.0
C      1  0.6550714152128  0.5579830713384  0.7264674371591 1.0
C      1  0.5098824967101  0.3054688892156  0.2929663079125 1.0
C      1  0.6564614646522  0.6892082485311  0.4120439566083 1.0
C      1  0.5211010400489  0.7404605989114  0.3324314628003 1.0
C      1  0.5529291189971  0.5512600003290  0.3887781176456 1.0
C      1  0.6193962675471  0.5381831096827  0.2360974830970 1.0
C      1  0.2993439537146  0.3733940128643  0.5991650347331 1.0
C      1  0.2640663952487  0.3627437135935  0.5057846255139 1.0
C      1  0.4841235635541  0.5946705082031  0.4515405821484 1.0
C      1  0.4325826860086  0.4731720438784  0.5186186414026 1.0
C      1  0.5681315490106  0.8233189672214  0.4636562665138 1.0
C      1  0.7045062270728  0.3316938880492  0.6260426948032 1.0
C      1  0.5685843627343  0.6006339953850  0.2943760489323 1.0
C      1  0.4922153241986  0.4704511345402  0.3809234152753 1.0
C      1  0.5702156698880  0.4580756243941  0.1939690576036 1.0
C      1  0.6223538672203  0.6362915428981  0.6839268362695 1.0
C      1  0.4490521094308  0.3625324167089  0.2530193579779 1.0
C      1  0.7388339352221  0.3732539775307  0.3980384780557 1.0
C      1  0.4670240550365  0.7762840345120  0.5805963564451 1.0
C      1  0.4735204311898  0.5963308761868  0.7531244674889 1.0
END
