TITL C-27557-7392-17 -1.338 3375.00 -214.70849250 0 0 28 (C1) n - 1
REM
REM Run started: at 2020.12.26 17:08:10 in /rds/project/t2_vol4/rds-t2-cs072/BORA/CARBON/AIRSS/Generating-Clusters/Str-Search/Only-C1/C10-100
REM VASP from code version vasp.5.4.4.18Apr17-6-g9f103f2a35 (build Oct 11 2019 16:45:47) gamma-only
REM
REM
REM
REM
REM ./C.cell (67c5d0192afd7a3ce4a0888e5fe73b87)
REM AIRSS Version 0.9.1 bugfix July 2018 build 013d7b7c2542+ Fri, 06 Jul 2018 19:26:36 +0100
REM compiler GCC version 4.8.5 20150623 (Red Hat 4.8.5-39)
REM options -cpp -mtune=generic -march=x86-64 -g -O0
REM seed -970009430 -55522855 -1305365602 493418036 -1797043621 1480855608 240493267 -1058211769 1146587415 -774899203 1363835188 -1583102847
REM
REM C.POTCAR (d86ddea03c3ceb6dc662c8ad6801f873)
REM 
CELL 1.54180   15.00000   15.00000   15.00000   90.00000   90.00000   90.00000
LATT -1
SFAC C  
C      1  0.3781494029121  0.4288768167060  0.6458354335936 1.0
C      1  0.6075324427982  0.6211654849156  0.6564245473189 1.0
C      1  0.4821580310321  0.3681629483004  0.5712468856392 1.0
C      1  0.5369016000218  0.3979044320412  0.4932844504808 1.0
C      1  0.6154362329807  0.5486185743691  0.4710915714713 1.0
C      1  0.4761162090950  0.4104590721566  0.6636623627444 1.0
C      1  0.6516746842552  0.5485268307086  0.3833939715685 1.0
C      1  0.4549871519585  0.6157725506317  0.3777388586515 1.0
C      1  0.3944362195838  0.5811677931817  0.5944159746619 1.0
C      1  0.6372014332235  0.4203844110357  0.3899014136367 1.0
C      1  0.5863881654650  0.5473027328140  0.7012862704280 1.0
C      1  0.6191247246263  0.4538059442805  0.4830970579448 1.0
C      1  0.4313863552343  0.4679175629584  0.3132574515956 1.0
C      1  0.3540815609598  0.5162097250548  0.6420372638447 1.0
C      1  0.4576422463028  0.4610313174399  0.5072349174662 1.0
C      1  0.5547638882100  0.3737113696298  0.3942114136134 1.0
C      1  0.3683180312422  0.4333790471751  0.4671290329551 1.0
C      1  0.3926873011889  0.4091912259722  0.3774302011792 1.0
C      1  0.5477584967929  0.6054592358340  0.5191155045668 1.0
C      1  0.4849499260169  0.5369580189174  0.5716219987710 1.0
C      1  0.4649953642044  0.6387318742408  0.4672471444727 1.0
C      1  0.3868397440593  0.3891229196614  0.5512957755231 1.0
C      1  0.6837063535125  0.4846861407154  0.3345797242448 1.0
C      1  0.4469650245218  0.5582467920936  0.3175867944375 1.0
C      1  0.3844854720871  0.6370660884132  0.5189484499427 1.0
C      1  0.5274293347750  0.4928052960670  0.6618072039439 1.0
C      1  0.4766230783037  0.3868512651521  0.3399048019494 1.0
C      1  0.5972614246365  0.6664846295338  0.5852134233543 1.0
END
