TITL C-27557-7392-24 -1.274 3375.00 -193.51253840 0 0 25 (C1) n - 1
REM
REM Run started: at 2020.12.26 19:32:42 in /rds/project/t2_vol4/rds-t2-cs072/BORA/CARBON/AIRSS/Generating-Clusters/Str-Search/Only-C1/C10-100
REM VASP from code version vasp.5.4.4.18Apr17-6-g9f103f2a35 (build Oct 11 2019 16:45:47) gamma-only
REM
REM
REM
REM
REM ./C.cell (67c5d0192afd7a3ce4a0888e5fe73b87)
REM AIRSS Version 0.9.1 bugfix July 2018 build 013d7b7c2542+ Fri, 06 Jul 2018 19:26:36 +0100
REM compiler GCC version 4.8.5 20150623 (Red Hat 4.8.5-39)
REM options -cpp -mtune=generic -march=x86-64 -g -O0
REM seed -1976148011 1614519117 1153124195 -229463793 1399850546 -2075804228 -2029584486 1795408005 2128568576 -1692208514 66805635 -1636527580
REM
REM C.POTCAR (d86ddea03c3ceb6dc662c8ad6801f873)
REM 
CELL 1.54180   15.00000   15.00000   15.00000   90.00000   90.00000   90.00000
LATT -1
SFAC C  
C      1  0.6117399625377  0.4159179327576  0.4406555278320 1.0
C      1  0.6404923071092  0.5045759064132  0.4725546856240 1.0
C      1  0.3929587716792  0.4596025134335  0.4256068264440 1.0
C      1  0.4416782706555  0.3710087590132  0.5733995310848 1.0
C      1  0.3138838620393  0.6049710955330  0.4789776459603 1.0
C      1  0.6854480597726  0.6642442876983  0.4177877683393 1.0
C      1  0.4936954980103  0.5790795863269  0.2321230794853 1.0
C      1  0.4855509969941  0.5254272406806  0.2982907836687 1.0
C      1  0.4037016249489  0.3814624754478  0.4810588700540 1.0
C      1  0.6280104663829  0.3732810453961  0.5329349715891 1.0
C      1  0.4363239042709  0.6993547460170  0.6435355236044 1.0
C      1  0.5959227303926  0.2995921674145  0.5813830260192 1.0
C      1  0.4814270808426  0.3345496350221  0.4532674163635 1.0
C      1  0.5031760369323  0.6518803629687  0.6739512626751 1.0
C      1  0.6203137142381  0.4648004868562  0.5605170158028 1.0
C      1  0.5471787715623  0.4913106524162  0.6246477188338 1.0
C      1  0.3655005294271  0.7156348378621  0.5978895868379 1.0
C      1  0.3282950087135  0.6697822777988  0.5345359834173 1.0
C      1  0.4702567296596  0.4629404264754  0.3619657159942 1.0
C      1  0.5323095453338  0.3932450710644  0.3955888041290 1.0
C      1  0.3417243091418  0.5313625465492  0.4473893785369 1.0
C      1  0.5108229633003  0.3055071447222  0.5426245730201 1.0
C      1  0.5391426501772  0.5768077727827  0.6607975528350 1.0
C      1  0.4721645031130  0.4375973369115  0.6275751201444 1.0
C      1  0.6582818027652  0.5860635924389  0.4409417317051 1.0
END
