TITL C-27430-8044-26 -3.927 3375.00 -657.23855323 0 0 81 (C1) n - 1
REM
REM Run started: at 2020.12.26 20:57:34 in /rds/project/t2_vol4/rds-t2-cs072/BORA/CARBON/AIRSS/Generating-Clusters/Str-Search/Only-C1/C10-100
REM VASP from code version vasp.5.4.4.18Apr17-6-g9f103f2a35 (build Oct 11 2019 16:45:47) gamma-only
REM
REM
REM
REM
REM ./C.cell (67c5d0192afd7a3ce4a0888e5fe73b87)
REM AIRSS Version 0.9.1 bugfix July 2018 build 013d7b7c2542+ Fri, 06 Jul 2018 19:26:36 +0100
REM compiler GCC version 4.8.5 20150623 (Red Hat 4.8.5-39)
REM options -cpp -mtune=generic -march=x86-64 -g -O0
REM seed 381906454 849762768 -1113884279 -344943314 1737501386 960165589 -463076792 -1345128067 -1957630042 399262960 2092847611 -1029773774
REM
REM C.POTCAR (d86ddea03c3ceb6dc662c8ad6801f873)
REM 
CELL 1.54180   15.00000   15.00000   15.00000   90.00000   90.00000   90.00000
LATT -1
SFAC C  
C      1  0.6904793455153  0.3499457333372  0.4785291500690 1.0
C      1  0.6717296440729  0.4550150807192  0.2763581483910 1.0
C      1  0.7926543273509  0.4821242258269  0.4728502489230 1.0
C      1  0.6424756080454  0.4923214669748  0.7704266807154 1.0
C      1  0.4319581898093  0.5032778329630  0.3126752121711 1.0
C      1  0.2887988862832  0.3315458240684  0.4162635060520 1.0
C      1  0.4358992726636  0.2419305185290  0.4410971774257 1.0
C      1  0.7126504508061  0.6078897851316  0.3293567242386 1.0
C      1  0.5978990573155  0.3437768966063  0.7017045923908 1.0
C      1  0.4145176123814  0.7974917548878  0.5363594915203 1.0
C      1  0.5293535319741  0.6736411434358  0.7196077513596 1.0
C      1  0.6876850287354  0.5587036111156  0.5563197755525 1.0
C      1  0.4862184313217  0.2816681965919  0.3656021651400 1.0
C      1  0.6629449336969  0.6150112230571  0.4870881385367 1.0
C      1  0.6055783908853  0.3016940728925  0.2423912116383 1.0
C      1  0.4259388061662  0.4556485473748  0.5178850246050 1.0
C      1  0.7340515727071  0.7459478935910  0.4755763152040 1.0
C      1  0.3479147296612  0.3148405328891  0.6376434178997 1.0
C      1  0.2191500118936  0.3826784110080  0.5618635334118 1.0
C      1  0.4783027014461  0.7314765373158  0.6649539012964 1.0
C      1  0.3374007988973  0.6549307920902  0.3571485762752 1.0
C      1  0.5216948452863  0.2535942099279  0.5995837666637 1.0
C      1  0.4677736928779  0.5916059013664  0.2914570045912 1.0
C      1  0.7362350646712  0.5148652091414  0.3211468014034 1.0
C      1  0.4522770885149  0.6132719138538  0.7478778863930 1.0
C      1  0.6181513698001  0.6379156738336  0.7002582710164 1.0
C      1  0.5475780605864  0.5070243793806  0.6327989983231 1.0
C      1  0.5788616021589  0.7579781980228  0.5223954561066 1.0
C      1  0.5105261504208  0.4447588992341  0.3214561553045 1.0
C      1  0.2440684215262  0.4595534872398  0.5051941633175 1.0
C      1  0.4015856504813  0.6673484628851  0.6831962134309 1.0
C      1  0.3586557774679  0.7389849060379  0.4985149740363 1.0
C      1  0.4814880934598  0.6407214000323  0.4869690545713 1.0
C      1  0.3611193853014  0.6232484396660  0.6136025792842 1.0
C      1  0.4257575371072  0.6665186815548  0.3327147208907 1.0
C      1  0.3386250753417  0.4783196160219  0.5322700640623 1.0
C      1  0.2217128302719  0.3713697847201  0.4707721276528 1.0
C      1  0.2508758875607  0.6065286588901  0.4516475906934 1.0
C      1  0.2765758390687  0.3789347913329  0.6365399000524 1.0
C      1  0.6108905714359  0.3480151358309  0.4255055311142 1.0
C      1  0.4821254316949  0.6989110552141  0.4066494025059 1.0
C      1  0.4950587661126  0.7810850927620  0.5821760447649 1.0
C      1  0.6257982793922  0.7129603457768  0.3652082217811 1.0
C      1  0.6581838528265  0.3284939889429  0.6261913921214 1.0
C      1  0.5597354150576  0.7510579405906  0.4177184495038 1.0
C      1  0.2996598539610  0.6915740885546  0.4382596357848 1.0
C      1  0.5833306947468  0.4917587482765  0.2808123330709 1.0
C      1  0.6355266674503  0.2746235841623  0.4818474437729 1.0
C      1  0.5274355826983  0.2587165961049  0.2719585135162 1.0
C      1  0.4537495785505  0.5183659001617  0.7516821616554 1.0
C      1  0.3931357143772  0.4473858904534  0.7186811891812 1.0
C      1  0.3043113276155  0.5441001764631  0.6066769958006 1.0
C      1  0.3098229695383  0.4640618608599  0.6716296690261 1.0
C      1  0.5761367576384  0.6425282871804  0.5283083425768 1.0
C      1  0.3643630755918  0.2631386996282  0.5605371812728 1.0
C      1  0.7422192133785  0.4788213624517  0.5521718285472 1.0
C      1  0.6636735472359  0.3615743896961  0.2557090765814 1.0
C      1  0.6071538282757  0.5869511520501  0.6109106081233 1.0
C      1  0.5605776658667  0.5842979565948  0.2739133730900 1.0
C      1  0.5303338755812  0.3703109406905  0.3825388651744 1.0
C      1  0.7053189048273  0.6702975926339  0.4136264543679 1.0
C      1  0.4394431514006  0.2870240016738  0.2731429982900 1.0
C      1  0.5429143149525  0.4827892642396  0.7306908147377 1.0
C      1  0.6750340782405  0.7799354712597  0.5246497900877 1.0
C      1  0.2325360755174  0.5549130628678  0.5265710262682 1.0
C      1  0.5081022300298  0.3103123887482  0.6777742741327 1.0
C      1  0.7075192890948  0.3882533458492  0.5673396510439 1.0
C      1  0.3710888486276  0.3439735063563  0.2768374370263 1.0
C      1  0.4886568521823  0.4768213016930  0.5739348051702 1.0
C      1  0.2931633616736  0.5679133553542  0.3662523546108 1.0
C      1  0.6117420647498  0.2626656523617  0.5723833478611 1.0
C      1  0.4006745144540  0.6514796104095  0.5301837274758 1.0
C      1  0.3448803740244  0.2695274363869  0.4593557650343 1.0
C      1  0.4223312840716  0.3530625629135  0.6911655548633 1.0
C      1  0.6476693546990  0.5782362076062  0.7624157021229 1.0
C      1  0.4527445010406  0.2357677302920  0.5383615762603 1.0
C      1  0.3233693166239  0.3869317580024  0.3409642759265 1.0
C      1  0.5994034323846  0.4104542197968  0.7658958781178 1.0
C      1  0.3399573800209  0.4879695596673  0.3417520227321 1.0
C      1  0.6298048085894  0.6437020290796  0.2975976527142 1.0
C      1  0.7932595902376  0.4851344568156  0.3899219615815 1.0
END
