TITL C-27557-7392-2 -1.489 3375.00 -224.87263698 0 0 29 (C1) n - 1
REM
REM Run started: at 2020.12.26 12:03:46 in /rds/project/t2_vol4/rds-t2-cs072/BORA/CARBON/AIRSS/Generating-Clusters/Str-Search/Only-C1/C10-100
REM VASP from code version vasp.5.4.4.18Apr17-6-g9f103f2a35 (build Oct 11 2019 16:45:47) gamma-only
REM
REM
REM
REM
REM ./C.cell (67c5d0192afd7a3ce4a0888e5fe73b87)
REM AIRSS Version 0.9.1 bugfix July 2018 build 013d7b7c2542+ Fri, 06 Jul 2018 19:26:36 +0100
REM compiler GCC version 4.8.5 20150623 (Red Hat 4.8.5-39)
REM options -cpp -mtune=generic -march=x86-64 -g -O0
REM seed 541594204 1543851015 -74477317 -2146710608 -410282154 738892843 -2116352291 1714710087 690140627 -684660205 -1407634932 -508424603
REM
REM C.POTCAR (d86ddea03c3ceb6dc662c8ad6801f873)
REM 
CELL 1.54180   15.00000   15.00000   15.00000   90.00000   90.00000   90.00000
LATT -1
SFAC C  
C      1  0.4638415914429  0.5106633032085  0.6359848444860 1.0
C      1  0.4367754425952  0.2877329438748  0.5753044152918 1.0
C      1  0.3692695564184  0.3526477905982  0.5814938216897 1.0
C      1  0.5723538195565  0.6766183716945  0.4218595008556 1.0
C      1  0.3452946803543  0.5566330543288  0.5499038297656 1.0
C      1  0.6985720865139  0.4572358754690  0.6132857892141 1.0
C      1  0.4801338332515  0.6769387100911  0.4149169642563 1.0
C      1  0.5330347673375  0.4669898551482  0.5794706977459 1.0
C      1  0.5810602713659  0.5126966415184  0.2986257642111 1.0
C      1  0.6480577804506  0.5675060500526  0.3112249740106 1.0
C      1  0.4075450644663  0.5773553001621  0.6036681388582 1.0
C      1  0.6187172308402  0.4167095690425  0.6077656575727 1.0
C      1  0.3604461873460  0.4105987753653  0.4997959774701 1.0
C      1  0.6853845445208  0.6134918608642  0.5431443167270 1.0
C      1  0.3929446882311  0.7161829497900  0.4147094586830 1.0
C      1  0.6448373949178  0.6291697249619  0.3761082243425 1.0
C      1  0.4396191404001  0.4018269943917  0.4466758325715 1.0
C      1  0.5179408443541  0.4098931665068  0.5061471479171 1.0
C      1  0.3755203332423  0.5337047255028  0.3964290153384 1.0
C      1  0.5192515346715  0.2643540442372  0.5779588625333 1.0
C      1  0.5073037085863  0.4732224551480  0.3118972033546 1.0
C      1  0.3285606509252  0.5017854490469  0.4769552597139 1.0
C      1  0.6513585489892  0.6533051550290  0.4672502125166 1.0
C      1  0.4031070906314  0.6245862620921  0.3965013252151 1.0
C      1  0.4259876946562  0.4561915235245  0.7084770347913 1.0
C      1  0.4397729085753  0.4648384070772  0.3730105809901 1.0
C      1  0.6993857921517  0.5446438036160  0.5888292687112 1.0
C      1  0.5682528379090  0.3444288758690  0.5611879250938 1.0
C      1  0.3856701752990  0.3980486617887  0.6614176560730 1.0
END
