TITL C-27430-8044-19 -4.492 3375.00 -780.63056460 0 0 96 (C1) n - 1
REM
REM Run started: at 2020.12.26 17:24:56 in /rds/project/t2_vol4/rds-t2-cs072/BORA/CARBON/AIRSS/Generating-Clusters/Str-Search/Only-C1/C10-100
REM VASP from code version vasp.5.4.4.18Apr17-6-g9f103f2a35 (build Oct 11 2019 16:45:47) gamma-only
REM
REM
REM
REM
REM ./C.cell (67c5d0192afd7a3ce4a0888e5fe73b87)
REM AIRSS Version 0.9.1 bugfix July 2018 build 013d7b7c2542+ Fri, 06 Jul 2018 19:26:36 +0100
REM compiler GCC version 4.8.5 20150623 (Red Hat 4.8.5-39)
REM options -cpp -mtune=generic -march=x86-64 -g -O0
REM seed -1710249027 1847633641 -1442120363 72582541 2046462219 180470237 -1480506492 556306981 211347206 91235536 -1838120091 405061797
REM
REM C.POTCAR (d86ddea03c3ceb6dc662c8ad6801f873)
REM 
CELL 1.54180   15.00000   15.00000   15.00000   90.00000   90.00000   90.00000
LATT -1
SFAC C  
C      1  0.4589881466187  0.5335224376461  0.4592806749455 1.0
C      1  0.4214721257109  0.5919483772351  0.6176213682297 1.0
C      1  0.5614694569391  0.3553706975993  0.5388508156192 1.0
C      1  0.2449224450440  0.5895373257323  0.3271594556573 1.0
C      1  0.2152354783553  0.5151040010110  0.4927507740413 1.0
C      1  0.4522792745169  0.6266868700778  0.4341033681921 1.0
C      1  0.2801407953241  0.3250767484384  0.5154506907510 1.0
C      1  0.5355244857790  0.4820378653008  0.4224327472004 1.0
C      1  0.4174055958440  0.4867490271324  0.6130128052225 1.0
C      1  0.4064253854827  0.2074326070255  0.5811419893717 1.0
C      1  0.3406522528929  0.2740763804631  0.5775297830445 1.0
C      1  0.4102772047242  0.5160464609247  0.2315812290488 1.0
C      1  0.7248441844005  0.6021975936629  0.4089078214999 1.0
C      1  0.4074668342723  0.6885534410685  0.4850701933929 1.0
C      1  0.5422722406365  0.3563943253889  0.7729540353100 1.0
C      1  0.3689803042717  0.4824947275198  0.4614465595764 1.0
C      1  0.7551651146485  0.5186482406570  0.6460183850619 1.0
C      1  0.2678663487447  0.5011965535841  0.3261546141936 1.0
C      1  0.7412633608698  0.6630193537798  0.5570377646670 1.0
C      1  0.5943748531197  0.4268298833177  0.6131685348801 1.0
C      1  0.2779209943374  0.3550356728344  0.4263739383905 1.0
C      1  0.7482663012838  0.5631738883554  0.5606553286436 1.0
C      1  0.3599329394939  0.6485803604895  0.5602135142324 1.0
C      1  0.4585109435747  0.7373845612172  0.3132008514744 1.0
C      1  0.3163217130165  0.3170340698757  0.3474882722461 1.0
C      1  0.2355140753950  0.6464210985123  0.4017173427194 1.0
C      1  0.5157601181945  0.3681995916850  0.6265168666237 1.0
C      1  0.2832164403292  0.4021815747285  0.5817451925908 1.0
C      1  0.5893145952152  0.4159207713546  0.3692547570016 1.0
C      1  0.4661112064554  0.4963886156301  0.7941046531891 1.0
C      1  0.4273665687290  0.3984148093590  0.6681330306092 1.0
C      1  0.3986260223219  0.6274577875709  0.7113936227426 1.0
C      1  0.6012288261025  0.7397141474931  0.5498751990974 1.0
C      1  0.4854159291863  0.1959935654731  0.6066585825830 1.0
C      1  0.5067589480816  0.6633014068380  0.3650152029929 1.0
C      1  0.7421314770788  0.3821906948813  0.3740136520300 1.0
C      1  0.2304177588437  0.4866701092506  0.5858953743868 1.0
C      1  0.3148631938555  0.5709852927269  0.7210081720916 1.0
C      1  0.6018815361908  0.6948930775554  0.3745571859289 1.0
C      1  0.2685930830884  0.4600880014830  0.4190470835175 1.0
C      1  0.3353361258426  0.3711815963771  0.2684406622952 1.0
C      1  0.4901609511037  0.7640609567327  0.6531639157039 1.0
C      1  0.7667187912222  0.4326672343916  0.4522981953115 1.0
C      1  0.6615530032610  0.3654926927997  0.6636495794403 1.0
C      1  0.4213186986045  0.6104357396763  0.2449259207473 1.0
C      1  0.7562078121363  0.5270582878767  0.4654479247226 1.0
C      1  0.5980120530543  0.5932913447891  0.2656422449329 1.0
C      1  0.7226482323165  0.6825715664965  0.4677499048231 1.0
C      1  0.7492395586963  0.3508111558046  0.5100624248080 1.0
C      1  0.3432471586390  0.3469089497024  0.6395476331346 1.0
C      1  0.6213557532974  0.2691966112467  0.5447849784793 1.0
C      1  0.4154901241927  0.3229538241141  0.2499939169113 1.0
C      1  0.5151983132947  0.7768047397913  0.5631253891004 1.0
C      1  0.4613187291684  0.4046471248088  0.7635463207447 1.0
C      1  0.5465010299508  0.3399196525690  0.3243496438829 1.0
C      1  0.6419566750150  0.7399454078017  0.4626080530597 1.0
C      1  0.2248174549340  0.6105916501888  0.4877911585128 1.0
C      1  0.3583773548492  0.4566528193325  0.5452866065775 1.0
C      1  0.6571742309447  0.6206203878544  0.3374920359821 1.0
C      1  0.6826839860009  0.4238824670447  0.7440496329907 1.0
C      1  0.5710621335075  0.2242947533095  0.6245765739247 1.0
C      1  0.6799485190502  0.4229295352716  0.3147005265191 1.0
C      1  0.5635662229197  0.2525014376756  0.3700167178990 1.0
C      1  0.6373973736376  0.2544083424375  0.4414433420404 1.0
C      1  0.2920461817538  0.6708382634952  0.3263772131792 1.0
C      1  0.5678248432329  0.4108465786263  0.4632393540474 1.0
C      1  0.4960276517696  0.7920700987399  0.3934668671552 1.0
C      1  0.5743946403867  0.3083537403724  0.6875661618650 1.0
C      1  0.4041630733226  0.2666244011963  0.3316442317140 1.0
C      1  0.4733230100680  0.3025095115100  0.3995446308857 1.0
C      1  0.5404203264209  0.7163665583492  0.7188444564345 1.0
C      1  0.6517509085499  0.6764144033537  0.6121994884672 1.0
C      1  0.6058124826373  0.4237894671299  0.7975715384580 1.0
C      1  0.6497952092490  0.5800276610020  0.5813307840430 1.0
C      1  0.6159554005284  0.6628634756679  0.7106869731749 1.0
C      1  0.3303542961733  0.4648507855350  0.2624764083703 1.0
C      1  0.2704326764269  0.6315368254797  0.5735511169380 1.0
C      1  0.4593677483500  0.7739486159441  0.4798406733806 1.0
C      1  0.5115386965738  0.6449876319296  0.2684585456673 1.0
C      1  0.5977290791650  0.7909446400070  0.3863635267326 1.0
C      1  0.4734186612302  0.2054663150565  0.3757922911560 1.0
C      1  0.3925581338117  0.5530717317906  0.7729236125209 1.0
C      1  0.3748615265792  0.6862134315002  0.2866723239660 1.0
C      1  0.5821431042073  0.5187362080400  0.5882744857430 1.0
C      1  0.5836664191380  0.5067859310926  0.2251385171500 1.0
C      1  0.7038057430613  0.3211066069248  0.5834632153079 1.0
C      1  0.4948038271331  0.4652883681903  0.2199289468808 1.0
C      1  0.7056449070236  0.5155862465161  0.7226267321734 1.0
C      1  0.4889573499497  0.5394653381293  0.5674161916567 1.0
C      1  0.7147362703165  0.3053602814070  0.4289258519248 1.0
C      1  0.6263614629431  0.5750791729558  0.7522991588540 1.0
C      1  0.5645128309639  0.5149503979698  0.7991087945743 1.0
C      1  0.4948107979914  0.3694266710779  0.2431804353471 1.0
C      1  0.6603463837701  0.4549603074325  0.2350727848855 1.0
C      1  0.4457130694458  0.7137679401672  0.7194425008334 1.0
C      1  0.2562541432186  0.5609822004391  0.6433375509718 1.0
END
