TITL C-27557-7392-7 -2.35 3375.00 -392.52048183 0 0 49 (C1) n - 1
REM
REM Run started: at 2020.12.26 14:20:23 in /rds/project/t2_vol4/rds-t2-cs072/BORA/CARBON/AIRSS/Generating-Clusters/Str-Search/Only-C1/C10-100
REM VASP from code version vasp.5.4.4.18Apr17-6-g9f103f2a35 (build Oct 11 2019 16:45:47) gamma-only
REM
REM
REM
REM
REM ./C.cell (67c5d0192afd7a3ce4a0888e5fe73b87)
REM AIRSS Version 0.9.1 bugfix July 2018 build 013d7b7c2542+ Fri, 06 Jul 2018 19:26:36 +0100
REM compiler GCC version 4.8.5 20150623 (Red Hat 4.8.5-39)
REM options -cpp -mtune=generic -march=x86-64 -g -O0
REM seed -1511783597 1964097268 1378440337 763166190 936679175 -1245947034 2001586887 -214888049 -1078653153 -1304107397 -899823142 -2035261599
REM
REM C.POTCAR (d86ddea03c3ceb6dc662c8ad6801f873)
REM 
CELL 1.54180   15.00000   15.00000   15.00000   90.00000   90.00000   90.00000
LATT -1
SFAC C  
C      1  0.7253621665999  0.3344919262523  0.6238031401677 1.0
C      1  0.2939835860221  0.4344385370586  0.4876520695364 1.0
C      1  0.4829485123835  0.6880390076755  0.6273823480839 1.0
C      1  0.7015415289373  0.4235654343326  0.3304570276864 1.0
C      1  0.4853007988225  0.3940836039127  0.6360219785626 1.0
C      1  0.2941560667833  0.6418752017210  0.4777726193440 1.0
C      1  0.3768694311374  0.6887733067270  0.5178778732682 1.0
C      1  0.4588907526981  0.5315227997729  0.5001906733514 1.0
C      1  0.5379058545499  0.5365085592807  0.5644606190542 1.0
C      1  0.7384871173648  0.3703049096245  0.3856588463825 1.0
C      1  0.5996262173282  0.4615801946634  0.4190718551963 1.0
C      1  0.4094651322865  0.3124249616476  0.4737189511417 1.0
C      1  0.5794766276010  0.7646386497732  0.5209050226011 1.0
C      1  0.5529797441009  0.6322923560184  0.5972396659233 1.0
C      1  0.6222509384027  0.3074207745510  0.4756312345422 1.0
C      1  0.4092263094909  0.5896456564370  0.3207744554956 1.0
C      1  0.3310779524300  0.4884562167491  0.6264241514499 1.0
C      1  0.4704916848110  0.3717309503648  0.4320508190103 1.0
C      1  0.4368367897288  0.4634879887649  0.4174448336010 1.0
C      1  0.2645763812064  0.4944291443397  0.5569933751565 1.0
C      1  0.4209860559631  0.2173278627024  0.4834741486810 1.0
C      1  0.3309591693539  0.5913320787185  0.6292383781507 1.0
C      1  0.3381207122065  0.4816271232431  0.4208783817729 1.0
C      1  0.6133844237151  0.6239338597740  0.4558669851824 1.0
C      1  0.6275166944136  0.4614710858856  0.6810112245493 1.0
C      1  0.5429153561220  0.4723449689604  0.6406668068854 1.0
C      1  0.3443530295505  0.5834356696356  0.4045825972529 1.0
C      1  0.5537522772069  0.6701523801881  0.3939756718069 1.0
C      1  0.3508073091550  0.3677694614177  0.5299433166974 1.0
C      1  0.3901112845256  0.4089182186776  0.6073983207404 1.0
C      1  0.6288836906404  0.4829844749112  0.3293103166113 1.0
C      1  0.4112658783559  0.6041008460531  0.4768226161289 1.0
C      1  0.4435207779425  0.7619023808483  0.4981212033589 1.0
C      1  0.4968425544895  0.7713164475224  0.5764487389872 1.0
C      1  0.5521864904173  0.5334453637319  0.2962179338751 1.0
C      1  0.5254613454336  0.7508172502219  0.4403130500929 1.0
C      1  0.5604206982653  0.3309438751147  0.6213299088212 1.0
C      1  0.7172541083567  0.3232896111007  0.4646897744187 1.0
C      1  0.5110115381514  0.6165038904288  0.3247628859740 1.0
C      1  0.6018584607604  0.5312514942933  0.4801698122632 1.0
C      1  0.3893929507275  0.6611348157226  0.6168017642597 1.0
C      1  0.6458260000463  0.3744447537161  0.6547444693668 1.0
C      1  0.2671095645552  0.5896667144877  0.5514780378092 1.0
C      1  0.6127962658469  0.6781911885838  0.5366330712894 1.0
C      1  0.4619188474877  0.5120401458131  0.3321818308712 1.0
C      1  0.4956939457867  0.2214778932590  0.5247849125576 1.0
C      1  0.7583899941800  0.3142830654940  0.5496243848283 1.0
C      1  0.5717726931833  0.2641454495756  0.5529635662853 1.0
C      1  0.5640345904759  0.3700376502515  0.4340342309267 1.0
END
