TITL C-287036-1107-9 -12.069 3375.00 -3412.17913914 0 0 411 (C1) n - 1
REM
REM Run started: at 2020.10.20 23:01:01 in /rds/project/t2_vol4/rds-t2-cs072/BORA/CARBON/AIRSS/Generating-Clusters/Str-Search
REM VASP from code version vasp.5.4.4.18Apr17-6-g9f103f2a35 (build Oct 11 2019 16:45:47) gamma-only
REM
REM
REM
REM
REM ./C.cell (8c8f32957ea4b25f9ffc41644e092d35)
REM AIRSS Version 0.9.1 bugfix July 2018 build 013d7b7c2542+ Fri, 06 Jul 2018 19:26:36 +0100
REM compiler GCC version 4.8.5 20150623 (Red Hat 4.8.5-39)
REM options -cpp -mtune=generic -march=x86-64 -g -O0
REM seed -2124092437 -525673235 833115496 -740819711 -749267656 10232547 1417833775 -1461368546 101947968 -1397834386 -1918544767 316532875
REM
REM C.POTCAR (d86ddea03c3ceb6dc662c8ad6801f873)
REM 
CELL 1.54180   15.00000   15.00000   15.00000   90.00000   90.00000   90.00000
LATT -1
SFAC C  
C      1  0.4608705516112  0.2382651034427  0.8635102884534 1.0
C      1  0.0460883396656  0.3318222393044  0.3909575394495 1.0
C      1  0.8858586436355  0.6440855974703  0.6036594894028 1.0
C      1  0.2497339925628  0.3911490420441  0.9001444084421 1.0
C      1  0.6020409198575  0.3335252800836  0.2418491347380 1.0
C      1  0.0092465482533  0.1796918420726  0.4107352086894 1.0
C      1  0.3786892077517  0.5591768785991  0.3183449798212 1.0
C      1  0.4087644464653  0.6337234305095  0.6122235867647 1.0
C      1  0.8068087998374  0.2442209016544  0.2541115233485 1.0
C      1  0.6024433111535  0.5509432629082  0.4961227567256 1.0
C      1  0.2833676142971  0.1359880075664  0.2024194542441 1.0
C      1  0.6602336958415  0.3078490349481  0.7324042253614 1.0
C      1  0.8376653754583  0.8662941357577  0.5694515259217 1.0
C      1  0.3077746876720  0.7965300091502  0.4433299957076 1.0
C      1  0.6692034638545  0.8422195139961  0.6307103541763 1.0
C      1  0.8275961703145  0.8600194250622  0.3729843162247 1.0
C      1  0.8141968713238  0.4101740033893  0.0686063383756 1.0
C      1  0.7614942857894  0.7986228635477  0.8592618214099 1.0
C      1  0.7923428253293  0.7729457500455  0.5592014028314 1.0
C      1  0.2352897721625  0.8559583354420  0.8570444304330 1.0
C      1  0.7535414336151  0.4427439589623  0.9986825272660 1.0
C      1  0.3227954731917  0.3101435309888  0.7672386006147 1.0
C      1  0.3483558638954  0.4101172507418  0.0615821975683 1.0
C      1  0.6487655521758  0.0173532192353  0.5244237475307 1.0
C      1  0.2462487560758  0.9055920599725  0.6221275580465 1.0
C      1  0.6258383209523  0.3114881329315  0.8260469936621 1.0
C      1  0.8110407752835  0.3725863948108  0.8539330265946 1.0
C      1  0.2857903485589  0.5664496595750  0.0826062902194 1.0
C      1  0.6944630999946  0.5974679736611  0.0773676388088 1.0
C      1  0.9802700502486  0.8548620767647  0.5795655608993 1.0
C      1  0.0135647398038  0.3586351273354  0.2355861027217 1.0
C      1  0.4528512887256  0.3780497382527  0.2548606662115 1.0
C      1  0.4723965448295  0.6495581458881  0.8715771368921 1.0
C      1  0.6129025453175  0.7243964403126  0.8106642384183 1.0
C      1  0.6522534166369  0.2670643396347  0.3000362311794 1.0
C      1  0.4851541780855  0.8576557698704  0.0567541317488 1.0
C      1  0.6534547180094  0.8620867301924  0.1069560743367 1.0
C      1  0.7049278520066  0.4647794952418  0.2759441049397 1.0
C      1  0.3392692552983  0.8776522912158  0.1398505731080 1.0
C      1  0.4036679183936  0.1297808925879  0.6625053692434 1.0
C      1  0.5888568093747  0.7198595573014  0.3090974238676 1.0
C      1  0.4730192111742  0.1754292015104  0.7211862513282 1.0
C      1  0.0188219940964  0.4769213991002  0.4774892747636 1.0
C      1  0.1688955330154  0.1610426448757  0.3120136498577 1.0
C      1  0.3343258455414  0.2509886379506  0.4719257542071 1.0
C      1  0.1725915842547  0.4017351907574  0.4498744127986 1.0
C      1  0.4876969185317  0.2334092768090  0.3040918182946 1.0
C      1  0.2269875825306  0.2976957296604  0.6278850947577 1.0
C      1  0.9521790153251  0.5626245928172  0.6005921827962 1.0
C      1  0.4512835250968  0.1490860771211  0.8249802237123 1.0
C      1  0.1906249748086  0.6212037532301  0.3890967136083 1.0
C      1  0.2491846123252  0.4555626417212  0.5891710210980 1.0
C      1  0.6942510149551  0.5787125133998  0.9212634481238 1.0
C      1  0.4091283973672  0.2189908365040  0.3505043449462 1.0
C      1  0.0767455546205  0.6027969836989  0.8333042794160 1.0
C      1  0.2451328179185  0.6609796468745  0.7321658637420 1.0
C      1  0.7710351653154  0.5346305660801  0.5213948805762 1.0
C      1  0.9722176901801  0.2752323740463  0.4293089940209 1.0
C      1  0.1602501613756  0.4339859566476  0.1754589003592 1.0
C      1  0.9974706576198  0.1538471324246  0.3138488118918 1.0
C      1  0.6773097010433  0.5300715319566  0.6625294770487 1.0
C      1  0.6822100200614  0.5211969244509  0.3612187484871 1.0
C      1  0.4761968152612  0.1020537544745  0.6028899770212 1.0
C      1  0.2991655470794  0.4229054484873  0.5078719626071 1.0
C      1  0.7536281678378  0.3938281236786  0.6133852215554 1.0
C      1  0.0949084644949  0.2083593150884  0.1737857825511 1.0
C      1  0.0945479803660  0.7337695465480  0.4297774733687 1.0
C      1  0.8792533085604  0.3998097321343  0.4211623516429 1.0
C      1  0.6663736699086  0.4443186312379  0.6086516439921 1.0
C      1  0.7541148191423  0.1163529311713  0.2313381878192 1.0
C      1  0.1809050152187  0.7309358082071  0.5909600699909 1.0
C      1  0.4719373687089  0.7741304894901  0.7497278985031 1.0
C      1  0.3544371865559  0.7053720655931  0.5804075029070 1.0
C      1  0.6960239430387  0.1903275180201  0.6416328046501 1.0
C      1  0.3836913398685  0.4181789208798  0.6834181058594 1.0
C      1  0.1116779893568  0.4569258326421  0.5165010865191 1.0
C      1  0.8892854336120  0.8075924923219  0.4217021056714 1.0
C      1  0.7494214952195  0.1081866932090  0.6530188031708 1.0
C      1  0.5306885706366  0.0511774498911  0.2516955785526 1.0
C      1  0.1282236092482  0.2386407278321  0.5003366466832 1.0
C      1  0.7663670301790  0.3273222634419  0.5368423787502 1.0
C      1  0.1631390601984  0.8738589223424  0.4079517510060 1.0
C      1  0.0981324795295  0.8333459283573  0.4667722258651 1.0
C      1  0.6422685276383  0.0396394642081  0.3740063947235 1.0
C      1  0.3828911663402  0.5520914098235  0.1005606495936 1.0
C      1  0.5420754054481  0.6684286528796  0.9429500967029 1.0
C      1  0.7007132942065  0.2951487992941  0.1032695445734 1.0
C      1  0.6223618175108  0.8214544799387  0.7967043542158 1.0
C      1  0.8051271851251  0.6245087688371  0.5434136538385 1.0
C      1  0.2045688676395  0.8823233619104  0.7738025433988 1.0
C      1  0.9116843383817  0.8322108471164  0.5133289331678 1.0
C      1  0.4637797946581  0.4656970980336  0.2079275398990 1.0
C      1  0.9784557208577  0.2302923468973  0.6694412919627 1.0
C      1  0.3249367659317  0.3254890487348  0.9259075516810 1.0
C      1  0.2281205163926  0.0904661486071  0.2697095575020 1.0
C      1  0.2729515636057  0.2241793845337  0.2268242088132 1.0
C      1  0.7123395774150  0.2086240500897  0.2363718350915 1.0
C      1  0.2805241971111  0.1898736191145  0.5339747439013 1.0
C      1  0.6255087159545  0.9103276892801  0.1813666625472 1.0
C      1  0.5540781597409  0.9458299764666  0.6416934628814 1.0
C      1  0.1231654998128  0.6959279068375  0.5135655171526 1.0
C      1  0.0171001894383  0.6177887461152  0.7551669897936 1.0
C      1  0.8470688922223  0.2807446333624  0.5274518079675 1.0
C      1  0.2026543388273  0.6430136368011  0.6389324276842 1.0
C      1  0.9281220464570  0.4410076933271  0.7639631461857 1.0
C      1  0.2218432012056  0.6193645300049  0.8853051536927 1.0
C      1  0.3093016821385  0.8427990733398  0.9173221451930 1.0
C      1  0.4758567123129  0.5643710009755  0.3405045697220 1.0
C      1  0.1908553449725  0.3788677549561  0.6198006175568 1.0
C      1  0.5799098646163  0.3997996666964  0.6114093455219 1.0
C      1  0.4738702107704  0.3359962489787  0.9995721428380 1.0
C      1  0.9246970637617  0.1324111272970  0.2687033818735 1.0
C      1  0.3329022241658  0.1714640050871  0.8732971635881 1.0
C      1  0.2911232409371  0.8097686088333  0.1046687940104 1.0
C      1  0.6204914051298  0.3882051901765  0.4388710509825 1.0
C      1  0.7935598529751  0.7317904354625  0.1047539709431 1.0
C      1  0.9913379805850  0.3961787941833  0.8252737496088 1.0
C      1  0.7617264959223  0.3899458168968  0.3076606375121 1.0
C      1  0.4755960355886  0.3921637348562  0.3564887053160 1.0
C      1  0.2865425211887  0.4105718474327  0.8067688058504 1.0
C      1  0.0630173690454  0.4315408128556  0.1950752553086 1.0
C      1  0.4215285682317  0.7769898233868  0.2944205825676 1.0
C      1  0.8462093076589  0.1517097533058  0.2329733390483 1.0
C      1  0.8340529540332  0.5965691538752  0.2915110063512 1.0
C      1  0.6085731603854  0.2552698917214  0.9679114848204 1.0
C      1  0.7368231889653  0.8175730915841  0.1426076619744 1.0
C      1  0.1734028786718  0.8060982360729  0.7178283387187 1.0
C      1  0.5788991245927  0.6414746242928  0.4527872084849 1.0
C      1  0.6266067980058  0.2351977154385  0.5981908696087 1.0
C      1  0.1891537803321  0.2186079719223  0.5746472800888 1.0
C      1  0.3784304961907  0.5571379025345  0.6479548019373 1.0
C      1  0.5124113467300  0.5133827992857  0.9996120979483 1.0
C      1  0.4563988680191  0.6738030097260  0.0102976899214 1.0
C      1  0.3051967875555  0.2202558448483  0.3791313299183 1.0
C      1  0.3892217709318  0.8986037845167  0.4106908095162 1.0
C      1  0.8114935247388  0.4763352199390  0.6010681247812 1.0
C      1  0.3878112021246  0.7785716671558  0.8017819548792 1.0
C      1  0.6837497536859  0.9508492488275  0.3436302933388 1.0
C      1  0.2457037897078  0.7796782511236  0.9230722343603 1.0
C      1  0.5947428604048  0.7438004403132  0.2067859179890 1.0
C      1  0.6338734027495  0.8107936381751  0.3044451875037 1.0
C      1  0.3517411281169  0.1473549449653  0.1282251281080 1.0
C      1  0.5903688843651  0.6281469672163  0.0900951063215 1.0
C      1  0.3469830309494  0.7223561528035  0.4928797665031 1.0
C      1  0.1515374382847  0.3639677650625  0.8979247224411 1.0
C      1  0.7617678740339  0.6620102579286  0.0404025204133 1.0
C      1  0.9005846842115  0.8334054335508  0.6481886430179 1.0
C      1  0.7229741964528  0.1779367500335  0.8258574353360 1.0
C      1  0.5399351051914  0.7884571291766  0.5145857029262 1.0
C      1  0.6019839810631  0.5669819633819  0.1691315978746 1.0
C      1  0.1567778492756  0.7139818633290  0.7598069183115 1.0
C      1  0.6142224426240  0.7352851559593  0.9120324461345 1.0
C      1  0.7988093132810  0.2117390758468  0.7721124228972 1.0
C      1  0.9355704155234  0.4183475828578  0.5081503518623 1.0
C      1  0.5817868347244  0.0249440267188  0.4549784823452 1.0
C      1  0.2378003598461  0.9458641846418  0.7048416700624 1.0
C      1  0.1018225982394  0.5208512256523  0.8789561867628 1.0
C      1  0.4646538112465  0.4888426522613  0.4845049223167 1.0
C      1  0.4417359057872  0.1505002144018  0.1511780745907 1.0
C      1  0.4533848362659  0.9646926973741  0.3946400591403 1.0
C      1  0.7368364346897  0.9657330997909  0.4861644515403 1.0
C      1  0.1154874620337  0.1505720241053  0.7207820462892 1.0
C      1  0.7286590354067  0.9440173188424  0.7832744646353 1.0
C      1  0.5437213678598  0.3282489654563  0.4082032829539 1.0
C      1  0.7760455691096  0.5392441731687  0.6736924181866 1.0
C      1  0.3360031265891  0.7204662811020  0.1028683602789 1.0
C      1  0.5004697530983  0.2715437981227  0.4856264736530 1.0
C      1  0.1028710674002  0.6152027199112  0.6389320835064 1.0
C      1  0.0173266109492  0.4452945224917  0.3823716085160 1.0
C      1  0.8888164029854  0.5275666093625  0.7813437440734 1.0
C      1  0.3756767377339  0.8197410481795  0.3693559035009 1.0
C      1  0.7038899084412  0.2208029964289  0.7314486324155 1.0
C      1  0.6936861737973  0.5777076949391  0.1724706983641 1.0
C      1  0.4967456431555  0.7236471089687  0.3397906415928 1.0
C      1  0.6740835757558  0.4001956605436  0.8555472433740 1.0
C      1  0.9049049329833  0.1625867930457  0.6488314941275 1.0
C      1  0.0555731770791  0.6599620119190  0.2877086878101 1.0
C      1  0.5661745276770  0.8085673100454  0.9595897899140 1.0
C      1  0.4632701513371  0.8568846481433  0.2299659164049 1.0
C      1  0.8084125900330  0.2532217083147  0.3556142878739 1.0
C      1  0.4439675654475  0.5567928620035  0.2450222500710 1.0
C      1  0.0398402374343  0.5167162564074  0.2359312815820 1.0
C      1  0.7026321947342  0.9501374968668  0.2382537799520 1.0
C      1  0.9219501982845  0.4532978919160  0.3495620010843 1.0
C      1  0.3752487669757  0.3858402261896  0.3759613901431 1.0
C      1  0.4771683534402  0.3805221472258  0.8023260300612 1.0
C      1  0.2275264104427  0.8909274936511  0.2618893212057 1.0
C      1  0.2362441511171  0.4688497534985  0.9603687555327 1.0
C      1  0.8424080234075  0.1880739494083  0.4951620721860 1.0
C      1  0.3939006267099  0.6950822229325  0.9339772391616 1.0
C      1  0.4252294830503  0.0688620211490  0.5266854880858 1.0
C      1  0.7984767265468  0.7444899418621  0.2580057257105 1.0
C      1  0.5228854179581  0.1091981714138  0.1757760336790 1.0
C      1  0.6041528154178  0.1307069879562  0.8704546951494 1.0
C      1  0.4432364793984  0.5524284480686  0.8590961824060 1.0
C      1  0.6562304491287  0.0184392730791  0.7789148734462 1.0
C      1  0.7513819364389  0.3631242704169  0.7148826698600 1.0
C      1  0.7889304205255  0.7012996179169  0.4816642146269 1.0
C      1  0.2039794770329  0.2114151279097  0.9140112722535 1.0
C      1  0.2689621288400  0.6630221529454  0.0440335940873 1.0
C      1  0.4078850757234  0.0534788268115  0.3806372348327 1.0
C      1  0.2988612968334  0.3094133887580  0.1909831113144 1.0
C      1  0.8823685298584  0.4779058684227  0.1079708758909 1.0
C      1  0.3394594475310  0.0284303159871  0.5146392165211 1.0
C      1  0.3568624167112  0.3471910844914  0.4770197463303 1.0
C      1  0.5192608623995  0.6894347051362  0.7837953366829 1.0
C      1  0.0700354929791  0.3829882238593  0.7686798784790 1.0
C      1  0.0736671923043  0.6933020242117  0.7006981523991 1.0
C      1  0.1452238911903  0.2676684355280  0.1459221243903 1.0
C      1  0.2414699274511  0.8066669097839  0.6356775142981 1.0
C      1  0.8428009866672  0.7035015865101  0.1778381035209 1.0
C      1  0.3122908249042  0.9202444811109  0.2195229091889 1.0
C      1  0.4283654025272  0.8099079404185  0.6643527064795 1.0
C      1  0.6762428710674  0.5319072253663  0.5578667130576 1.0
C      1  0.8155624275901  0.9360212035399  0.7500992492415 1.0
C      1  0.4816876747518  0.5317843183253  0.7656551836826 1.0
C      1  0.2382316141968  0.1504482683360  0.8513644118759 1.0
C      1  0.5831616680876  0.3068351786939  0.6587258578602 1.0
C      1  0.6133986068922  0.0612001111371  0.2855015260203 1.0
C      1  0.7514610405051  0.4322503518171  0.7924289604731 1.0
C      1  0.0840685188542  0.4963347486974  0.3288571091721 1.0
C      1  0.2507997399158  0.5898336876975  0.1791391435760 1.0
C      1  0.6226666397043  0.1885743729608  0.4369598308476 1.0
C      1  0.5532881647209  0.6977822019928  0.5297286514838 1.0
C      1  0.5306666355995  0.6060085720868  0.0132774395576 1.0
C      1  0.3335981915254  0.4773930109398  0.3410768481039 1.0
C      1  0.3316887181890  0.6634422419935  0.1897078090157 1.0
C      1  0.3508955916871  0.7076413995437  0.2728899522417 1.0
C      1  0.6029694602329  0.4667926271834  0.8687268357234 1.0
C      1  0.1912083922954  0.5229974611232  0.5348897815768 1.0
C      1  0.8411605058353  0.7780731288843  0.8046539901568 1.0
C      1  0.4310564324475  0.2798920711256  0.0713013019018 1.0
C      1  0.7049154083693  0.1251161403334  0.4237467017300 1.0
C      1  0.7315824622178  0.6879778323687  0.4003375160615 1.0
C      1  0.0738675256297  0.6296442883906  0.5456029351099 1.0
C      1  0.3110197869524  0.0530418087075  0.4187135893093 1.0
C      1  0.6973539152608  0.0483402132587  0.2316287771025 1.0
C      1  0.7920086969245  0.5290291776220  0.7739017865483 1.0
C      1  0.9955739946912  0.5777246205595  0.5085302637443 1.0
C      1  0.8236479682724  0.3422610249756  0.2294968288865 1.0
C      1  0.1761988930048  0.8162589282795  0.2183740115353 1.0
C      1  0.3349757223424  0.8842536971580  0.4836663631154 1.0
C      1  0.4399744468833  0.3348561967914  0.5399591648522 1.0
C      1  0.1680747329210  0.4252087155585  0.3489287389694 1.0
C      1  0.0363199513830  0.5495510077537  0.6769293185445 1.0
C      1  0.7143256702209  0.3556050094834  0.4481533002536 1.0
C      1  0.3368478313029  0.7667438505160  0.6537547342209 1.0
C      1  0.3280733752585  0.5773415125960  0.4711808000625 1.0
C      1  0.3707455993104  0.0362415645738  0.6778355683054 1.0
C      1  0.2978799272137  0.2298481582126  0.9649457940773 1.0
C      1  0.4073885727054  0.3233594174737  0.6375135070094 1.0
C      1  0.7445946223700  0.6575802086511  0.9501728161473 1.0
C      1  0.3983090734130  0.9552685539660  0.6259757966368 1.0
C      1  0.7468524120701  0.9098584523239  0.4066282638699 1.0
C      1  0.8733052273873  0.7069467797864  0.4146041500547 1.0
C      1  0.4516983206516  0.0111788493142  0.3014538019088 1.0
C      1  0.6828529497675  0.5164005681039  0.0017996714009 1.0
C      1  0.6434929024095  0.6616909149970  0.3781635871006 1.0
C      1  0.1768423332957  0.7174977880802  0.3627631916993 1.0
C      1  0.2214229084860  0.7952926940865  0.3966175446596 1.0
C      1  0.0468156229190  0.2167215353594  0.7348579540298 1.0
C      1  0.7928085462101  0.6308156108980  0.6418650822068 1.0
C      1  0.8612697780841  0.8491894196716  0.7424486190073 1.0
C      1  0.3059349589826  0.4878047788468  0.6649769589963 1.0
C      1  0.2285815735907  0.2444760639444  0.3132386270798 1.0
C      1  0.2662064685953  0.1410618038953  0.4377121259638 1.0
C      1  0.9180010397025  0.3684561889115  0.2772257978511 1.0
C      1  0.5259359683766  0.3101361196204  0.8424778523238 1.0
C      1  0.4789341706850  0.8401481306307  0.9574988760424 1.0
C      1  0.0723445088057  0.3009473599372  0.2953448427323 1.0
C      1  0.8975768526355  0.3618827425494  0.8159050937581 1.0
C      1  0.5226198792933  0.9460235278791  0.4667758259331 1.0
C      1  0.3252004847535  0.7285783359144  0.7450735721937 1.0
C      1  0.1865706821162  0.7012069008469  0.0997905898319 1.0
C      1  0.3590634773324  0.2662824166135  0.8490330756475 1.0
C      1  0.7296272280710  0.0644058290760  0.4985502042316 1.0
C      1  0.3804599262347  0.6530414738597  0.4335731207161 1.0
C      1  0.6797616855294  0.0912465225693  0.8396020415031 1.0
C      1  0.5883437713571  0.2256569163581  0.5129905544724 1.0
C      1  0.5442842291097  0.1156725320289  0.6674519753420 1.0
C      1  0.7071917574856  0.9246000894184  0.6256986149979 1.0
C      1  0.1808378611226  0.5367317726977  0.9224875553198 1.0
C      1  0.4955907726599  0.8313782452400  0.5908306403129 1.0
C      1  0.8536897034062  0.6790651543548  0.8004278687823 1.0
C      1  0.6460590543200  0.0648021878064  0.6855688224138 1.0
C      1  0.3422378106985  0.6469888733260  0.3413121320465 1.0
C      1  0.0987239988145  0.4003512664208  0.6018733064810 1.0
C      1  0.2326219538757  0.4984495226425  0.2189795334702 1.0
C      1  0.1617303264863  0.1423051091576  0.6374701917473 1.0
C      1  0.0925966489187  0.2841622396723  0.7861105776214 1.0
C      1  0.0291502586491  0.6638435239687  0.3821951649831 1.0
C      1  0.3410895175690  0.2258709002253  0.0570564833931 1.0
C      1  0.8859216296418  0.7469558849535  0.5921769746768 1.0
C      1  0.3182572345264  0.9408687308928  0.5608094378888 1.0
C      1  0.5766038239503  0.2382993899431  0.3589350706779 1.0
C      1  0.5225566921171  0.5446750797228  0.5516748246486 1.0
C      1  0.5062714659044  0.6347650186564  0.5936054175120 1.0
C      1  0.1416358668808  0.6663521425767  0.8448842367709 1.0
C      1  0.5137792668499  0.4717224232775  0.6193155662881 1.0
C      1  0.7791363399976  0.3489166855236  0.1323523300772 1.0
C      1  0.8221155075086  0.3073556187915  0.7737246116415 1.0
C      1  0.4156579523930  0.9023668217229  0.7053352462027 1.0
C      1  0.1957122356166  0.3422637206917  0.1893535746917 1.0
C      1  0.2543485845282  0.5820059506868  0.7929002075806 1.0
C      1  0.8506756216068  0.5372197362679  0.1679345864861 1.0
C      1  0.4336398435375  0.2062949532460  0.4457793085011 1.0
C      1  0.7936486348199  0.0622270660951  0.5755075538461 1.0
C      1  0.3198875750171  0.1774230349874  0.6398972526473 1.0
C      1  0.5069158021904  0.4842170808446  0.3897017653203 1.0
C      1  0.3820482791660  0.3869879652649  0.7750707791653 1.0
C      1  0.6328758655786  0.3140951692111  0.0342641763244 1.0
C      1  0.3638561361517  0.4976421039999  0.4897226668224 1.0
C      1  0.7856455102658  0.9512049129675  0.5722526587456 1.0
C      1  0.8179022817711  0.8395990075480  0.2788816499648 1.0
C      1  0.5665793288758  0.8464029972194  0.2323472471257 1.0
C      1  0.6366215525792  0.9930726586926  0.6198783770525 1.0
C      1  0.7759211629582  0.5162915717390  0.4189842893964 1.0
C      1  0.3425029764534  0.3171244042380  0.1029860114638 1.0
C      1  0.4845172101791  0.9323421415922  0.5707513085933 1.0
C      1  0.3989439415656  0.8003189168919  0.9042375083449 1.0
C      1  0.9198412580799  0.4148125068650  0.0578433553717 1.0
C      1  0.6956427093223  0.7685822912398  0.2266254313963 1.0
C      1  0.7237345869972  0.3108166018980  0.3563821975817 1.0
C      1  0.6483822680461  0.8647699940653  0.3858199761920 1.0
C      1  0.5925448363896  0.4650473945225  0.9704569554128 1.0
C      1  0.7182088852165  0.7411627279585  0.9156058694285 1.0
C      1  0.9984829239012  0.6000976354517  0.2292267710483 1.0
C      1  0.1980931260123  0.9352599036386  0.3455858564113 1.0
C      1  0.3516119733642  0.3605380577789  0.2616614788400 1.0
C      1  0.9569113473843  0.4134681492842  0.6674671560527 1.0
C      1  0.4820091989318  0.6474532951348  0.3989565735312 1.0
C      1  0.2834331323444  0.0315293470823  0.7009374842799 1.0
C      1  0.6242149731904  0.4209696144377  0.2274985254005 1.0
C      1  0.2664337328244  0.4971882116721  0.7587348550146 1.0
C      1  0.2248446031227  0.0295572061822  0.3569380766742 1.0
C      1  0.4482847474815  0.6993578049291  0.1045900391587 1.0
C      1  0.6989804786519  0.8626435504951  0.8216040222353 1.0
C      1  0.5761175359717  0.8493839264042  0.6523284176809 1.0
C      1  0.2815873047951  0.6833306868707  0.9427874270668 1.0
C      1  0.0812731922756  0.4268256184859  0.8631148192635 1.0
C      1  0.6870777974919  0.6658971340983  0.7612667971039 1.0
C      1  0.5077003952059  0.9385479809103  0.7378704969784 1.0
C      1  0.7860123010694  0.4202309684407  0.4063412825816 1.0
C      1  0.2317430244167  0.5793939165652  0.4659162297566 1.0
C      1  0.1707328099465  0.1166265992032  0.4035676770443 1.0
C      1  0.6487249202572  0.2239473034098  0.8816012505634 1.0
C      1  0.2026202819864  0.7927497139306  0.1312059976735 1.0
C      1  0.5165409875699  0.4579169777364  0.0841300020594 1.0
C      1  0.4444778001781  0.4942502466536  0.6812141855985 1.0
C      1  0.6674819662632  0.2203950043334  0.1488072857864 1.0
C      1  0.1243346180825  0.3161979098311  0.4533125506208 1.0
C      1  0.5775492368635  0.8135980395947  0.0611824928580 1.0
C      1  0.1420108588683  0.7190613356840  0.2603378887581 1.0
C      1  0.7199596562367  0.7651335301384  0.6229419535905 1.0
C      1  0.4173491361675  0.4632975912659  0.1149432984002 1.0
C      1  0.9821895176856  0.3173124617061  0.6225480638487 1.0
C      1  0.5599805002135  0.3847966039665  0.0301512099347 1.0
C      1  0.9423306373581  0.6262357640799  0.4228822410306 1.0
C      1  0.0513029202357  0.4437788783923  0.6798893405045 1.0
C      1  0.9422775033273  0.3183245254682  0.5303221505220 1.0
C      1  0.4349920558652  0.8673641021478  0.1319421917505 1.0
C      1  0.4869274413526  0.2782952630630  0.6890232308794 1.0
C      1  0.8958010853686  0.6168095516321  0.2066969091606 1.0
C      1  0.8681705893369  0.1278965822780  0.5620875975714 1.0
C      1  0.5723836599262  0.8570565907708  0.4534789437705 1.0
C      1  0.5380061872091  0.6081328911481  0.7297331109207 1.0
C      1  0.1786548801159  0.6576032122798  0.1800406214747 1.0
C      1  0.5066634075112  0.2960891847955  0.2253061808659 1.0
C      1  0.7264611196032  0.6940716181969  0.6753145777088 1.0
C      1  0.4576948265752  0.1083358365665  0.4464837218658 1.0
C      1  0.5564351307825  0.7213549874163  0.1185221615821 1.0
C      1  0.5145463011850  0.2758825418490  0.9365052217735 1.0
C      1  0.3180582730235  0.2759921825535  0.6670587788934 1.0
C      1  0.5274101036858  0.4571820109988  0.8076737197746 1.0
C      1  0.3961183128648  0.3937055289530  0.9697995202266 1.0
C      1  0.4907317726259  0.2375045646847  0.1367222049339 1.0
C      1  0.7460522471873  0.3920404963498  0.9239825140699 1.0
C      1  0.0902127440554  0.1621786861693  0.4504689938589 1.0
C      1  0.7928587963756  0.1758605100342  0.4143929102961 1.0
C      1  0.8072530367374  0.6849153423155  0.3360536219364 1.0
C      1  0.7665352747026  0.5385462147509  0.2263679046474 1.0
C      1  0.3072341508159  0.4439927240792  0.2520472222325 1.0
C      1  0.7744211193622  0.6283650207293  0.8002769815831 1.0
C      1  0.0786359194974  0.1945172244705  0.2706861648436 1.0
C      1  0.4183249580674  0.6167219705969  0.1642927558082 1.0
C      1  0.7766518118185  0.8869772903369  0.2124484527211 1.0
C      1  0.2713239129318  0.4753729505376  0.0424794712351 1.0
C      1  0.5779540879777  0.1809175077179  0.1388226500784 1.0
C      1  0.9230998006585  0.6127139662597  0.7836312591528 1.0
C      1  0.8946258395962  0.3094696035092  0.3730612718642 1.0
C      1  0.1426147662914  0.2751791669609  0.8710947161210 1.0
C      1  0.4034165542664  0.9398593709267  0.2554549241142 1.0
C      1  0.4319027187577  0.4942702467642  0.9398920185463 1.0
C      1  0.4952388803544  0.4130876149476  0.5443262749479 1.0
C      1  0.2406925052846  0.4774553160084  0.3172614416394 1.0
C      1  0.0676642512043  0.8402214839266  0.5676905972322 1.0
C      1  0.5240698012392  0.0842410223336  0.8431606003367 1.0
C      1  0.6439112299789  0.5519082110167  0.8474768343823 1.0
C      1  0.1690687434550  0.3304767630876  0.2921981225876 1.0
C      1  0.5507671056157  0.0074676660610  0.7973600948041 1.0
C      1  0.6055241759238  0.4842370418891  0.4184230512937 1.0
C      1  0.9090502652419  0.4675194687683  0.5951875668660 1.0
C      1  0.5604560636241  0.4794611394580  0.1767148768449 1.0
C      1  0.8750554042725  0.5465945357169  0.3670772217150 1.0
C      1  0.2470353887494  0.1206173103321  0.6863853521086 1.0
C      1  0.6339158710916  0.5813899350695  0.7457799401741 1.0
C      1  0.1977372512983  0.1387978949931  0.7696558316086 1.0
C      1  0.1026878089058  0.7816968674142  0.6448527510746 1.0
C      1  0.8330621003874  0.1461132401237  0.7065479276550 1.0
C      1  0.1015883671527  0.5920548642669  0.3564940749193 1.0
C      1  0.5442647212852  0.8460484676538  0.7505105294606 1.0
END
