TITL C-280811-6860-6 -11.758 3375.00 0 0 0 247 (C1) n - 1
REM
REM Run started: at 2020.03.11 06:16:02 in /rds/user/bk393/hpc-work/AIRSS.pl-DENE/CARBON/New-Try
REM VASP from code version vasp.5.4.4.18Apr17-6-g9f103f2a35 (build Oct 11 2019 16:45:47) gamma-only
REM
REM
REM
REM
REM ./C.cell (67df479faaa1345d4e7bfe0367c0c0c2)
REM AIRSS Version 0.9.1 bugfix July 2018 build 013d7b7c2542+ Fri, 06 Jul 2018 19:26:36 +0100
REM compiler GCC version 4.8.5 20150623 (Red Hat 4.8.5-39)
REM options -cpp -mtune=generic -march=x86-64 -g -O0
REM seed 31100298 2075062639 1659521400 -1582837490 1077896780 1887582329 -840790234 -1354650198 -1544550634 2136333594 150120025 1088739283
REM
REM C.POTCAR (d86ddea03c3ceb6dc662c8ad6801f873)
REM 
CELL 1.54180   15.00000   15.00000   15.00000   90.00000   90.00000   90.00000
LATT -1
SFAC C  
C      1  0.3950592959870  0.5302309681627  0.1059034926195 1.0
C      1  0.2118606967069  0.2886726639537  0.7173204407396 1.0
C      1  0.3565962076820  0.1876273171076  0.6931401350790 1.0
C      1  0.6213334009020  0.7822635614667  0.4140770512086 1.0
C      1  0.4815197201239  0.4019423653356  0.6512080250344 1.0
C      1  0.1325275971947  0.7245017523766  0.3484531676340 1.0
C      1  0.3954869480087  0.2271157818815  0.2601408908200 1.0
C      1  0.2192070897242  0.3911323096282  0.5795603796398 1.0
C      1  0.2135087292628  0.1645573208788  0.6119508121892 1.0
C      1  0.5078533443171  0.1873453945335  0.7863435985334 1.0
C      1  0.0178834406452  0.3922866206491  0.4623516688931 1.0
C      1  0.6833685483802  0.8662661899367  0.4111313869056 1.0
C      1  0.2771920237690  0.6005273078947  0.6901934217634 1.0
C      1  0.7080717556985  0.3134995283558  0.8568898451618 1.0
C      1  0.7517354759146  0.5410033774186  0.6872890821604 1.0
C      1  0.3796919179677  0.4236053644407  0.7852557519234 1.0
C      1  0.3762783928744  0.3289427562744  0.2445499323669 1.0
C      1  0.8564760016495  0.6157585302400  0.3562390175700 1.0
C      1  0.5226396828748  0.9126101964358  0.6691682684274 1.0
C      1  0.3264895982656  0.5135419908684  0.6657723532182 1.0
C      1  0.3640675408426  0.8147170974215  0.6739401064062 1.0
C      1  0.3045358796164  0.3850714667369  0.2868268807854 1.0
C      1  0.3773226083386  0.6704529644522  0.5880943930393 1.0
C      1  0.5921788267072  0.0470988740938  0.2839234491868 1.0
C      1  0.4852060756630  0.4533484061078  0.2065364985536 1.0
C      1  0.1054765031508  0.7154077406678  0.4345123889137 1.0
C      1  0.5049310944621  0.1648026161869  0.6212287210735 1.0
C      1  0.6816459967966  0.3361068643022  0.3109471379070 1.0
C      1  0.6074641089170  0.7255910002705  0.4982269663374 1.0
C      1  0.7861683137176  0.8818312064876  0.5315290708667 1.0
C      1  0.7679377955465  0.2769552031561  0.6634707319143 1.0
C      1  0.2944844739628  0.5495883779684  0.8455350605856 1.0
C      1  0.2521021820605  0.6828825031891  0.2944312684776 1.0
C      1  0.3815143812386  0.8062107914172  0.4907811755469 1.0
C      1  0.7737553083124  0.2929976239513  0.2958182974697 1.0
C      1  0.2805731614885  0.3007383685421  0.8741207950837 1.0
C      1  0.2554924146584  0.4322210739484  0.6541509538585 1.0
C      1  0.2132376651525  0.7911172613361  0.3293162640136 1.0
C      1  0.6511833012046  0.9320270434005  0.4866120356863 1.0
C      1  0.2612293149644  0.7395167902194  0.7591471748102 1.0
C      1  0.6854292669134  0.7508637617793  0.7769398696401 1.0
C      1  0.5193010946113  0.6262300048688  0.3951451151833 1.0
C      1  0.4962383815455  0.9050601017283  0.3529755329103 1.0
C      1  0.6117669601043  0.5194045332520  0.3191248142331 1.0
C      1  0.4923544164229  0.7154398337887  0.3473981298302 1.0
C      1  0.5637513674328  0.9721831802091  0.4968726993944 1.0
C      1  0.8286420904890  0.7400395518635  0.5728351864235 1.0
C      1  0.2671207478408  0.1416465840297  0.5310273726851 1.0
C      1  0.8126422613542  0.4646646112182  0.6323138613271 1.0
C      1  0.7361576775879  0.7089906021475  0.6245037215460 1.0
C      1  0.3497011975026  0.1762647708200  0.3329150402933 1.0
C      1  0.1417104737494  0.2556066207093  0.2976293864203 1.0
C      1  0.5443637867172  0.3723882369879  0.7287821336290 1.0
C      1  0.9785890372742  0.4658771820184  0.5028362943110 1.0
C      1  0.7734091883085  0.2812179637559  0.1936245456433 1.0
C      1  0.1733109141918  0.7080996722437  0.7651967529409 1.0
C      1  0.7397741553781  0.1808149903278  0.6819216212694 1.0
C      1  0.3245558368622  0.6414303138596  0.3343361603670 1.0
C      1  0.2067636190413  0.5351795137500  0.8039645499905 1.0
C      1  0.1091024313614  0.5492645097706  0.5820653339616 1.0
C      1  0.1218855741804  0.4917683737822  0.2959982194831 1.0
C      1  0.3417754057906  0.8632034521572  0.4292514053357 1.0
C      1  0.8798206558098  0.5721107469488  0.7475961528406 1.0
C      1  0.2293393379805  0.2822541411763  0.1535926655683 1.0
C      1  0.4395335636745  0.6469198030436  0.8598293893600 1.0
C      1  0.8060489165163  0.4580984695523  0.8457225616222 1.0
C      1  0.5494914763067  0.2928230124175  0.8887107348636 1.0
C      1  0.8549974699037  0.4692483730968  0.3010679639664 1.0
C      1  0.4690597858304  0.2479365595622  0.3377831507048 1.0
C      1  0.2585453927353  0.5276241608922  0.1992405986362 1.0
C      1  0.4524161615970  0.8482200986863  0.6829813949261 1.0
C      1  0.5884039220766  0.5890601996793  0.0465657239048 1.0
C      1  0.4752415850321  0.2387132126572  0.8598432227311 1.0
C      1  0.7845863995059  0.1936677186957  0.6050540670140 1.0
C      1  0.7643936359920  0.6686563699129  0.2164153175598 1.0
C      1  0.6129280804114  0.8166054281474  0.7764271755894 1.0
C      1  0.6354368321567  0.5649046401382  0.6171621947379 1.0
C      1  0.1862859348328  0.5528792852031  0.3420008452032 1.0
C      1  0.2448774658320  0.7552895037670  0.4869025443920 1.0
C      1  0.8103827375942  0.1863995974853  0.5191180827564 1.0
C      1  0.1824513448767  0.4379348939662  0.4994102231173 1.0
C      1  0.3303581315541  0.4575478489675  0.8567852332988 1.0
C      1  0.3185134297834  0.4855015123137  0.2751908755049 1.0
C      1  0.5063192888085  0.5793849993806  0.8434353609101 1.0
C      1  0.1558897037421  0.7289221340798  0.5108303773831 1.0
C      1  0.4837573087433  0.7262993792702  0.8563494195482 1.0
C      1  0.4010259639946  0.6909785322903  0.2027502574670 1.0
C      1  0.2579057712640  0.8207393802062  0.4107085869208 1.0
C      1  0.8618210294976  0.4124858087039  0.7039412194580 1.0
C      1  0.2707703297562  0.5592441064187  0.5190970706061 1.0
C      1  0.5305570087782  0.6414515044281  0.1036657557145 1.0
C      1  0.4470209087983  0.0946603408070  0.4363136523823 1.0
C      1  0.6775387226433  0.5340643556026  0.3795554188299 1.0
C      1  0.4798142605437  0.9213379503069  0.5026640420097 1.0
C      1  0.8135912604619  0.1986280393560  0.4368069460395 1.0
C      1  0.5811699412452  0.4691141758129  0.5156925788500 1.0
C      1  0.8777857017097  0.4750309196923  0.7786261327446 1.0
C      1  0.4669830802812  0.3125439977072  0.7031023465583 1.0
C      1  0.5609368346805  0.4368019849425  0.3415055222034 1.0
C      1  0.8930347561103  0.6170145711229  0.5069291568313 1.0
C      1  0.4410188597579  0.4319737260447  0.1183656643658 1.0
C      1  0.5338622515497  0.4291573595330  0.8088529090343 1.0
C      1  0.9113990567194  0.6121215039126  0.6722090071325 1.0
C      1  0.1679212372189  0.5554010880466  0.2364944139433 1.0
C      1  0.5350351470528  0.0761145897657  0.4832268682719 1.0
C      1  0.7685925686678  0.8524542447838  0.6758797894129 1.0
C      1  0.2917625338387  0.0753755439075  0.4456450585739 1.0
C      1  0.7640838541531  0.3750861564647  0.8616757310440 1.0
C      1  0.5681546312341  0.9517215197267  0.3121781210286 1.0
C      1  0.5282384117322  0.7693746911317  0.7932973979297 1.0
C      1  0.3964049573490  0.7169756601233  0.6806177194163 1.0
C      1  0.5179567753985  0.8089866885877  0.3932317636680 1.0
C      1  0.6700983346746  0.4588623126520  0.4470759631512 1.0
C      1  0.1675873116007  0.2438094971060  0.6366771629582 1.0
C      1  0.6878850875167  0.3360953826511  0.6297379567048 1.0
C      1  0.7853232258636  0.2047611668370  0.3491493267652 1.0
C      1  0.5935222988012  0.3522848725997  0.0938319039361 1.0
C      1  0.6357479533245  0.3815856354192  0.3913837146241 1.0
C      1  0.4567456490595  0.4484875757334  0.3614617049130 1.0
C      1  0.1841998528422  0.5308783272000  0.5269514271532 1.0
C      1  0.2065062251629  0.3903477748426  0.7274004012337 1.0
C      1  0.5209961545171  0.4006905726842  0.0617708332862 1.0
C      1  0.3863226648982  0.3287502191313  0.7630772379068 1.0
C      1  0.3159581899680  0.5025420541951  0.4469264572479 1.0
C      1  0.4507491963608  0.3481602840886  0.3148996221541 1.0
C      1  0.3090645917429  0.5344994872140  0.1272944659581 1.0
C      1  0.6584767748164  0.7072882775452  0.3477266702065 1.0
C      1  0.4775192339504  0.8176436928313  0.4907317690940 1.0
C      1  0.7049318272238  0.6608506550164  0.8036254860336 1.0
C      1  0.3295191007419  0.6704514264602  0.7449465479373 1.0
C      1  0.1866392916768  0.7625839319375  0.6806325016720 1.0
C      1  0.6796982113195  0.6266470094481  0.4032981523525 1.0
C      1  0.8898147710125  0.6571054552435  0.5926985333296 1.0
C      1  0.7383529597655  0.1317177035480  0.3162020698678 1.0
C      1  0.6926086445662  0.9100962610154  0.6581627793399 1.0
C      1  0.8270106541118  0.8372844691706  0.6014423284629 1.0
C      1  0.0715569714152  0.4236423380616  0.3151867700734 1.0
C      1  0.1730505015272  0.2628785187456  0.2181745935350 1.0
C      1  0.8766171781919  0.5255588709549  0.3774708740759 1.0
C      1  0.5216818870986  0.0731761276533  0.5861812410231 1.0
C      1  0.2615338440664  0.7678660150374  0.2464582343442 1.0
C      1  0.2600553364959  0.4156737823545  0.4422085256912 1.0
C      1  0.5719722977060  0.6935526728265  0.2888644602325 1.0
C      1  0.4490845376174  0.6114332362600  0.1525759716742 1.0
C      1  0.5835313883757  0.1612350008082  0.4761929072783 1.0
C      1  0.3249999872217  0.1939873709993  0.7879784082537 1.0
C      1  0.2421703073221  0.2441799946980  0.8046569971273 1.0
C      1  0.6430127743126  0.7380130755779  0.5905992051261 1.0
C      1  0.5782509369215  0.2065350193016  0.5633758530024 1.0
C      1  0.1918495933589  0.4381871012629  0.8067211508452 1.0
C      1  0.2655816731309  0.3084412645869  0.4391291427170 1.0
C      1  0.5737701531592  0.5270257791298  0.9766461629703 1.0
C      1  0.4593315811574  0.2063067503585  0.6965689655410 1.0
C      1  0.7367120976062  0.6099474233297  0.1394476778952 1.0
C      1  0.5153034635668  0.7358003756651  0.5361063742360 1.0
C      1  0.7064666793830  0.7366138755236  0.2599929473592 1.0
C      1  0.1129644772285  0.2836126268280  0.3801881464664 1.0
C      1  0.4245662485341  0.1744987539884  0.3875040438214 1.0
C      1  0.2964644107250  0.3209007588156  0.1153992746067 1.0
C      1  0.4515706388919  0.5889440431959  0.4539745081284 1.0
C      1  0.4943946968677  0.5128602935973  0.7807409518597 1.0
C      1  0.8528810647196  0.6679823957255  0.4360398341665 1.0
C      1  0.7619677192414  0.4274245003679  0.1255292313355 1.0
C      1  0.7030347625560  0.2779265065066  0.1353993569911 1.0
C      1  0.6101687560294  0.8880871512774  0.7060606779430 1.0
C      1  0.3010925483962  0.1389595513592  0.6265339328557 1.0
C      1  0.1713163378284  0.2727561996922  0.4631743287864 1.0
C      1  0.8318415767996  0.5306846845243  0.2298147882991 1.0
C      1  0.6765394266795  0.5936710541688  0.8639644503556 1.0
C      1  0.0479370926820  0.4762660567913  0.5703469115248 1.0
C      1  0.6521093619421  0.1558995946947  0.7096721289565 1.0
C      1  0.5465972789534  0.3977759227367  0.5651451516669 1.0
C      1  0.8361981006837  0.3791401100179  0.2747056741056 1.0
C      1  0.3289659625897  0.7396638955575  0.5279978494170 1.0
C      1  0.0939496128949  0.3937188286446  0.5276408697716 1.0
C      1  0.6056007844062  0.1916278844795  0.7837826768556 1.0
C      1  0.7775571446522  0.5195072650186  0.1520785915284 1.0
C      1  0.3392724538039  0.7575306752980  0.1994238976294 1.0
C      1  0.7436924531432  0.4494222875716  0.5100262291035 1.0
C      1  0.1453099280631  0.7087857658980  0.6080321982826 1.0
C      1  0.5469901607575  0.1385501928524  0.2546881251852 1.0
C      1  0.5973967173371  0.1306653095150  0.6315838854953 1.0
C      1  0.5377641831691  0.4421354857742  0.9756939683234 1.0
C      1  0.2752959511861  0.1462877567079  0.3858200888701 1.0
C      1  0.2670342049886  0.8173174145594  0.7022819072637 1.0
C      1  0.6044864031064  0.6311001150159  0.4656604731992 1.0
C      1  0.6116246766053  0.7478521882141  0.2120185084417 1.0
C      1  0.7809800543002  0.5922935147075  0.7734724810723 1.0
C      1  0.5326105980771  0.3805805698417  0.2646304528423 1.0
C      1  0.2515709458292  0.2123207019621  0.4582400114064 1.0
C      1  0.7128876355417  0.6128503179786  0.6345589567853 1.0
C      1  0.6346015830582  0.3898731539284  0.6949677573784 1.0
C      1  0.7456097315687  0.7683522714547  0.7077382460624 1.0
C      1  0.5645362798492  0.2226404663843  0.3171298593547 1.0
C      1  0.3143322585294  0.5932218777456  0.5986775313515 1.0
C      1  0.3794628774715  0.0304287828040  0.4341529837005 1.0
C      1  0.4122122447979  0.9373973260721  0.4202178592335 1.0
C      1  0.5403079711207  0.3918680783471  0.8952152557983 1.0
C      1  0.4841346395579  0.5538440671361  0.2315010391740 1.0
C      1  0.3744721533789  0.3579680926942  0.1451283564799 1.0
C      1  0.7560712031516  0.5383214400462  0.8510188599820 1.0
C      1  0.2593727518582  0.3913460640114  0.8662983483835 1.0
C      1  0.8127058899241  0.3676107862432  0.1834474230480 1.0
C      1  0.1547738191737  0.3110339004822  0.5622343581317 1.0
C      1  0.5517411727565  0.5926643410120  0.2955827662232 1.0
C      1  0.8401578686851  0.3248396788603  0.7036973574555 1.0
C      1  0.6503904604267  0.8891533725182  0.3116300663954 1.0
C      1  0.6078877450265  0.3071204410925  0.5534547465849 1.0
C      1  0.0506663012657  0.3611968236593  0.3774813070310 1.0
C      1  0.4562376083026  0.6504166411614  0.5311082714478 1.0
C      1  0.4190537598176  0.4785206759421  0.7097596017743 1.0
C      1  0.6189672159003  0.3052232493909  0.4510560186548 1.0
C      1  0.7747935915506  0.8328514014164  0.4505901864854 1.0
C      1  0.5993175444092  0.2226599688370  0.4103512883762 1.0
C      1  0.1794787972960  0.6087155398237  0.7312958930384 1.0
C      1  0.7065105840442  0.9288927180705  0.5605798163308 1.0
C      1  0.7256261906407  0.4229475816894  0.6010682408453 1.0
C      1  0.6665644097351  0.8260168413581  0.2467006765035 1.0
C      1  0.2881426475936  0.5446121177049  0.3551768326345 1.0
C      1  0.5114786811953  0.9723515760838  0.5908418818094 1.0
C      1  0.9000307206050  0.5202449836033  0.4770868974110 1.0
C      1  0.5809043355846  0.5651084419761  0.5392115301503 1.0
C      1  0.4647201318487  0.1748765889718  0.2058714201535 1.0
C      1  0.6915162272808  0.3646045086842  0.0914562372871 1.0
C      1  0.6638954011244  0.6363004389759  0.0896531409589 1.0
C      1  0.6312176175800  0.2597592777585  0.8503537589259 1.0
C      1  0.3789915302235  0.2637414357615  0.8443827437942 1.0
C      1  0.3501784762841  0.6249759377893  0.8314225194616 1.0
C      1  0.1226882492119  0.6240086097905  0.6419480385983 1.0
C      1  0.5444245246837  0.1900247381505  0.1668149548902 1.0
C      1  0.6800292631455  0.0740845075215  0.2972128645367 1.0
C      1  0.8147883631548  0.7474238910466  0.4712007495971 1.0
C      1  0.4924671691039  0.7539458085770  0.6996937355107 1.0
C      1  0.2659824634156  0.3625822871622  0.3622421557609 1.0
C      1  0.4065590728049  0.6863203663142  0.3014641804164 1.0
C      1  0.5575485968647  0.7396065742012  0.6259622749939 1.0
C      1  0.4204347132516  0.4908255556924  0.2738968419249 1.0
C      1  0.8262824458417  0.4800347336941  0.5315001583831 1.0
C      1  0.4151256202567  0.5042902719392  0.4381200991795 1.0
C      1  0.6018175079911  0.3049638844449  0.2570590980238 1.0
C      1  0.6667984319397  0.4815800914405  0.6649524629428 1.0
C      1  0.8259484068182  0.6200056623118  0.2656903648166 1.0
C      1  0.6048775474513  0.2710171960947  0.1576766314167 1.0
C      1  0.5906489070072  0.5737224456282  0.8953791817809 1.0
C      1  0.5993783402689  0.7010491927229  0.1288234630280 1.0
C      1  0.3135412047383  0.2763099550824  0.7152349536090 1.0
C      1  0.1660532699291  0.6398309618764  0.2993266243481 1.0
END
