TITL C-296322-9102-1 4.057 3375.00 0 0 0 501 (C1) n - 1
REM
REM Run started: at 2020.03.13 12:35:03 in /rds/user/bk393/hpc-work/AIRSS.pl-DENE/CARBON/New-Try
REM VASP from code version vasp.5.4.4.18Apr17-6-g9f103f2a35 (build Oct 11 2019 16:45:47) gamma-only
REM
REM
REM
REM
REM ./C.cell (a79a4077332dcb654850026c449f6690)
REM AIRSS Version 0.9.1 bugfix July 2018 build 013d7b7c2542+ Fri, 06 Jul 2018 19:26:36 +0100
REM compiler GCC version 4.8.5 20150623 (Red Hat 4.8.5-39)
REM options -cpp -mtune=generic -march=x86-64 -g -O0
REM seed 1881699217 1393106992 1499744107 1680975698 480783373 2037817673 1561196664 553193681 -203713760 546753477 689468548 931876486
REM
REM C.POTCAR (d86ddea03c3ceb6dc662c8ad6801f873)
REM 
CELL 1.54180   15.00000   15.00000   15.00000   90.00000   90.00000   90.00000
LATT -1
SFAC C  
C      1  0.2507293137492  0.5707147843566  0.6248493992428 1.0
C      1  0.7807380506302  0.9295882567279  0.5183073059626 1.0
C      1  0.1038802590651  0.3407768633370  0.8320488978482 1.0
C      1  0.2831931353459  0.1114701306780  0.1161742651523 1.0
C      1  0.9294250416993  0.1509681958787  0.4616517955366 1.0
C      1  0.5206365949616  0.6904310868222  0.3736153673735 1.0
C      1  0.5247051732555  0.4289812442286  0.4510634740594 1.0
C      1  0.3269510280341  0.4333641277799  0.7364150550734 1.0
C      1  0.9411187588016  0.8970187729274  0.4113793811375 1.0
C      1  0.3398680545443  0.0560882262433  0.5838736075734 1.0
C      1  0.5806091549749  0.8390969812583  0.5592493167494 1.0
C      1  0.2831045888845  0.5588022894392  0.8669563178114 1.0
C      1  0.2780084833032  0.9578610376550  0.4669189318367 1.0
C      1  0.6755184015811  0.8027434624936  0.5678446406269 1.0
C      1  0.3329342820300  0.3248041162879  0.4029772422955 1.0
C      1  0.0844489040311  0.0684640032351  0.3851416025997 1.0
C      1  0.1286135300524  0.4361632533390  0.4978625090729 1.0
C      1  0.0354935018613  0.4333014487389  0.6457178143804 1.0
C      1  0.9689048976223  0.4586707398958  0.3492741370389 1.0
C      1  0.6508661452487  0.4010995320592  0.8670261103375 1.0
C      1  0.5182577333038  0.1080230203237  0.8159384664272 1.0
C      1  0.8033414896029  0.8331764386295  0.3223854928268 1.0
C      1  0.3521507216364  0.6759499316894  0.1512705161932 1.0
C      1  0.4054756168360  0.1351046588650  0.5792965463281 1.0
C      1  0.3237503684487  0.7582989636328  0.0977761972616 1.0
C      1  0.8052498327990  0.6784211022506  0.6498471516738 1.0
C      1  0.6006315402108  0.5625512676003  0.7590234608732 1.0
C      1  0.8092671371980  0.5383026573888  0.2417975238253 1.0
C      1  0.6688796646685  0.7508222533989  0.9421785129962 1.0
C      1  0.5371092022028  0.4879680421469  0.3078973247835 1.0
C      1  0.9260049208306  0.3984191116411  0.2782583008727 1.0
C      1  0.3031508876282  0.2650029107834  0.5384168802893 1.0
C      1  0.5358018715345  0.6339173915102  0.2991464530887 1.0
C      1  0.7172064823299  0.4700600088509  0.6935252225889 1.0
C      1  0.1152130923559  0.5331113933482  0.5058172674046 1.0
C      1  0.3139526059849  0.9836903918640  0.7349082562293 1.0
C      1  0.3624958760548  0.5763861837575  0.2863072800278 1.0
C      1  0.5488498956894  0.3867015133559  0.3051707419070 1.0
C      1  0.7784921170720  0.2901026314657  0.5686355388698 1.0
C      1  0.1066582378898  0.1681490411995  0.8127777649309 1.0
C      1  0.3671175568321  0.8510295555767  0.2183086890010 1.0
C      1  0.8428264620501  0.3478476065342  0.1213127174535 1.0
C      1  0.7864908152395  0.5999090065805  0.6053733243333 1.0
C      1  0.2499575703290  0.3672262154231  0.7523955147603 1.0
C      1  0.6150514429208  0.4727247519082  0.0263905247790 1.0
C      1  0.7285965858536  0.2545793302829  0.8376169156479 1.0
C      1  0.8127945357972  0.3132300953582  0.2176470005495 1.0
C      1  0.1934979904565  0.6698034536005  0.0394549247642 1.0
C      1  0.3839428252208  0.9498159191977  0.7912803180502 1.0
C      1  0.5638492617684  0.4723681523133  0.7403667626414 1.0
C      1  0.4544412345484  0.6007512535903  0.2551213637163 1.0
C      1  0.5080971431372  0.7075514880072  0.8057038539910 1.0
C      1  0.5294933278815  0.8998157363624  0.9691513563651 1.0
C      1  0.9609605376239  0.2415990007149  0.4774989784797 1.0
C      1  0.9784551022614  0.6343283531508  0.4105510508376 1.0
C      1  0.9949140674938  0.5993414844898  0.5709541900090 1.0
C      1  0.2844663285557  0.1902686278656  0.0444452524863 1.0
C      1  0.3483516151022  0.7285530919870  0.7656925910215 1.0
C      1  0.5594825757295  0.2604762625665  0.1936035678615 1.0
C      1  0.4931137428934  0.3628030156337  0.3798749809731 1.0
C      1  0.2422357774747  0.8923292778800  0.1529775928790 1.0
C      1  0.0148047280755  0.8176217252343  0.6464207578832 1.0
C      1  0.3772856870662  0.2707854003367  0.1672134681157 1.0
C      1  0.4418059614782  0.9989428393172  0.3247133809540 1.0
C      1  0.5361446888566  0.2593572989903  0.5356677457520 1.0
C      1  0.7259743829051  0.9099436061378  0.0824921287051 1.0
C      1  0.9849248168090  0.3914643941353  0.4773999220407 1.0
C      1  0.0719443178044  0.7234842310077  0.6502560711002 1.0
C      1  0.5669605493525  0.4184112956611  0.8242572201156 1.0
C      1  0.6523969393793  0.1678819172055  0.1393286854535 1.0
C      1  0.1400257968476  0.0337933572178  0.5431273702909 1.0
C      1  0.2854583270395  0.2087354024795  0.9428150273480 1.0
C      1  0.2509869409291  0.4565086836471  0.3301937970848 1.0
C      1  0.7269785634713  0.6824004509859  0.4889246086650 1.0
C      1  0.3548258972044  0.0861336697680  0.1729356520955 1.0
C      1  0.4959482008431  0.5148276920164  0.2248870473463 1.0
C      1  0.5811133738903  0.0105125701747  0.5974422309894 1.0
C      1  0.2955727896249  0.7190152455221  0.5890195638418 1.0
C      1  0.5824118320927  0.8527140479541  0.0456952736720 1.0
C      1  0.6280265042786  0.0743590692081  0.1680545500814 1.0
C      1  0.9153729272147  0.2444995120442  0.7316091524067 1.0
C      1  0.4711248987999  0.1463127629584  0.6546894716285 1.0
C      1  0.1104066900661  0.7695459424599  0.7852306181449 1.0
C      1  0.6638389417103  0.7044115395792  0.5594868274353 1.0
C      1  0.3203975058671  0.6606041055110  0.2481495049937 1.0
C      1  0.3424976315807  0.5879842907828  0.1068969829054 1.0
C      1  0.7605120335939  0.4968653060585  0.0448963261429 1.0
C      1  0.4379500115176  0.6691832181533  0.5275459608766 1.0
C      1  0.6894331381753  0.4202622299257  0.2512464155854 1.0
C      1  0.1748232906545  0.2335242762530  0.7005892270293 1.0
C      1  0.5829053314751  0.8927899927444  0.2591703613899 1.0
C      1  0.3746741915443  0.4564922384785  0.9867897286175 1.0
C      1  0.4936843520747  0.8126077047854  0.0821126177825 1.0
C      1  0.9398737109268  0.4734152891059  0.9162366540250 1.0
C      1  0.5390672105555  0.7856514105566  0.4837287049005 1.0
C      1  0.6853150223893  0.7809741071890  0.1754540723953 1.0
C      1  0.4709626117244  0.4822341881268  0.7026787914094 1.0
C      1  0.0635220492411  0.8234198468883  0.3166828637377 1.0
C      1  0.4980759146311  0.7594732336895  0.1704300965537 1.0
C      1  0.9544431238220  0.6759791700041  0.7442419621383 1.0
C      1  0.7523794526156  0.3057263081117  0.7521747411956 1.0
C      1  0.6071835748784  0.5591413202505  0.3236358794585 1.0
C      1  0.5298036692360  0.7970817398729  0.8095266035137 1.0
C      1  0.8620668098413  0.5043323694915  0.0645313530882 1.0
C      1  0.7749409567083  0.3240522170832  0.0478347654549 1.0
C      1  0.3225091049792  0.6031227797720  0.9422375501061 1.0
C      1  0.2236521695620  0.6692706974509  0.2726176066812 1.0
C      1  0.4421232431270  0.7621981037987  0.4825171773439 1.0
C      1  0.2001465827404  0.1277297872122  0.1555705391147 1.0
C      1  0.4133210509419  0.4344287128875  0.3648899993478 1.0
C      1  0.9006220607597  0.7086983134766  0.6588561734388 1.0
C      1  0.9817137925957  0.5158649516483  0.6271643721187 1.0
C      1  0.1415263652930  0.8822771073165  0.4785824020858 1.0
C      1  0.4830738837128  0.9650876175971  0.4105229640552 1.0
C      1  0.6995875531220  0.8851511542519  0.8200050407716 1.0
C      1  0.1253774798955  0.8173782807268  0.2347438350790 1.0
C      1  0.5974423743186  0.7004614081223  0.9174237229091 1.0
C      1  0.7194187726548  0.1013654905017  0.5627124131103 1.0
C      1  0.6728668018270  0.0378859714318  0.8465040724338 1.0
C      1  0.0919995499022  0.6555183320351  0.3105021747691 1.0
C      1  0.7417219063287  0.6474191041103  0.3314139972172 1.0
C      1  0.1799069127741  0.9011365925054  0.2205972968708 1.0
C      1  0.7450888175562  0.6047718135409  0.8214505271068 1.0
C      1  0.3458430323865  0.4354584630854  0.1910526944270 1.0
C      1  0.5927196774032  0.0006050474091  0.1193749759615 1.0
C      1  0.5303845695612  0.4333376611703  0.0328314389614 1.0
C      1  0.2393129085911  0.8062592424956  0.1064036787598 1.0
C      1  0.6815015034280  0.0958176532174  0.6974688781397 1.0
C      1  0.9827956328603  0.4178405696603  0.8031121010230 1.0
C      1  0.2044271179799  0.7484554915633  0.5567217860440 1.0
C      1  0.9363110086764  0.2501274973094  0.5771833416226 1.0
C      1  0.7717637490532  0.8375517605858  0.8431784199715 1.0
C      1  0.3600485434611  0.6275376758516  0.7311886481057 1.0
C      1  0.8488772219455  0.4918663304626  0.4796024188262 1.0
C      1  0.8040456309485  0.1088571725607  0.2410546216425 1.0
C      1  0.4516307994341  0.6662434390655  0.1723696330633 1.0
C      1  0.9124480594432  0.5986952816213  0.8019094993851 1.0
C      1  0.1102352564892  0.5813952367700  0.1451566410437 1.0
C      1  0.9375374720141  0.3782759420268  0.8888278193922 1.0
C      1  0.8104434070474  0.1044840272175  0.5760130531875 1.0
C      1  0.1538931181734  0.5847886684781  0.5893813570711 1.0
C      1  0.3480533288413  0.9136411517386  0.8682629739615 1.0
C      1  0.3476419967052  0.7953238657774  0.6140233795918 1.0
C      1  0.8174473533715  0.5650660676012  0.4274285382765 1.0
C      1  0.7070578869200  0.1634367092093  0.9939859605567 1.0
C      1  0.5358070869588  0.5577719192257  0.5673906371412 1.0
C      1  0.9017252288792  0.4830125163808  0.6276819005866 1.0
C      1  0.2494503508090  0.3010636053651  0.6789259681841 1.0
C      1  0.8543374266235  0.1153308730270  0.6607052381676 1.0
C      1  0.6205535658922  0.4519621054011  0.4327821198710 1.0
C      1  0.4353854143301  0.1143184858008  0.8649930477215 1.0
C      1  0.5211666512909  0.0427937851963  0.1669762205618 1.0
C      1  0.1467739134988  0.2806794287729  0.4560490362649 1.0
C      1  0.6862262968105  0.8885416973954  0.7221684564066 1.0
C      1  0.3127791927150  0.8116883423608  0.2939629895289 1.0
C      1  0.8911640591873  0.5952908978429  0.1076828538230 1.0
C      1  0.5578553929373  0.7849177805192  0.3788918799909 1.0
C      1  0.1077038952954  0.3294779925491  0.2132207191518 1.0
C      1  0.4797307525692  0.5014304630582  0.3973764959523 1.0
C      1  0.1754622685464  0.5956784294325  0.4536821062094 1.0
C      1  0.6253871744759  0.5226591610232  0.5997166370304 1.0
C      1  0.6877207662336  0.3920968257835  0.4654454977790 1.0
C      1  0.9293284829561  0.7664394945342  0.7840416162720 1.0
C      1  0.4210744430655  0.3287953005656  0.8012335426787 1.0
C      1  0.1450267156583  0.7669739139768  0.8799321242350 1.0
C      1  0.8824494615988  0.7139355773045  0.4937355903113 1.0
C      1  0.5263285660783  0.6353547997745  0.7452598488102 1.0
C      1  0.7284084498410  0.7296462300576  0.6955281889589 1.0
C      1  0.9381861143424  0.7378794179598  0.1978572563690 1.0
C      1  0.9816230783305  0.3739719947225  0.7150269084389 1.0
C      1  0.4538773272629  0.2360922289243  0.6867158693165 1.0
C      1  0.5110964911909  0.2648608214366  0.3875632260101 1.0
C      1  0.8459321950394  0.3400985443623  0.8756427512812 1.0
C      1  0.8729079176748  0.3226974380826  0.5630585294275 1.0
C      1  0.1419350295455  0.2682766133332  0.0627431922252 1.0
C      1  0.6818231704513  0.6922953732217  0.4031439903363 1.0
C      1  0.2742858777064  0.1860516358288  0.8363172656008 1.0
C      1  0.4795038723802  0.3263266017415  0.6698222726964 1.0
C      1  0.3483367004285  0.0224021684491  0.4929747133922 1.0
C      1  0.1394350689214  0.0399121127876  0.3157194034388 1.0
C      1  0.6545553370185  0.7772946109475  0.3716147518225 1.0
C      1  0.9854225151683  0.3065476868715  0.9408188330660 1.0
C      1  0.7975771458115  0.7516218156676  0.5017652124991 1.0
C      1  0.6382479434626  0.1810306640377  0.3002998825941 1.0
C      1  0.6600735142947  0.5700675007349  0.6815465459577 1.0
C      1  0.0103166032285  0.6037746844189  0.1396171375752 1.0
C      1  0.1712241085012  0.4297944568979  0.1109295686504 1.0
C      1  0.9771529098573  0.7524738287219  0.5104157383179 1.0
C      1  0.7300083917308  0.8100940428549  0.0871824954651 1.0
C      1  0.2265994292298  0.9376583743321  0.7592234212096 1.0
C      1  0.4213632717674  0.6059871176335  0.9049895471879 1.0
C      1  0.1969050908332  0.4526594857147  0.7205886750786 1.0
C      1  0.4626943028967  0.7375963258229  0.0216116296174 1.0
C      1  0.0794466971646  0.6486004966921  0.5888850705597 1.0
C      1  0.6445011925540  0.9564866556534  0.4574805431796 1.0
C      1  0.2153929437571  0.8101065483413  0.4761785526807 1.0
C      1  0.1208115690916  0.5919540085728  0.8971772277276 1.0
C      1  0.1845655118408  0.4567458427739  0.9493790192816 1.0
C      1  0.1713890465740  0.7450728997516  0.0932594361082 1.0
C      1  0.0115253256501  0.7042126585860  0.1561231253279 1.0
C      1  0.3836141372660  0.8341227954685  0.5318763756002 1.0
C      1  0.6089313066873  0.1233149931944  0.8559053016884 1.0
C      1  0.4339302277109  0.1449268580008  0.4784768304668 1.0
C      1  0.7372021590658  0.1590941430471  0.0856849646467 1.0
C      1  0.2710620298165  0.1614831786321  0.4036627793209 1.0
C      1  0.7334504807890  0.0908229416471  0.7832035659911 1.0
C      1  0.4397554101657  0.9027201399259  0.3515927461641 1.0
C      1  0.2540582204356  0.8899815916504  0.8471176583980 1.0
C      1  0.3362139391137  0.2472687748983  0.6832979289089 1.0
C      1  0.9115346311424  0.6616055714939  0.2608212800275 1.0
C      1  0.2828041716178  0.9631005415343  0.3592076103846 1.0
C      1  0.4432058091589  0.5711804079010  0.7448850958312 1.0
C      1  0.8335629697164  0.3826883982137  0.2991358985987 1.0
C      1  0.4441326557561  0.6947642890990  0.8767419386661 1.0
C      1  0.2888026819200  0.4208345016408  0.5778869814635 1.0
C      1  0.0457855602944  0.2668545357609  0.2585147261750 1.0
C      1  0.4251044021275  0.0809757811521  0.9522525677303 1.0
C      1  0.9668413755747  0.5193554105918  0.8325392580330 1.0
C      1  0.3144226811081  0.3863222583581  0.0387701086580 1.0
C      1  0.3569639952295  0.9947364819821  0.6534832116218 1.0
C      1  0.8157831784474  0.5587511652353  0.7894493020178 1.0
C      1  0.6769574267011  0.1785854976231  0.8045966806579 1.0
C      1  0.7104959895610  0.3230718907307  0.2014221310879 1.0
C      1  0.1513455215189  0.3448781851970  0.5355721887393 1.0
C      1  0.0962056723799  0.4854215961601  0.2658435644566 1.0
C      1  0.8731247831157  0.1579280663818  0.2907074744021 1.0
C      1  0.1795093680064  0.1771259865089  0.4515592447859 1.0
C      1  0.7245466183577  0.5802074458248  0.4692934605327 1.0
C      1  0.9114834874289  0.1175802868115  0.3662174013625 1.0
C      1  0.2112883824249  0.2167557184696  0.1094984228951 1.0
C      1  0.3333210893512  0.4181400752582  0.9037260316963 1.0
C      1  0.5172720809882  0.3390210865559  0.5838930685965 1.0
C      1  0.9467531190554  0.4814765106786  0.4529813918959 1.0
C      1  0.6729273549172  0.0421996881229  0.6171950442921 1.0
C      1  0.8721362754534  0.9205701501361  0.5599173204753 1.0
C      1  0.4221024546643  0.5392913781321  0.1112678922405 1.0
C      1  0.5796920185546  0.9863570393625  0.3936527027668 1.0
C      1  0.4703470386483  0.2369275216104  0.9540495628156 1.0
C      1  0.6725793351648  0.0257016410403  0.2519432844501 1.0
C      1  0.7920651375037  0.6500453788914  0.9933687389095 1.0
C      1  0.3802272134674  0.7387846434165  0.2995833748389 1.0
C      1  0.6905188154269  0.3478349935212  0.1007632725753 1.0
C      1  0.6724237393023  0.8081316676903  0.6672915778542 1.0
C      1  0.4381714698694  0.9104250302960  0.5613122866711 1.0
C      1  0.9634373156278  0.8093379470841  0.3640753290566 1.0
C      1  0.7671073640270  0.2203510694215  0.4855269907957 1.0
C      1  0.8268578899215  0.6741701886251  0.0846073874856 1.0
C      1  0.1603458939920  0.4935873647575  0.3343499738677 1.0
C      1  0.8312878315823  0.3451668545363  0.3999529554060 1.0
C      1  0.1576412000273  0.6754786368867  0.9121280285300 1.0
C      1  0.3259901304507  0.5409274233674  0.0127584135051 1.0
C      1  0.4481448536251  0.7972033066656  0.2455226278201 1.0
C      1  0.5708668946736  0.5575073696478  0.1718826697606 1.0
C      1  0.1502020428236  0.4866277730571  0.0270983613703 1.0
C      1  0.7874571537805  0.4132121573484  0.4583707566348 1.0
C      1  0.4430914901758  0.9476307471351  0.6524579391330 1.0
C      1  0.9085780733957  0.3270221783919  0.4666526186288 1.0
C      1  0.1176859685678  0.2010253783756  0.2935760831642 1.0
C      1  0.9184198628125  0.8113121086645  0.6905801804723 1.0
C      1  0.1311923347300  0.8792008766201  0.3736870009971 1.0
C      1  0.0927752913980  0.7403580305052  0.3668388709801 1.0
C      1  0.7612262944832  0.7548619612952  0.7843387919053 1.0
C      1  0.6350609252979  0.5539098014654  0.4202363953742 1.0
C      1  0.0616279993938  0.5422694615737  0.8369227454562 1.0
C      1  0.7190631141420  0.9535535515540  0.5950392150433 1.0
C      1  0.3256274088486  0.1928878785666  0.6034346857732 1.0
C      1  0.4314893997626  0.0519674977939  0.1173663561907 1.0
C      1  0.3387467515173  0.4830181795592  0.8300426975644 1.0
C      1  0.6337549962253  0.9263923681625  0.0865511265955 1.0
C      1  0.9591685669461  0.4360743786774  0.1891716301269 1.0
C      1  0.2183515009531  0.8194677138704  0.9036101247229 1.0
C      1  0.3739438931344  0.2620190009301  0.9413233231959 1.0
C      1  0.5783177084097  0.6953501076225  0.5158528908722 1.0
C      1  0.1971563184014  0.1558733299036  0.7654633491510 1.0
C      1  0.6392688981965  0.1228475942242  0.9529094538774 1.0
C      1  0.2432680984864  0.3343848171855  0.5830727932151 1.0
C      1  0.3474917307536  0.4182926910544  0.4323294812167 1.0
C      1  0.5682555781469  0.7961816256823  0.6586725039523 1.0
C      1  0.4843457614602  0.1994535729564  0.0463984339960 1.0
C      1  0.7743165497514  0.4641541765181  0.9489035300647 1.0
C      1  0.5910077431499  0.6474623631784  0.4339676899246 1.0
C      1  0.7411254502777  0.3781562586707  0.5425419428652 1.0
C      1  0.6519546911499  0.2372422281093  0.2182344550729 1.0
C      1  0.8289886762643  0.2374927888809  0.8713809365309 1.0
C      1  0.0610803923186  0.0496064747648  0.4830093420945 1.0
C      1  0.3527762959648  0.0975456149711  0.4267331214566 1.0
C      1  0.1401230474615  0.1630771625381  0.6275015260096 1.0
C      1  0.8588190668538  0.8906093867190  0.1894140382609 1.0
C      1  0.9098554402373  0.6563963510149  0.8864673892053 1.0
C      1  0.5311183075785  0.2916103062564  0.9175114697004 1.0
C      1  0.8691987792643  0.1882919565225  0.7976674012924 1.0
C      1  0.2674394837666  0.2579186409330  0.2672425171453 1.0
C      1  0.1766845530122  0.3417548943423  0.3756585790312 1.0
C      1  0.0792632912267  0.4331424475392  0.8085289621406 1.0
C      1  0.1730298539918  0.1229978711069  0.2572063802045 1.0
C      1  0.1790526066424  0.7866995915905  0.3845116318055 1.0
C      1  0.2614309168588  0.8452449428463  0.7491519908279 1.0
C      1  0.6094868519777  0.2367662777045  0.3839854492600 1.0
C      1  0.3546430006969  0.3290824158456  0.8700689315067 1.0
C      1  0.7747391435065  0.4590878880200  0.2857373812905 1.0
C      1  0.7573296479985  0.6914853556658  0.8434216147906 1.0
C      1  0.8658208621089  0.6090932609932  0.9483137656654 1.0
C      1  0.3649788881341  0.7526423602594  0.8621720169037 1.0
C      1  0.2984235047092  0.2453445730023  0.4449397321072 1.0
C      1  0.7715281338795  0.4387271895294  0.6145308375716 1.0
C      1  0.7548819296916  0.8300529148021  0.5177295372285 1.0
C      1  0.2912954035045  0.4953660445096  0.4095793282936 1.0
C      1  0.1845075135884  0.1281745454436  0.5419980018773 1.0
C      1  0.9691642934686  0.5333809425949  0.2047840102434 1.0
C      1  0.5266916197660  0.1117583192526  0.4744179650130 1.0
C      1  0.0309802006998  0.3921095340919  0.3877330242945 1.0
C      1  0.6054496976797  0.6964931936404  0.0731320863102 1.0
C      1  0.6265558420003  0.9509847488058  0.8332418696029 1.0
C      1  0.6503988983783  0.1810251686089  0.7104218945500 1.0
C      1  0.1422225938778  0.2735751323881  0.9678389673919 1.0
C      1  0.1751643767485  0.2915512296668  0.2898822412007 1.0
C      1  0.8453066010237  0.6856999148948  0.3337474654964 1.0
C      1  0.6583569534708  0.5612793947407  0.8410810358045 1.0
C      1  0.4446119179274  0.1075666045386  0.0355615996417 1.0
C      1  0.4284786230792  0.5291485569888  0.8363739905201 1.0
C      1  0.8958855738460  0.4211715273374  0.1144490510755 1.0
C      1  0.2497222697187  0.6747667979315  0.9584099356733 1.0
C      1  0.2758372496258  0.4355328564797  0.1185128755064 1.0
C      1  0.7443636370183  0.6600365753889  0.1484347982240 1.0
C      1  0.2631651279390  0.1580304262149  0.2983741757655 1.0
C      1  0.0503017893040  0.2455808778377  0.4270474888373 1.0
C      1  0.6174679396933  0.2285069490834  0.5624409145174 1.0
C      1  0.7102680469584  0.4750975756189  0.8646515367862 1.0
C      1  0.9370729243910  0.2447497519348  0.9841491953764 1.0
C      1  0.1963873520349  0.0937067032043  0.6788841539113 1.0
C      1  0.5154901832927  0.6509464683750  0.0369771082486 1.0
C      1  0.7754479129823  0.2273815746942  0.0248568204037 1.0
C      1  0.1979983053247  0.7694781351927  0.7345198289768 1.0
C      1  0.6470394604101  0.0261835269485  0.9450339662548 1.0
C      1  0.2844786181399  0.2595411699413  0.1723501957804 1.0
C      1  0.1551047714448  0.7792711650467  0.6452176958612 1.0
C      1  0.9374741680386  0.6821256452603  0.5702547977679 1.0
C      1  0.5188607330212  0.6541967620086  0.5828451540355 1.0
C      1  0.6378441717774  0.5503245682090  0.9849877807914 1.0
C      1  0.3817741665384  0.2825188756624  0.4780988607454 1.0
C      1  0.7202239637215  0.0973839682223  0.3033510791780 1.0
C      1  0.7900823689992  0.9487791647099  0.1479478998159 1.0
C      1  0.3401369852806  0.6605523266278  0.5222874794155 1.0
C      1  0.4055916973008  0.9562311003391  0.0967643914892 1.0
C      1  0.2276294990638  0.2932936386204  0.9274490806552 1.0
C      1  0.8790334683966  0.6449199881429  0.4206598180524 1.0
C      1  0.0459979567001  0.1567986932108  0.6034877834195 1.0
C      1  0.4144887229568  0.3001662008496  0.2487619739023 1.0
C      1  0.9039830737086  0.7540810982839  0.8719271017976 1.0
C      1  0.8861889409857  0.3466276431078  0.7156737702015 1.0
C      1  0.4190365567207  0.7154058059820  0.3909660270930 1.0
C      1  0.4909112040818  0.4561058128725  0.8776295815749 1.0
C      1  0.2661982529836  0.5357513251929  0.0900524290183 1.0
C      1  0.3359334869670  0.4696396950968  0.2791718430243 1.0
C      1  0.3751537961990  0.4277481605528  0.5254582271482 1.0
C      1  0.3479778134629  0.6559609888268  0.4244479718467 1.0
C      1  0.3533664502261  0.2931278978557  0.0334515650650 1.0
C      1  0.7097532549002  0.5550520791210  0.5581912397731 1.0
C      1  0.3670982076331  0.1596776678127  0.8145547734198 1.0
C      1  0.6152140954844  0.3050671528021  0.9606490043887 1.0
C      1  0.1557389403850  0.6653164748497  0.5247361467661 1.0
C      1  0.6765477443790  0.3139361387261  0.3946982230306 1.0
C      1  0.5709416844261  0.2172322116363  0.1023429743965 1.0
C      1  0.5150156755554  0.3534829168342  0.0737720277147 1.0
C      1  0.2199819762867  0.7692574971960  0.2972669641500 1.0
C      1  0.0981553432073  0.1662554739005  0.3876769111435 1.0
C      1  0.3107582187370  0.5714114940942  0.5457163329674 1.0
C      1  0.5947734914151  0.5994334687184  0.9151049770256 1.0
C      1  0.3556940396036  0.8150264517902  0.7092490286725 1.0
C      1  0.4976095868700  0.8331606721992  0.8990570142345 1.0
C      1  0.7203019950399  0.5846001624307  0.0197486259683 1.0
C      1  0.2703887433002  0.4763957596275  0.6582846435030 1.0
C      1  0.1010470937510  0.4651431745779  0.7130108818945 1.0
C      1  0.3074013386875  0.8599402513095  0.4644727212114 1.0
C      1  0.9522514228268  0.2977508251463  0.2837495541088 1.0
C      1  0.8843614487868  0.8102160325651  0.1568525051599 1.0
C      1  0.5889177513813  0.9335964264891  0.7398192727766 1.0
C      1  0.8310247517878  0.5185667676582  0.5774880791606 1.0
C      1  0.0962233454141  0.8542748928548  0.6930671371237 1.0
C      1  0.1900693791607  0.9601724485705  0.5072253385198 1.0
C      1  0.1234700722046  0.4221575431233  0.3994330043182 1.0
C      1  0.6409402877922  0.3911131394657  0.3348005422135 1.0
C      1  0.6219064087465  0.9303061305407  0.5519024900038 1.0
C      1  0.8553250344305  0.2139165182611  0.9675295722087 1.0
C      1  0.4652372143063  0.2370403575877  0.4694821272709 1.0
C      1  0.6404443325560  0.2602343617761  0.6509537577507 1.0
C      1  0.1738001007904  0.5781062292832  0.0692423886406 1.0
C      1  0.7735020439252  0.4655151823439  0.7793175296884 1.0
C      1  0.3416383227459  0.9154156806071  0.1610556487509 1.0
C      1  0.5468653198879  0.1252630557736  0.3090243247089 1.0
C      1  0.2713099771152  0.6050971523069  0.7840416676210 1.0
C      1  0.2958282429353  0.7586568402693  0.9382825695422 1.0
C      1  0.3952771227570  0.5219549715973  0.5437697159088 1.0
C      1  0.1932537158776  0.5264824654256  0.8806715578164 1.0
C      1  0.0999857233246  0.2626159382941  0.7681414766129 1.0
C      1  0.8696904006813  0.7789730961581  0.3411345478322 1.0
C      1  0.4558925983783  0.9000708794103  0.0462173038852 1.0
C      1  0.8180683320959  0.3730168473774  0.7837054890811 1.0
C      1  0.4336223815523  0.2820161177818  0.0871749728037 1.0
C      1  0.7618336589393  0.7229214074723  0.9345913449141 1.0
C      1  0.5845826584469  0.3449178023193  0.6569573115855 1.0
C      1  0.4305151093692  0.4650984847130  0.1653375163543 1.0
C      1  0.0600344919284  0.6812554834674  0.7396123849173 1.0
C      1  0.4466049524300  0.9844182386557  0.4999699974247 1.0
C      1  0.2648111748025  0.2978161643325  0.8338600380012 1.0
C      1  0.7780187391870  0.3646288915401  0.9502447361308 1.0
C      1  0.4788986670054  0.4147695485664  0.5409828319865 1.0
C      1  0.5056747941205  0.7429184115547  0.9371314667639 1.0
C      1  0.0100008319647  0.8390818795785  0.5479987131931 1.0
C      1  0.7989053200675  0.1171676024366  0.1426334488716 1.0
C      1  0.8277476155309  0.1154782158681  0.7565376898867 1.0
C      1  0.3384528000907  0.8766935764931  0.3659210206230 1.0
C      1  0.5136983489508  0.0392994782453  0.2665892359162 1.0
C      1  0.0572861857440  0.3891214743019  0.5536248944079 1.0
C      1  0.8385295499647  0.1498301019789  0.4994094046283 1.0
C      1  0.8574844125566  0.0390256718372  0.3795556676630 1.0
C      1  0.9993337430925  0.6220189313056  0.3170026236959 1.0
C      1  0.5574346994563  0.6913492953976  0.6654867159312 1.0
C      1  0.9463663674279  0.9022237062137  0.5093191247864 1.0
C      1  0.6761669318253  0.8615255520833  0.2411453256653 1.0
C      1  0.1947641357753  0.5387662370834  0.7752679730477 1.0
C      1  0.5726508087599  0.0857307505463  0.3936197784988 1.0
C      1  0.7290959487881  0.5729808311928  0.1989679658172 1.0
C      1  0.7373733736790  0.2793419885544  0.6635484543877 1.0
C      1  0.7367502336115  0.9465546995001  0.2346943564866 1.0
C      1  0.5931117361500  0.9803499238547  0.2935324304890 1.0
C      1  0.5965827209412  0.6483513664195  0.2239225359607 1.0
C      1  0.6750668293605  0.6134853334937  0.2676979237588 1.0
C      1  0.1458966872607  0.0130232014820  0.6481230449272 1.0
C      1  0.3474984913653  0.2977605013619  0.3106513963459 1.0
C      1  0.3565130161979  0.0427805067145  0.3389695849289 1.0
C      1  0.8891622320061  0.9524451160138  0.3609610641381 1.0
C      1  0.0140164354921  0.2372539589322  0.6299521097841 1.0
C      1  0.0577681657662  0.4166253241968  0.2058872471569 1.0
C      1  0.6134425676428  0.1555197926273  0.4440254153061 1.0
C      1  0.7644244960095  0.0448086667732  0.3822380027061 1.0
C      1  0.1049917947249  0.7421646619206  0.1659068093250 1.0
C      1  0.6047776046564  0.3057688132670  0.0611015114508 1.0
C      1  0.7113330247026  0.8207809851237  0.3203722134057 1.0
C      1  0.0090590523299  0.5607964486464  0.4792026638381 1.0
C      1  0.4713682612603  0.4952193548488  0.6045837218297 1.0
C      1  0.0104982932278  0.5296388545743  0.2918720953141 1.0
C      1  0.1362953905601  0.6568034850999  0.2178239455840 1.0
C      1  0.2633136847999  0.1144048179959  0.6028654937499 1.0
C      1  0.5086571946477  0.0883179127080  0.7185255068166 1.0
C      1  0.6778758776846  0.6390407817651  0.0852298628498 1.0
C      1  0.2561348523830  0.6949038272756  0.7473130613900 1.0
C      1  0.5093265379891  0.3220845277630  0.2392021077950 1.0
C      1  0.8731504610291  0.2465152602127  0.2658665354946 1.0
C      1  0.1348805537918  0.3386657250333  0.1187745061470 1.0
C      1  0.7658606437701  0.9154253680157  0.6713237923108 1.0
C      1  0.8537640151148  0.8871555662731  0.6533222762220 1.0
C      1  0.2878545353783  0.6533299566989  0.6631303111593 1.0
C      1  0.8276102090508  0.7985938291137  0.9193596026049 1.0
C      1  0.1198652770308  0.4879365308972  0.1731508478058 1.0
C      1  0.9027730666637  0.1918184865955  0.6496648475162 1.0
C      1  0.4659188611855  0.5663412168417  0.4828376947868 1.0
C      1  0.5330925707471  0.9973420840733  0.6826738407203 1.0
C      1  0.6495185184985  0.7820619751674  0.0293776177680 1.0
C      1  0.3342524036247  0.0979837814574  0.2627881793794 1.0
C      1  0.0144442233492  0.2791291135761  0.7185934200811 1.0
C      1  0.6807305727762  0.1719525113003  0.5115714499225 1.0
C      1  0.4198849481100  0.3942991763660  0.7219159796451 1.0
C      1  0.6233039637262  0.4359268146916  0.6702211418622 1.0
C      1  0.4995727520783  0.5824095849211  0.9596631109703 1.0
C      1  0.3377342755967  0.5796928989103  0.3799291063535 1.0
C      1  0.4743761981859  0.4804715399641  0.9730939407370 1.0
C      1  0.4321090552378  0.8850372895730  0.7268364162133 1.0
C      1  0.3638247932682  0.7622271961693  0.0165058428302 1.0
C      1  0.7839075119648  0.5498555820031  0.3370539971342 1.0
C      1  0.8309192505627  0.9170170183091  0.2832062973689 1.0
C      1  0.0224770469071  0.3019561322838  0.3508505900710 1.0
C      1  0.6611210913023  0.4970609823171  0.1748987713922 1.0
C      1  0.8870425476517  0.5804807195447  0.2058619168695 1.0
C      1  0.8685252781213  0.5120043680572  0.9611541402759 1.0
C      1  0.1666422733228  0.5990477542636  0.3522827487919 1.0
C      1  0.6927389964134  0.3219675920291  0.9044734248563 1.0
C      1  0.1404314983322  0.9428196562011  0.7061168424311 1.0
C      1  0.7325300940875  0.9780675664604  0.4419278720048 1.0
C      1  0.6569371345966  0.6670839869807  0.6577589550884 1.0
C      1  0.0046953547831  0.1086882933591  0.5226863149442 1.0
C      1  0.5092863334212  0.8440629369389  0.3094044640249 1.0
C      1  0.5011294915854  0.3528562372186  0.8490870941704 1.0
C      1  0.4014241524312  0.8405529029228  0.8858735297172 1.0
C      1  0.7665084485024  0.2709746076308  0.4001431008393 1.0
C      1  0.8618547565917  0.3933894066079  0.6328374947992 1.0
C      1  0.0095979706122  0.7316018498002  0.4216833027801 1.0
C      1  0.5848609727069  0.9634768081357  0.9232016878573 1.0
C      1  0.3965437532579  0.2342895431050  0.7608365925492 1.0
C      1  0.0753294790961  0.3061247228490  0.9186803136266 1.0
C      1  0.8259103810520  0.0387484940070  0.1657688631287 1.0
C      1  0.1008016558966  0.5713340859239  0.7509493252481 1.0
C      1  0.2520052748977  0.3874579153440  0.9575141580033 1.0
C      1  0.4969165499027  0.5994269047553  0.1135298986335 1.0
C      1  0.5952835831699  0.7301609846629  0.1686197226640 1.0
C      1  0.1851290208890  0.9498955380176  0.3136120656819 1.0
C      1  0.5297851120758  0.8515452220680  0.7329959371226 1.0
C      1  0.6849179916295  0.4488793978881  0.0905871265905 1.0
C      1  0.5182212240032  0.0458008128842  0.5371325761141 1.0
C      1  0.8290763526099  0.7749450660775  0.0848527768862 1.0
C      1  0.2496190348002  0.5324062070441  0.4832016032364 1.0
END
