TITL C-29423-1291-2 -8.697 3375.00 -1515.10315813 0 0 186 (C1) n - 1
REM
REM Run started: at 2021.01.17 22:12:57 in /rds/project/t2_vol4/rds-t2-cs072/BORA/CARBON/AIRSS/Generating-Clusters/Str-Search/Only-C1/C100-200
REM VASP from code version vasp.5.4.4.18Apr17-6-g9f103f2a35 (build Oct 11 2019 16:45:47) gamma-only
REM
REM
REM
REM
REM ./C.cell (efaf0b2bf1589a83377268d7ebe2c73f)
REM AIRSS Version 0.9.1 bugfix July 2018 build 013d7b7c2542+ Fri, 06 Jul 2018 19:26:36 +0100
REM compiler GCC version 4.8.5 20150623 (Red Hat 4.8.5-39)
REM options -cpp -mtune=generic -march=x86-64 -g -O0
REM seed -1498159038 2009895282 440027748 -697321630 -207128060 2057028216 -82169029 391524854 -83802974 1614667279 1076945276 689044343
REM
REM C.POTCAR (d86ddea03c3ceb6dc662c8ad6801f873)
REM 
CELL 1.54180   15.00000   15.00000   15.00000   90.00000   90.00000   90.00000
LATT -1
SFAC C  
C      1  0.1653120769683  0.4403099036060  0.3906651429727 1.0
C      1  0.6939636918389  0.3679058473776  0.8004925005855 1.0
C      1  0.8164928350140  0.3549281901367  0.6655368897178 1.0
C      1  0.8912584507123  0.5682297849737  0.5325603495979 1.0
C      1  0.3043485688750  0.6706957866691  0.1815554019374 1.0
C      1  0.5690415412272  0.3228859898027  0.2022439578501 1.0
C      1  0.7025096263855  0.5982643423989  0.2708084183794 1.0
C      1  0.5651995691954  0.2742588186100  0.7002925967499 1.0
C      1  0.7737455254424  0.2233380205360  0.5932419868214 1.0
C      1  0.3276831087765  0.5242668316430  0.8021547188222 1.0
C      1  0.4148163774446  0.7665071632160  0.2451484789071 1.0
C      1  0.4811695518453  0.4183789339382  0.7298972840889 1.0
C      1  0.2766811186158  0.6998368500152  0.2657565727967 1.0
C      1  0.3381288257574  0.1406755542005  0.5567991554902 1.0
C      1  0.6138839499408  0.4202769631767  0.7598498130010 1.0
C      1  0.5251325040317  0.4112069923180  0.0895726714685 1.0
C      1  0.8577095043084  0.4388108794863  0.6639354025751 1.0
C      1  0.1094939131708  0.3900246354632  0.5427046593356 1.0
C      1  0.6259794029567  0.2305866493083  0.6378583362202 1.0
C      1  0.6503931867576  0.5467712977497  0.8594565400262 1.0
C      1  0.8306268794449  0.7611336644159  0.3814626314747 1.0
C      1  0.3964149065748  0.5013201276829  0.4878306222849 1.0
C      1  0.3849034145215  0.4637032096689  0.2658626682745 1.0
C      1  0.3002037283627  0.8269764091996  0.5631493529635 1.0
C      1  0.8856843279431  0.5967403089916  0.3624362261972 1.0
C      1  0.7599377307896  0.8586387263649  0.4545930688726 1.0
C      1  0.4888027652536  0.2010293674194  0.4519665777955 1.0
C      1  0.2927186818801  0.4344832206608  0.2344142744207 1.0
C      1  0.5944524113137  0.6480868758893  0.6661511673106 1.0
C      1  0.8962507709249  0.5028937582721  0.6029442190207 1.0
C      1  0.6760195734680  0.4420719117244  0.4313798078981 1.0
C      1  0.7348724395321  0.1860289363599  0.5111137907304 1.0
C      1  0.9166152406063  0.5545445113815  0.4440289607692 1.0
C      1  0.1080918882117  0.4817433108619  0.5634492647311 1.0
C      1  0.4474721223858  0.1779254125706  0.3311573892057 1.0
C      1  0.4849686179095  0.7925353901076  0.6851455901033 1.0
C      1  0.1683715116296  0.7015085904140  0.4533470460841 1.0
C      1  0.5439955222434  0.2877977680258  0.4208766375098 1.0
C      1  0.7204470569543  0.2344459115908  0.6757043445301 1.0
C      1  0.2761669267236  0.5846462949482  0.1551927332747 1.0
C      1  0.2318674062139  0.3755311568453  0.6442121664436 1.0
C      1  0.8206154593814  0.3043020459633  0.5815565634466 1.0
C      1  0.4576863456906  0.6568161086723  0.1291085078289 1.0
C      1  0.3942181404753  0.3196415894771  0.1353524588275 1.0
C      1  0.5669728317533  0.3759284941387  0.6827251250104 1.0
C      1  0.3270517634087  0.6486621556695  0.5517462240524 1.0
C      1  0.7459528220060  0.3149567070837  0.7253533562624 1.0
C      1  0.4778784112404  0.5117081887208  0.6914184142366 1.0
C      1  0.6193405961706  0.3865335691959  0.5979613468289 1.0
C      1  0.3974459821628  0.2226825676004  0.4160410201014 1.0
C      1  0.5333076021529  0.8180507043945  0.3639565328004 1.0
C      1  0.7909790183323  0.4593762804288  0.2841815588008 1.0
C      1  0.3044807142473  0.2019778590863  0.1695669641968 1.0
C      1  0.7378028227788  0.6341030627772  0.7328755482431 1.0
C      1  0.4071051464024  0.5443776923978  0.6425661214204 1.0
C      1  0.2672894541594  0.2753921634833  0.2195755902600 1.0
C      1  0.1620164695402  0.2776774277294  0.4505848536995 1.0
C      1  0.1711199924517  0.6397591985990  0.6257933401589 1.0
C      1  0.6856959201555  0.5428262113051  0.5765399251431 1.0
C      1  0.8241657707078  0.3329084100038  0.3918172482119 1.0
C      1  0.3064078253987  0.5160638951811  0.4410885430412 1.0
C      1  0.5965980522879  0.4046347839925  0.1535785432364 1.0
C      1  0.5953713945734  0.3408041203425  0.8424406634682 1.0
C      1  0.4384658390444  0.2916668404395  0.5511392759350 1.0
C      1  0.8902876131108  0.3833159026301  0.4305407338320 1.0
C      1  0.4980902244118  0.2110564520483  0.5465037950510 1.0
C      1  0.5615116207331  0.5667872367505  0.8890375123592 1.0
C      1  0.5273020459879  0.7804312451448  0.7722762048084 1.0
C      1  0.8050629578321  0.6124864551041  0.6697522254142 1.0
C      1  0.5455974205436  0.7254984322986  0.8478133269680 1.0
C      1  0.2190051054030  0.7778373873256  0.4239761364979 1.0
C      1  0.7485011602780  0.8135180373808  0.3715462556524 1.0
C      1  0.2686044994611  0.7298158975173  0.5682326347749 1.0
C      1  0.2215991658911  0.6506652206143  0.7092167305691 1.0
C      1  0.3108389855946  0.5735047089158  0.3594527228108 1.0
C      1  0.8336247080078  0.6734793077290  0.3516426712661 1.0
C      1  0.4038342573566  0.3216957741804  0.4560861420753 1.0
C      1  0.6348678000409  0.2081249789445  0.3304637257873 1.0
C      1  0.8665819007367  0.5042761241671  0.3250112069657 1.0
C      1  0.7093112948858  0.7830759651182  0.6659120324346 1.0
C      1  0.1766777895966  0.7021897996795  0.5514412345302 1.0
C      1  0.1672267896952  0.6250910860891  0.3886892153421 1.0
C      1  0.4114737749750  0.6563271166853  0.4991843708608 1.0
C      1  0.7085275218408  0.5983390197853  0.4298395321891 1.0
C      1  0.7663220398005  0.3752792857429  0.3271656045176 1.0
C      1  0.5579700130136  0.2622804290446  0.7972693691685 1.0
C      1  0.3735259957755  0.1501481056344  0.6319808124290 1.0
C      1  0.4036709300067  0.2027671773781  0.7095095652552 1.0
C      1  0.7450813090905  0.6323063817125  0.3494703617310 1.0
C      1  0.7151565192673  0.5675393658676  0.7981144703232 1.0
C      1  0.4594373244462  0.5742081764417  0.4639446697283 1.0
C      1  0.3929923871397  0.7071424768328  0.1695705576618 1.0
C      1  0.7367241171577  0.4200674984678  0.4973161802265 1.0
C      1  0.3493495948973  0.4922024163695  0.5782116130983 1.0
C      1  0.5418630827733  0.9035531710264  0.5678796388109 1.0
C      1  0.2354632287955  0.3979410227083  0.3219179402378 1.0
C      1  0.5797402556555  0.2398044481285  0.2541987079927 1.0
C      1  0.5983263270780  0.9041606525426  0.4925051185207 1.0
C      1  0.6758881267079  0.2586788606117  0.4837119652290 1.0
C      1  0.1590526897514  0.3295357705554  0.5967276203841 1.0
C      1  0.6228934769789  0.5319550686132  0.4259673481187 1.0
C      1  0.5154184939682  0.8653511983233  0.6358174026282 1.0
C      1  0.1069827089756  0.5438303234470  0.5005940989612 1.0
C      1  0.6852698474709  0.4530925614933  0.5729955066116 1.0
C      1  0.5317801104421  0.4231797018764  0.8202252858491 1.0
C      1  0.3226646886256  0.4347407290511  0.7669370958717 1.0
C      1  0.5149605383462  0.6525964511084  0.8942059475181 1.0
C      1  0.5577179558915  0.6909796808661  0.4702507078068 1.0
C      1  0.5593589418359  0.5906446228126  0.4937972090036 1.0
C      1  0.7830779571786  0.7880476654044  0.6126934457846 1.0
C      1  0.3645310202003  0.2217577107929  0.1136598622452 1.0
C      1  0.6416638142125  0.4858545476599  0.1828567132493 1.0
C      1  0.8531797824856  0.5316368567492  0.6798823290100 1.0
C      1  0.5180775036682  0.5993164068446  0.1266674093700 1.0
C      1  0.2623301565625  0.2666110729370  0.4988577540683 1.0
C      1  0.5988989495201  0.5857804646773  0.5897969857057 1.0
C      1  0.5581306795459  0.8886096094841  0.4113673917779 1.0
C      1  0.3933073193348  0.5449336675787  0.3153419053648 1.0
C      1  0.8344083790292  0.7405548581751  0.5524104948121 1.0
C      1  0.2018181963718  0.2351742733028  0.3711531696888 1.0
C      1  0.4615061214934  0.7194892973784  0.6266163087546 1.0
C      1  0.3100777936357  0.3499739067146  0.1851177036854 1.0
C      1  0.2351655492742  0.4209367626507  0.7264596713043 1.0
C      1  0.5720244422230  0.7286348430755  0.3875053885608 1.0
C      1  0.2234678552499  0.2959693793240  0.3018282627049 1.0
C      1  0.2811975234693  0.7878179375136  0.6441851760467 1.0
C      1  0.5907089072974  0.5696045885952  0.1740194242663 1.0
C      1  0.1346064156771  0.5395584076368  0.4096880244055 1.0
C      1  0.6096971868965  0.1383284937566  0.3920000317227 1.0
C      1  0.6929839854818  0.8885329805777  0.5156460054288 1.0
C      1  0.4840315978449  0.2284907736756  0.2621583986973 1.0
C      1  0.3134206372555  0.1836523225094  0.4669178972917 1.0
C      1  0.7144173856572  0.8520163466192  0.6006563403437 1.0
C      1  0.2772559762348  0.5547994478027  0.5374732577602 1.0
C      1  0.4207122579972  0.6381908556885  0.8823230628892 1.0
C      1  0.3119811694470  0.7413782066975  0.8061224437372 1.0
C      1  0.6123576661916  0.7486743150836  0.7865086239541 1.0
C      1  0.3080125187101  0.3569397941980  0.4844365513906 1.0
C      1  0.5739698578514  0.7046435065826  0.2905328779821 1.0
C      1  0.2662551160235  0.7378592849012  0.7251345252994 1.0
C      1  0.5137709728243  0.1335128738407  0.3863707639818 1.0
C      1  0.4917782845904  0.3593166347141  0.4130807948567 1.0
C      1  0.6678441007378  0.7077390362232  0.7157473548512 1.0
C      1  0.4528179711340  0.4019804455290  0.2725693979921 1.0
C      1  0.3986371836644  0.6376054665587  0.6232260945991 1.0
C      1  0.6398357363878  0.3029181089882  0.5657334417654 1.0
C      1  0.4646866664521  0.3166256023322  0.2174510666581 1.0
C      1  0.1756800065293  0.5571439433726  0.5730215970827 1.0
C      1  0.6423971452553  0.1543954514281  0.4922772142375 1.0
C      1  0.6214782084861  0.6343592330360  0.2425741780291 1.0
C      1  0.6411938772864  0.2860227531363  0.3941883240123 1.0
C      1  0.5778918012610  0.1699929437361  0.5725208476959 1.0
C      1  0.8244219929749  0.6404098106113  0.5668989751447 1.0
C      1  0.3160987810388  0.3928388527705  0.5829518955233 1.0
C      1  0.2405705593351  0.5677251916056  0.7631088644232 1.0
C      1  0.9124099668374  0.4666895403055  0.3996377290765 1.0
C      1  0.6736260072240  0.3732267910103  0.3599570850151 1.0
C      1  0.3920344774232  0.3769595351970  0.7466243444045 1.0
C      1  0.7417624043425  0.5991446128567  0.5178860804335 1.0
C      1  0.2463181675499  0.6316029778612  0.3314994413142 1.0
C      1  0.2579921482448  0.5082852802876  0.1791470790353 1.0
C      1  0.3814768945993  0.3251494097135  0.6125221230596 1.0
C      1  0.5226279789372  0.4214807733053  0.3401144152131 1.0
C      1  0.7183276696988  0.5084563526969  0.2401644751233 1.0
C      1  0.2667092884408  0.4245358643166  0.4174917873325 1.0
C      1  0.8142666982813  0.3546805565832  0.4927324343940 1.0
C      1  0.1811805836949  0.2535542997562  0.5471511225141 1.0
C      1  0.4057211326501  0.5468690108431  0.8565595001037 1.0
C      1  0.2579645702151  0.1568213592286  0.3820987644171 1.0
C      1  0.8346943901399  0.7927264969531  0.4729429433993 1.0
C      1  0.4707069995152  0.5599796154415  0.3637006326087 1.0
C      1  0.4918617410473  0.2230007318508  0.7479320036055 1.0
C      1  0.5541332646718  0.5681980736396  0.6790089747003 1.0
C      1  0.1263155437130  0.3683865268460  0.4512304425094 1.0
C      1  0.2803173500382  0.8342436903281  0.4702786644550 1.0
C      1  0.3572697434390  0.7036875061524  0.8641763068164 1.0
C      1  0.2957515366270  0.8083441765441  0.3789772947161 1.0
C      1  0.3341458482952  0.7710340332760  0.2993574226511 1.0
C      1  0.4501071864680  0.3773312442834  0.0791053913029 1.0
C      1  0.3744859591967  0.2921250707779  0.7017371083985 1.0
C      1  0.4785080454143  0.7173232768367  0.5299496029143 1.0
C      1  0.4953621397291  0.5020837059404  0.8686824768461 1.0
C      1  0.1797286062377  0.4960679884794  0.7440445391975 1.0
C      1  0.5041061652934  0.7744155650548  0.2800733098245 1.0
C      1  0.6899422507421  0.4710516695662  0.8068377790656 1.0
C      1  0.5518358643661  0.5118936321291  0.3558207270746 1.0
END
