TITL C-29326-5838-5 -4.707 3375.00 -814.18079661 0 0 101 (C1) n - 1
REM
REM Run started: at 2021.01.18 01:22:58 in /rds/project/t2_vol4/rds-t2-cs072/BORA/CARBON/AIRSS/Generating-Clusters/Str-Search/Only-C1/C100-200
REM VASP from code version vasp.5.4.4.18Apr17-6-g9f103f2a35 (build Oct 11 2019 16:45:47) gamma-only
REM
REM
REM
REM
REM ./C.cell (efaf0b2bf1589a83377268d7ebe2c73f)
REM AIRSS Version 0.9.1 bugfix July 2018 build 013d7b7c2542+ Fri, 06 Jul 2018 19:26:36 +0100
REM compiler GCC version 4.8.5 20150623 (Red Hat 4.8.5-39)
REM options -cpp -mtune=generic -march=x86-64 -g -O0
REM seed -1748292495 -319890458 453741919 -1307086950 406276215 880959766 636242673 -1748607462 124314234 1687221632 177581647 1416936266
REM
REM C.POTCAR (d86ddea03c3ceb6dc662c8ad6801f873)
REM 
CELL 1.54180   15.00000   15.00000   15.00000   90.00000   90.00000   90.00000
LATT -1
SFAC C  
C      1  0.3487211195737  0.7190336589199  0.4847582400820 1.0
C      1  0.3483712008169  0.5420980099639  0.2490880701785 1.0
C      1  0.6490041468556  0.3721066547181  0.4517759293276 1.0
C      1  0.4588120097628  0.2412608544157  0.6781066894056 1.0
C      1  0.5750165800394  0.1899705878710  0.5857855649359 1.0
C      1  0.8015177102840  0.5077052255080  0.5391642418528 1.0
C      1  0.5313151544266  0.3809129102195  0.3155846491114 1.0
C      1  0.7637762987885  0.4547039563433  0.3311381073495 1.0
C      1  0.7446328226305  0.3896883476935  0.4763098710124 1.0
C      1  0.5702453223695  0.3968345836843  0.5071368500396 1.0
C      1  0.7763843344335  0.5518527046361  0.3589076917041 1.0
C      1  0.6789168676764  0.4206208036380  0.2856180701475 1.0
C      1  0.4567904202277  0.6194680703520  0.4008523726732 1.0
C      1  0.3945053500596  0.7647061017270  0.5500852170498 1.0
C      1  0.6396749358822  0.4962019081979  0.2309470203258 1.0
C      1  0.3897908582470  0.6034473102915  0.7672538423973 1.0
C      1  0.5591729933204  0.7244375751226  0.4468884866739 1.0
C      1  0.5120621170307  0.4954004265192  0.7950995410744 1.0
C      1  0.3187890127594  0.6725196688813  0.3342793325570 1.0
C      1  0.5315660507174  0.4967124902561  0.6421401926478 1.0
C      1  0.4509183173561  0.4746407177414  0.5754151486074 1.0
C      1  0.7645030774158  0.5889781899123  0.5165040923599 1.0
C      1  0.1685621128806  0.5797891065290  0.5956410189305 1.0
C      1  0.3526909866658  0.5139392221676  0.7908989529623 1.0
C      1  0.6744205593625  0.6422152655960  0.6323922237881 1.0
C      1  0.4991327313074  0.7683981893253  0.5306509967467 1.0
C      1  0.6989990043755  0.7458414078944  0.6421451298462 1.0
C      1  0.5049062078871  0.6706918152880  0.5631809756074 1.0
C      1  0.5959052138498  0.5638712148759  0.4942025024860 1.0
C      1  0.3934373488787  0.2135865315958  0.4534733912130 1.0
C      1  0.5551707650051  0.4865761459122  0.5466717155902 1.0
C      1  0.6646123441487  0.6021734290915  0.2579326814381 1.0
C      1  0.7195432523572  0.6288384242856  0.3346782930994 1.0
C      1  0.2334878134071  0.4454431781775  0.6741957804892 1.0
C      1  0.3002361635708  0.4966916566721  0.4538942674231 1.0
C      1  0.6436312871880  0.2678607892620  0.4407526859249 1.0
C      1  0.5831861834986  0.5584212096399  0.2801099692774 1.0
C      1  0.6777673284537  0.7044290758374  0.3772938261398 1.0
C      1  0.3283514053324  0.3331948779403  0.5660250840081 1.0
C      1  0.4910563050881  0.5774590407141  0.3039128004327 1.0
C      1  0.3787620862321  0.6731409991588  0.6874754069679 1.0
C      1  0.2817919737567  0.4866855970002  0.2974699698219 1.0
C      1  0.6418710527321  0.2494182862585  0.6105876068603 1.0
C      1  0.3641455572382  0.7507423479899  0.6436560525742 1.0
C      1  0.5914584453395  0.2628062344174  0.3610463960985 1.0
C      1  0.3234343240613  0.3439039396748  0.3963758513552 1.0
C      1  0.4961909900471  0.3105491625543  0.3838991237738 1.0
C      1  0.5259767570193  0.6297238529924  0.4704319334399 1.0
C      1  0.3599147174050  0.6398082933915  0.2554249489165 1.0
C      1  0.5755203721216  0.4542611600069  0.7255026976261 1.0
C      1  0.7029720597557  0.5675342643274  0.6836890138043 1.0
C      1  0.4374745763082  0.6238365677587  0.6215032820553 1.0
C      1  0.4190627384225  0.3626854626896  0.7745231266478 1.0
C      1  0.4951668506370  0.3549465266891  0.4785547773769 1.0
C      1  0.2887175777701  0.4559756176682  0.7554228123178 1.0
C      1  0.4184567497883  0.3568293074551  0.1948178518412 1.0
C      1  0.3884152899613  0.6850180185560  0.4019328314006 1.0
C      1  0.5743662233779  0.6632654722426  0.6399712045759 1.0
C      1  0.3449002326392  0.3569420273469  0.2374160915843 1.0
C      1  0.4830223104223  0.5817953840097  0.7678099785296 1.0
C      1  0.4011365382953  0.2752452170910  0.3867921019503 1.0
C      1  0.6157266948512  0.3325716954219  0.2923733057329 1.0
C      1  0.1781258079802  0.5027767760571  0.6339988814108 1.0
C      1  0.4125936907168  0.3936560623929  0.5241987716242 1.0
C      1  0.7627829408985  0.4218022524682  0.5659681068748 1.0
C      1  0.3231793474987  0.5653766263797  0.5169825895664 1.0
C      1  0.6605963054062  0.7814698409522  0.5586776883699 1.0
C      1  0.4889799452204  0.3101125265403  0.7315757201291 1.0
C      1  0.6475906182298  0.3307516861944  0.6603482857569 1.0
C      1  0.7957164143112  0.4086883097066  0.4033109170003 1.0
C      1  0.4314238259694  0.4502727508714  0.8101556480387 1.0
C      1  0.6366455324643  0.2222868026858  0.5192180874992 1.0
C      1  0.6733858892283  0.6221533087998  0.5263838051903 1.0
C      1  0.6566793280680  0.7151667838342  0.4794555710610 1.0
C      1  0.3520329597514  0.4221326957405  0.4503305787353 1.0
C      1  0.2557903268106  0.6276877541487  0.3894665513488 1.0
C      1  0.5150856971082  0.5925734340418  0.6766861412545 1.0
C      1  0.7083383953973  0.4068738572645  0.6433758351327 1.0
C      1  0.5746251265294  0.3553972105857  0.7152670921602 1.0
C      1  0.4683125594481  0.4207838021351  0.2506473667999 1.0
C      1  0.6159053504967  0.4145896152995  0.3633723939235 1.0
C      1  0.2751010373536  0.2994484344358  0.4871491947391 1.0
C      1  0.6876080505937  0.5573052846265  0.1739152184369 1.0
C      1  0.3920727501738  0.5523780529450  0.5743802901412 1.0
C      1  0.5715387457023  0.8184695311420  0.5825291316338 1.0
C      1  0.3282864064307  0.2329544345470  0.5327852186981 1.0
C      1  0.4804195988872  0.1920298992557  0.6045319971035 1.0
C      1  0.4104694708699  0.1795706204627  0.5364850501938 1.0
C      1  0.3318300795719  0.3678828545342  0.7371667619565 1.0
C      1  0.2735829663244  0.6512583615602  0.4904776430141 1.0
C      1  0.8119985190319  0.5509638428586  0.4478371469015 1.0
C      1  0.4367640016177  0.5057343050013  0.2606622422865 1.0
C      1  0.4598062145354  0.6677113710572  0.2605692359726 1.0
C      1  0.1978739709526  0.6493226158573  0.5546271072607 1.0
C      1  0.5855241690127  0.7324367791061  0.3477375633731 1.0
C      1  0.6749409839219  0.4839039927031  0.6958220135078 1.0
C      1  0.2904996779270  0.3637256782095  0.6530188471636 1.0
C      1  0.5252345628883  0.7270635019914  0.2784818627036 1.0
C      1  0.6023097225173  0.7598540218877  0.6516093715465 1.0
C      1  0.2937689731878  0.3894712991215  0.3060440280974 1.0
C      1  0.2545119048535  0.5335569504805  0.3771819612254 1.0
END
