TITL C-29317-9581-10 -6.308 3375.00 -1087.97744224 0 0 134 (C1) n - 1
REM
REM Run started: at 2021.01.18 07:14:03 in /rds/project/t2_vol4/rds-t2-cs072/BORA/CARBON/AIRSS/Generating-Clusters/Str-Search/Only-C1/C100-200
REM VASP from code version vasp.5.4.4.18Apr17-6-g9f103f2a35 (build Oct 11 2019 16:45:47) gamma-only
REM
REM
REM
REM
REM ./C.cell (efaf0b2bf1589a83377268d7ebe2c73f)
REM AIRSS Version 0.9.1 bugfix July 2018 build 013d7b7c2542+ Fri, 06 Jul 2018 19:26:36 +0100
REM compiler GCC version 4.8.5 20150623 (Red Hat 4.8.5-39)
REM options -cpp -mtune=generic -march=x86-64 -g -O0
REM seed 1252131952 -887772705 -1925945437 -1796165883 -453422102 933505856 -880012360 -59011691 -1484830417 2110936223 1127830169 -1481129884
REM
REM C.POTCAR (d86ddea03c3ceb6dc662c8ad6801f873)
REM 
CELL 1.54180   15.00000   15.00000   15.00000   90.00000   90.00000   90.00000
LATT -1
SFAC C  
C      1  0.4932486919115  0.4371045546950  0.3872590230189 1.0
C      1  0.6044642285791  0.3219744813934  0.2351931227076 1.0
C      1  0.5726668267546  0.7613521921141  0.6575054133178 1.0
C      1  0.4795250923920  0.1839153504685  0.3787306668810 1.0
C      1  0.3370571732487  0.5055308134791  0.2989131804265 1.0
C      1  0.5948577361226  0.4222813058416  0.7214467611371 1.0
C      1  0.5060030832077  0.6381454942045  0.8203568105849 1.0
C      1  0.7333291309772  0.5352282731501  0.3389778039317 1.0
C      1  0.6502595775263  0.4857288701303  0.3762948874163 1.0
C      1  0.4743427265823  0.4223225502411  0.1865201787252 1.0
C      1  0.6768732580186  0.2978646361096  0.2992544718554 1.0
C      1  0.4091084476851  0.2338095680724  0.6201643887617 1.0
C      1  0.6254023943004  0.1736645320460  0.5169761306121 1.0
C      1  0.7073902419575  0.5379593060059  0.5244079835319 1.0
C      1  0.3158691829840  0.2819163229215  0.3360316627045 1.0
C      1  0.7162891411475  0.2076642020897  0.5177808802122 1.0
C      1  0.3976303701399  0.8224127441510  0.4750734372934 1.0
C      1  0.3685114098946  0.3231842436245  0.6598249595953 1.0
C      1  0.4876505560103  0.3966034868135  0.5503206935159 1.0
C      1  0.7874655340332  0.4139189028651  0.6187254538003 1.0
C      1  0.1860357128571  0.3699340457666  0.4259051673019 1.0
C      1  0.6086716714093  0.4785464450944  0.8060527979992 1.0
C      1  0.6487166127019  0.7029128148727  0.5071575786550 1.0
C      1  0.1635527003131  0.5928876509302  0.4122707073860 1.0
C      1  0.3431642863412  0.8459590535190  0.4046584604211 1.0
C      1  0.5517173707839  0.2802169276354  0.6628879539864 1.0
C      1  0.2100753376721  0.6406150185117  0.4633452146019 1.0
C      1  0.1396980953210  0.4651893065886  0.5749246730988 1.0
C      1  0.4510095966813  0.5110003684369  0.1662229023791 1.0
C      1  0.5098978983252  0.7272921844846  0.7846431816712 1.0
C      1  0.2218746930484  0.3442067172698  0.6166134189272 1.0
C      1  0.5387729865131  0.2557588657703  0.2517078028428 1.0
C      1  0.5619996604854  0.1958307827000  0.3229355230954 1.0
C      1  0.1911260393911  0.5662171049962  0.6862521975275 1.0
C      1  0.3305271324345  0.7055122011449  0.7466490121070 1.0
C      1  0.3115043932126  0.2743034055693  0.5037395378981 1.0
C      1  0.4534406427576  0.5545664685535  0.8350194946930 1.0
C      1  0.1457993970191  0.4368700654036  0.4835444308181 1.0
C      1  0.7401561144756  0.3355901818907  0.6404705197072 1.0
C      1  0.4624820466813  0.1863141793543  0.4774274676358 1.0
C      1  0.5053764013892  0.3140381925303  0.8209044075618 1.0
C      1  0.7324087598365  0.5605966220403  0.7305025472814 1.0
C      1  0.5560747331306  0.5039081402758  0.3764906317059 1.0
C      1  0.3950739407836  0.4541209759956  0.3740296095538 1.0
C      1  0.3493398982237  0.6292817591184  0.5587729467542 1.0
C      1  0.1909075908787  0.4231028887245  0.6488507598750 1.0
C      1  0.5740220192745  0.4085111408450  0.2023933966587 1.0
C      1  0.3573456658242  0.5422241814542  0.5149770139680 1.0
C      1  0.3520555239391  0.8138673389044  0.3271026078476 1.0
C      1  0.3289928892000  0.3811111879797  0.3667648304868 1.0
C      1  0.5356310380378  0.1716482578461  0.5439465563285 1.0
C      1  0.4503245217749  0.2806161649901  0.2566003943028 1.0
C      1  0.6491687818653  0.3929471888656  0.6406941505881 1.0
C      1  0.6437577085730  0.5791903036296  0.2172994682764 1.0
C      1  0.3637729708225  0.5342776490283  0.4266888657651 1.0
C      1  0.7941498182778  0.5739391962792  0.5715687987736 1.0
C      1  0.8672356699427  0.6800575482993  0.4614148847410 1.0
C      1  0.4407689245805  0.7543719719504  0.5233314171665 1.0
C      1  0.6915134437753  0.3684271731713  0.4971813656540 1.0
C      1  0.8268044218338  0.3520293482375  0.4929904825299 1.0
C      1  0.3375063774746  0.6137711497962  0.7411943711859 1.0
C      1  0.7010590196966  0.4462655501686  0.5739249856983 1.0
C      1  0.3926874349729  0.3972474144109  0.5943103484094 1.0
C      1  0.4104236299881  0.2471144896489  0.3399087027711 1.0
C      1  0.5467248064432  0.7945377057647  0.2677261221817 1.0
C      1  0.5163352818859  0.4817441620897  0.8492120018551 1.0
C      1  0.6381645060735  0.4825291693085  0.2167457230547 1.0
C      1  0.3167228879050  0.3531693871412  0.2599906619161 1.0
C      1  0.6113566708894  0.7701340783199  0.5637534417832 1.0
C      1  0.1841372877240  0.4345701244896  0.3477733747469 1.0
C      1  0.3702381957471  0.7688287561875  0.7050260251523 1.0
C      1  0.5286932513403  0.5914150946920  0.3626613900802 1.0
C      1  0.6256705133427  0.6082904027085  0.5237692801402 1.0
C      1  0.5735790916987  0.8458339251641  0.5087997703104 1.0
C      1  0.4796983476245  0.8375642974402  0.5198420767021 1.0
C      1  0.7930453071787  0.7143535002528  0.4374014897924 1.0
C      1  0.4678209340061  0.6480175125292  0.6528144203642 1.0
C      1  0.7537895828342  0.2944246511869  0.5482059865386 1.0
C      1  0.3826065416589  0.7514512276087  0.2669001837200 1.0
C      1  0.5950735273903  0.6265696007243  0.7738501331543 1.0
C      1  0.7577079427252  0.3932287659880  0.4257699175868 1.0
C      1  0.3971811718863  0.5010544620655  0.5965144904126 1.0
C      1  0.5849526565176  0.8633276632849  0.4188717848769 1.0
C      1  0.6005105914765  0.3412694527944  0.4944734473501 1.0
C      1  0.5424553952413  0.5005691273689  0.6689151119125 1.0
C      1  0.5533548746172  0.3282038523588  0.7394182438980 1.0
C      1  0.4679196322872  0.7450013233630  0.6963995091345 1.0
C      1  0.7314959961642  0.4964598736654  0.4311652290799 1.0
C      1  0.2689772409066  0.4329569177799  0.2969516881974 1.0
C      1  0.7775499419517  0.5846184359989  0.6652864471387 1.0
C      1  0.5001318510214  0.6735387396601  0.1767677252804 1.0
C      1  0.4567398385690  0.5934180570926  0.1556999054159 1.0
C      1  0.7039487978391  0.7200743898765  0.4203549146440 1.0
C      1  0.4670956316547  0.6447448000969  0.3507568007734 1.0
C      1  0.2536692252853  0.6608584790951  0.5434835541984 1.0
C      1  0.7007619782013  0.4554407619807  0.2903850086785 1.0
C      1  0.3620202471570  0.5388720534020  0.7997036005392 1.0
C      1  0.3374143768331  0.5881664946500  0.3488368352386 1.0
C      1  0.8679295352384  0.6021296478449  0.5114922894201 1.0
C      1  0.6751912982186  0.1894114958320  0.4369302044940 1.0
C      1  0.5337003103976  0.5870764864251  0.5324922396677 1.0
C      1  0.3837720340469  0.6686578867172  0.3206246560684 1.0
C      1  0.8721327794289  0.5156420100608  0.5367476533099 1.0
C      1  0.4684680465150  0.7554486178165  0.2208562828523 1.0
C      1  0.5973707618690  0.7239889967753  0.7434395234279 1.0
C      1  0.2690318234487  0.3111590756013  0.4221365891968 1.0
C      1  0.6611538704551  0.5542183727256  0.7910707761158 1.0
C      1  0.6778455579169  0.6951053425463  0.3260895166427 1.0
C      1  0.4996024909703  0.4973551889194  0.5781837458923 1.0
C      1  0.5921283479452  0.6598143914565  0.1986648413568 1.0
C      1  0.3525182549978  0.3682079846939  0.7531275326002 1.0
C      1  0.5000756922570  0.2096371017939  0.6254677919385 1.0
C      1  0.1345843663456  0.5550912214416  0.6093701683892 1.0
C      1  0.4812233464383  0.3962821290463  0.8608764118238 1.0
C      1  0.6501652083687  0.2166117190156  0.3500042675862 1.0
C      1  0.8570516928074  0.4218039877054  0.5501714572690 1.0
C      1  0.5403943512283  0.5885691172093  0.6929619379428 1.0
C      1  0.1960231978348  0.6252791946575  0.6103861436202 1.0
C      1  0.3048724671505  0.3389577147224  0.5764035374475 1.0
C      1  0.3765698882994  0.5930681583237  0.6511131544986 1.0
C      1  0.5574909705654  0.8505182574494  0.3400207199476 1.0
C      1  0.4141151018444  0.3464932177125  0.8173091343771 1.0
C      1  0.5127582391362  0.3616983347875  0.4511549188411 1.0
C      1  0.4663163900136  0.2755193918611  0.4238397475015 1.0
C      1  0.5725628869747  0.3455591743678  0.5895361008673 1.0
C      1  0.4549596868364  0.6618838434408  0.5501118974610 1.0
C      1  0.4103729588274  0.3563973724874  0.2205220797112 1.0
C      1  0.6170021501054  0.7286592106454  0.2599898696698 1.0
C      1  0.1490565459341  0.5015646102642  0.4038667874564 1.0
C      1  0.7258161531390  0.3698557594450  0.3309070125318 1.0
C      1  0.3786290541173  0.2148341130243  0.5289882559050 1.0
C      1  0.2324103182669  0.4824467380727  0.7125529483838 1.0
C      1  0.7014961707437  0.6106277630044  0.2911882474481 1.0
C      1  0.3130958512466  0.4602178728780  0.7631457658238 1.0
END
