TITL C-292653-8020-1 18.6 3375.00 0 0 0 542 (C1) n - 1
REM
REM Run started: at 2020.03.13 02:21:56 in /rds/user/bk393/hpc-work/AIRSS.pl-DENE/CARBON/New-Try
REM VASP from code version vasp.5.4.4.18Apr17-6-g9f103f2a35 (build Oct 11 2019 16:45:47) gamma-only
REM
REM
REM
REM
REM ./C.cell (a79a4077332dcb654850026c449f6690)
REM AIRSS Version 0.9.1 bugfix July 2018 build 013d7b7c2542+ Fri, 06 Jul 2018 19:26:36 +0100
REM compiler GCC version 4.8.5 20150623 (Red Hat 4.8.5-39)
REM options -cpp -mtune=generic -march=x86-64 -g -O0
REM seed 155331279 1891608311 -905039841 -119481060 1806492746 1981430093 640025734 22618139 1999998255 -1757962493 -1842809834 -431073863
REM
REM C.POTCAR (d86ddea03c3ceb6dc662c8ad6801f873)
REM 
CELL 1.54180   15.00000   15.00000   15.00000   90.00000   90.00000   90.00000
LATT -1
SFAC C  
C      1  0.9117909246122  0.6998946861429  0.1660920408328 1.0
C      1  0.2821884753675  0.0460619838065  0.0851670112926 1.0
C      1  0.5530116596875  0.3805704793034  0.1964073367355 1.0
C      1  0.6054786755310  0.7671715952442  0.4105958903729 1.0
C      1  0.5733984678498  0.1571277261038  0.3363475018521 1.0
C      1  0.7892864306332  0.6121163081681  0.6923879395480 1.0
C      1  0.7403368951845  0.8876528636824  0.4990697303556 1.0
C      1  0.3378396642978  0.5613566795606  0.4576798698789 1.0
C      1  0.5728243300626  0.5299596372379  0.8736231885525 1.0
C      1  0.4540313595531  0.4475967130086  0.0657330715782 1.0
C      1  0.0622013391333  0.7533683724173  0.8603608527543 1.0
C      1  0.1789234325417  0.1462748489745  0.7267224143354 1.0
C      1  0.1889732331535  0.6444316659841  0.4614664855742 1.0
C      1  0.9978634046833  0.6221037697626  0.6125683500664 1.0
C      1  0.2620898475793  0.9532179001980  0.0836500428375 1.0
C      1  0.6441435858672  0.5865395421596  0.5440151258498 1.0
C      1  0.2835489498952  0.6424489223586  0.5727080924998 1.0
C      1  0.4064347105325  0.8868893855315  0.0990065940555 1.0
C      1  0.3554659160278  0.5028791036760  0.1375568715421 1.0
C      1  0.9165495510467  0.6260704187090  0.4876244405578 1.0
C      1  0.2070984352239  0.4730482384885  0.7384493587709 1.0
C      1  0.1324121802212  0.5610949606493  0.1421672254798 1.0
C      1  0.7276284178097  0.0332067731103  0.3225813779596 1.0
C      1  0.9853889750847  0.6793888809156  0.4387449087177 1.0
C      1  0.4865900484940  0.0575828933820  0.8235746863250 1.0
C      1  0.5677373142325  0.9213343425925  0.9761502641285 1.0
C      1  0.6859191521988  0.4004504161052  0.6044984853762 1.0
C      1  0.3585667220974  0.9648113953756  0.2703958167435 1.0
C      1  0.3876220207797  0.2424137578648  0.1756360836792 1.0
C      1  0.5781987285483  0.3115553969197  0.3399981509210 1.0
C      1  0.4345001885929  0.2368311989567  0.8942965364838 1.0
C      1  0.2521593285643  0.5998696615085  0.8442161576229 1.0
C      1  0.7223760938011  0.6427576013146  0.9839126401025 1.0
C      1  0.1678221519989  0.5459612330590  0.6091693958166 1.0
C      1  0.4724411530936  0.7763058546812  0.7244588971237 1.0
C      1  0.1413193817506  0.6314561495316  0.6528830065869 1.0
C      1  0.4005176505253  0.4422225052050  0.9133236825492 1.0
C      1  0.4970772407594  0.6636632067536  0.9056037560766 1.0
C      1  0.1659240127694  0.7412459020673  0.4736773894398 1.0
C      1  0.3172138752224  0.5405287575895  0.9845092166159 1.0
C      1  0.2173124091230  0.9095418800363  0.4906661030496 1.0
C      1  0.7665508328594  0.6136811793403  0.4647016944376 1.0
C      1  0.7006890719704  0.2350133167808  0.4053735756027 1.0
C      1  0.2692875125067  0.2505959386405  0.7085361363893 1.0
C      1  0.6167614369451  0.8115719005582  0.3261545978508 1.0
C      1  0.5734817016056  0.4642914878034  0.4868495865650 1.0
C      1  0.3135649895185  0.7941552383501  0.0041187233476 1.0
C      1  0.6978462018039  0.4427008773620  0.1691977539207 1.0
C      1  0.0858236697338  0.4335737123571  0.2513135077613 1.0
C      1  0.8130360993176  0.9206788283594  0.2244850304210 1.0
C      1  0.3595760398339  0.8734765973069  0.5508763470333 1.0
C      1  0.9229344754844  0.2456634879171  0.5219517959439 1.0
C      1  0.8242527713601  0.7098396293264  0.7916558361312 1.0
C      1  0.7241603982736  0.3280203522990  0.0111538091619 1.0
C      1  0.5150311446505  0.6769676004982  0.5024718876675 1.0
C      1  0.5880984978291  0.4058835777977  0.7604854812092 1.0
C      1  0.5182572604671  0.5482338225619  0.7900973640214 1.0
C      1  0.9773792801510  0.3583180378659  0.9696963521529 1.0
C      1  0.4833394367804  0.9276183339166  0.1582974906970 1.0
C      1  0.4170447429949  0.2813602520728  0.6435524694241 1.0
C      1  0.4406964040625  0.2682014542035  0.5244109902195 1.0
C      1  0.4803596417496  0.1262779160883  0.0119403872774 1.0
C      1  0.0696378258348  0.4165418764377  0.6813432277299 1.0
C      1  0.2119873112590  0.5737881311602  0.7607405243694 1.0
C      1  0.8299520355203  0.0264486441466  0.5348824909322 1.0
C      1  0.8738561570730  0.0996119656746  0.5902987945132 1.0
C      1  0.3031319120493  0.3782947285354  0.1148885358791 1.0
C      1  0.1947598343804  0.3124881232600  0.9499734130927 1.0
C      1  0.7839484706078  0.8217879293744  0.6811994637422 1.0
C      1  0.4322715852236  0.3673468503862  0.6917798488263 1.0
C      1  0.3170375212953  0.3673205393239  0.0159807479961 1.0
C      1  0.1848153531126  0.5964375229211  0.9237972610532 1.0
C      1  0.2362882052411  0.7607659168438  0.1990822208236 1.0
C      1  0.6734364535223  0.8329727588789  0.1425987155284 1.0
C      1  0.6580508592734  0.4773086457850  0.3167068990123 1.0
C      1  0.0199875431518  0.3006966178103  0.8483527314929 1.0
C      1  0.4937106194243  0.9640183065289  0.8510977491633 1.0
C      1  0.6979074929072  0.1950939364294  0.7194720259523 1.0
C      1  0.1558620702917  0.4543731050987  0.6526512970611 1.0
C      1  0.1715908497120  0.7809131693543  0.6407626510384 1.0
C      1  0.6989465268810  0.6533260229333  0.4052238392527 1.0
C      1  0.4255717314890  0.5157352163963  0.7814788947255 1.0
C      1  0.3005375023820  0.0188939581935  0.5653404624313 1.0
C      1  0.6384028131367  0.9528127487354  0.4057777821486 1.0
C      1  0.7065237864302  0.3389612381018  0.2763388292728 1.0
C      1  0.3873948262463  0.2349254810766  0.8039008347595 1.0
C      1  0.0649739612653  0.5309693867360  0.0787564335322 1.0
C      1  0.4456270369375  0.8126446982187  0.5724299617592 1.0
C      1  0.7518046730972  0.9843505624165  0.1450449375273 1.0
C      1  0.4109047807698  0.1389566567122  0.3945673777927 1.0
C      1  0.9536265153433  0.4066021544595  0.3282649807736 1.0
C      1  0.4984461071946  0.9105534496328  0.7777901553957 1.0
C      1  0.3794157717049  0.6615319780963  0.2299888904181 1.0
C      1  0.2864890932862  0.4089375781789  0.3577350775895 1.0
C      1  0.4821265206265  0.0269098528778  0.5724947404842 1.0
C      1  0.4078727622293  0.7684328993727  0.9973735952500 1.0
C      1  0.1379468716587  0.0186501394017  0.6036599154007 1.0
C      1  0.5198715545083  0.6328475726060  0.7396066730160 1.0
C      1  0.2505248950647  0.1428860410644  0.8900193745401 1.0
C      1  0.0413023497326  0.3660748987819  0.3177077798289 1.0
C      1  0.3923380432319  0.0901674857999  0.8561270910988 1.0
C      1  0.8124144648465  0.8239465071622  0.2083911955924 1.0
C      1  0.5045470855034  0.0903001577428  0.4979748427894 1.0
C      1  0.3895676294927  0.8175887016514  0.7559821774499 1.0
C      1  0.1353565535133  0.1257140467411  0.3372863215381 1.0
C      1  0.2741397656863  0.6481759986287  0.7186122948392 1.0
C      1  0.5520005667999  0.6786162539073  0.4062152947539 1.0
C      1  0.3558683995348  0.3569859746844  0.4027284491040 1.0
C      1  0.6954655913858  0.1694184535635  0.9360965294139 1.0
C      1  0.1272586606313  0.0659826431175  0.2605538325167 1.0
C      1  0.2253169078786  0.2495276265149  0.1803272819096 1.0
C      1  0.4537681210735  0.9778584549865  0.2383063811847 1.0
C      1  0.8568095921199  0.7768835620111  0.7443242253355 1.0
C      1  0.5926366245267  0.7312116023797  0.6146067003999 1.0
C      1  0.1396921596709  0.0580170020696  0.7057504983027 1.0
C      1  0.8499924957184  0.0219879024861  0.7647219137532 1.0
C      1  0.1206992477264  0.2428903585413  0.9510421428869 1.0
C      1  0.5101499894350  0.3475183749854  0.7508255756542 1.0
C      1  0.0436939057451  0.6174033815898  0.3968593831916 1.0
C      1  0.5391416256678  0.2376462097631  0.8705770677303 1.0
C      1  0.6029648084285  0.1037157082051  0.4728426982125 1.0
C      1  0.2911390729386  0.6470361225310  0.4762580776953 1.0
C      1  0.9380393876849  0.7471646382319  0.6981308569898 1.0
C      1  0.2285899032094  0.3999271590472  0.9742070541975 1.0
C      1  0.6744182418012  0.4752267107301  0.9623563658575 1.0
C      1  0.9774723205282  0.6456862552975  0.7099212915116 1.0
C      1  0.5467392635515  0.9798307592510  0.3805320343640 1.0
C      1  0.7429121537116  0.6797983447909  0.6359335094048 1.0
C      1  0.5983775183029  0.4362014259839  0.5782196353609 1.0
C      1  0.2251706726560  0.5610284155316  0.0104870592571 1.0
C      1  0.0739124106942  0.3158497962652  0.6936339417991 1.0
C      1  0.0877674949971  0.1256222221708  0.2005295471794 1.0
C      1  0.0769648375744  0.8604930398625  0.5416069744591 1.0
C      1  0.7255473974776  0.5229988726753  0.1151596599765 1.0
C      1  0.8800803602516  0.8869183204474  0.4226737059805 1.0
C      1  0.1507254249019  0.7732162687998  0.8999299148552 1.0
C      1  0.4005072219920  0.6353296572142  0.8924218167823 1.0
C      1  0.4442190093700  0.8527688824043  0.3774834252381 1.0
C      1  0.2610527870252  0.5464749045110  0.5848004217176 1.0
C      1  0.0506509523421  0.3349003091471  0.4888271328048 1.0
C      1  0.2840156152349  0.3503638118937  0.5779453131583 1.0
C      1  0.8316841953827  0.3816089654466  0.1878026748320 1.0
C      1  0.4366881702569  0.6861389756889  0.7493975997594 1.0
C      1  0.6639882969807  0.0562693930940  0.8163296911005 1.0
C      1  0.6120039581934  0.6042080371408  0.3899869256737 1.0
C      1  0.7289355187942  0.7740280537181  0.2007123352264 1.0
C      1  0.2742483616854  0.0259875303518  0.3886594153374 1.0
C      1  0.8932701018750  0.1807881090608  0.2473010021651 1.0
C      1  0.6129342472256  0.1863239684122  0.4209240654767 1.0
C      1  0.1943861499168  0.4694760737267  0.0312228046520 1.0
C      1  0.9931527100427  0.5780080562513  0.1180516288290 1.0
C      1  0.6801698711140  0.6969916597370  0.0578075845611 1.0
C      1  0.7997860788593  0.7904940967686  0.9353020313017 1.0
C      1  0.1479342332882  0.8333943419707  0.3198787892857 1.0
C      1  0.7355295828395  0.6212028101291  0.5561743477900 1.0
C      1  0.8106734369068  0.9330758232690  0.5582298555751 1.0
C      1  0.1242155577420  0.6211114798014  0.7506151433229 1.0
C      1  0.1553148929524  0.7535518151647  0.2558385006075 1.0
C      1  0.5932650354700  0.7698035467860  0.8258539655061 1.0
C      1  0.9085187491299  0.5826927976295  0.7412394054234 1.0
C      1  0.0650428607114  0.2108421245244  0.2526302802843 1.0
C      1  0.6121927302117  0.7084040886782  0.1998175037407 1.0
C      1  0.8385013921540  0.5904467598763  0.3590181696586 1.0
C      1  0.7994533044340  0.2249470676953  0.4195934726529 1.0
C      1  0.2616358410932  0.1859164411605  0.0441389094486 1.0
C      1  0.9937213259004  0.4548784412410  0.6366409682849 1.0
C      1  0.3789102365900  0.1432873081468  0.5899241389391 1.0
C      1  0.6983916486252  0.6832149822474  0.1534294155794 1.0
C      1  0.6570862830605  0.6519345618405  0.9089614702754 1.0
C      1  0.4573798830353  0.0860327793733  0.0958145902262 1.0
C      1  0.1875029382837  0.6266415587298  0.0877995814494 1.0
C      1  0.9150886516105  0.5862433676655  0.9185160674786 1.0
C      1  0.3123299256728  0.9447615588410  0.5076051399098 1.0
C      1  0.7296641328743  0.1671434216828  0.1912571076251 1.0
C      1  0.7536751800329  0.7874399337325  0.5126076316728 1.0
C      1  0.7864920607501  0.3160764337010  0.5573395871278 1.0
C      1  0.4812068294826  0.6152350972638  0.0468360737489 1.0
C      1  0.6213639311372  0.5394992819325  0.1013576885152 1.0
C      1  0.1358389462960  0.1921530451376  0.7998205594199 1.0
C      1  0.8919198681158  0.7373215227060  0.6036397442655 1.0
C      1  0.6704737746447  0.6375738351268  0.8108656576241 1.0
C      1  0.8929243581033  0.3353130607961  0.6813234226039 1.0
C      1  0.3788473836777  0.4491934542439  0.0028039934879 1.0
C      1  0.6651846690706  0.2613704190303  0.3132707912039 1.0
C      1  0.2991117169427  0.8893325074599  0.2951553226056 1.0
C      1  0.3425773427604  0.0307000323546  0.7248340901123 1.0
C      1  0.9755097447019  0.7764275457089  0.4580198130536 1.0
C      1  0.7649774404358  0.0718815104143  0.4755048577094 1.0
C      1  0.9821386184699  0.4995436663488  0.3356625694485 1.0
C      1  0.5453096946133  0.8297458138607  0.7688436683689 1.0
C      1  0.9367430221634  0.5264754084741  0.4877343439767 1.0
C      1  0.1911257255277  0.9154591011007  0.7422791162313 1.0
C      1  0.9235556950360  0.1274878556088  0.4035902828544 1.0
C      1  0.7568026472146  0.4589142099441  0.5705910041810 1.0
C      1  0.8766270979513  0.2356912126724  0.8796549703401 1.0
C      1  0.4924757635922  0.5778928396347  0.6428506744295 1.0
C      1  0.9139614897421  0.2718434149349  0.2786727437528 1.0
C      1  0.7860842489798  0.4577017383932  0.7107283092737 1.0
C      1  0.3875734048173  0.7875139745573  0.1373825568250 1.0
C      1  0.2748235098057  0.4927566219836  0.4958495951349 1.0
C      1  0.6016755855422  0.4549469530598  0.1568539979763 1.0
C      1  0.8655711233226  0.5689746926457  0.6445038163399 1.0
C      1  0.0996046606625  0.4941031631751  0.0096047259353 1.0
C      1  0.2789540264858  0.2804460852990  0.5071576106552 1.0
C      1  0.8254305306216  0.5487482489462  0.9011309712108 1.0
C      1  0.2305558897434  0.0448013795037  0.8513437171885 1.0
C      1  0.5605881806334  0.1816401215676  0.6066146850072 1.0
C      1  0.2316752814792  0.8144522894384  0.4800340694263 1.0
C      1  0.6665036362457  0.7449032272738  0.2735117004239 1.0
C      1  0.9747102977699  0.6519874239670  0.3355613774034 1.0
C      1  0.1030723532632  0.4521427003972  0.8684855568135 1.0
C      1  0.0616070459752  0.2311377688922  0.4623275149730 1.0
C      1  0.1797933648348  0.4284551895609  0.8192099191314 1.0
C      1  0.4320240823399  0.7581999252676  0.4130658689570 1.0
C      1  0.3397742630380  0.5270871839278  0.2268897596744 1.0
C      1  0.2054683941676  0.9291718392132  0.1510467303487 1.0
C      1  0.2227511123374  0.2586204282285  0.2794462287146 1.0
C      1  0.8621803317308  0.0891079970712  0.6896807989830 1.0
C      1  0.4169441648858  0.0634769550804  0.4542027595765 1.0
C      1  0.4518820870179  0.8088778825892  0.0687734360117 1.0
C      1  0.5876577194561  0.5414422468403  0.3119470176150 1.0
C      1  0.2042299050103  0.7839897716424  0.3902121887441 1.0
C      1  0.1958731083147  0.8612637324437  0.9057632633887 1.0
C      1  0.3151277602827  0.7981224289919  0.2694644353139 1.0
C      1  0.1782433031973  0.6967079649318  0.9558201175088 1.0
C      1  0.5997845621566  0.0128890175764  0.9533713095098 1.0
C      1  0.9345372982527  0.8059237722209  0.5453755627125 1.0
C      1  0.7549577647129  0.8454073885584  0.8688583323904 1.0
C      1  0.3285600980057  0.4946174042401  0.6373903130355 1.0
C      1  0.3305478398442  0.9006765488124  0.0316543831714 1.0
C      1  0.5033184084109  0.8413863966995  0.2104831632801 1.0
C      1  0.2932555458989  0.2056827228212  0.3213067840445 1.0
C      1  0.2015097265973  0.5062963336860  0.1845067294420 1.0
C      1  0.5810146636585  0.3261609646950  0.8953915126644 1.0
C      1  0.0249063709710  0.2698166836209  0.9430813794815 1.0
C      1  0.1843146746743  0.2125328446320  0.6548344594558 1.0
C      1  0.5798547970000  0.5370227912337  0.2044224360734 1.0
C      1  0.3413738098045  0.2060911743561  0.3964666393375 1.0
C      1  0.6992315542006  0.1116500093563  0.7456872194108 1.0
C      1  0.2135152073778  0.0620734187523  0.5547928303988 1.0
C      1  0.1357399761127  0.3390439708689  0.1410136798287 1.0
C      1  0.4531686742815  0.6180665615294  0.5583540459354 1.0
C      1  0.6791479300262  0.3340221630975  0.8627480886419 1.0
C      1  0.7576947662492  0.9337898791571  0.3145394562450 1.0
C      1  0.0241450830536  0.3974794336916  0.8790358825075 1.0
C      1  0.0107917709144  0.8174897450059  0.6911014029709 1.0
C      1  0.5975963417515  0.9399418825480  0.5580748822853 1.0
C      1  0.0247013385390  0.1524973474095  0.6349375170359 1.0
C      1  0.6566645640125  0.4940773632130  0.8347415786589 1.0
C      1  0.6399779413551  0.0387994844437  0.2658929258868 1.0
C      1  0.4248821686337  0.5429118982177  0.5047307422245 1.0
C      1  0.4852956941587  0.2830465512097  0.3196484517854 1.0
C      1  0.4945112560023  0.5725329821032  0.1856370040243 1.0
C      1  0.3391304615749  0.1076449246498  0.6781371527047 1.0
C      1  0.9198991228564  0.5700165816510  0.3178583471669 1.0
C      1  0.2343486290736  0.3451978595099  0.1759400199794 1.0
C      1  0.5902739730671  0.9624250504758  0.1515216054417 1.0
C      1  0.5233857976193  0.7994365611521  0.6384611360742 1.0
C      1  0.8499938000307  0.3027396764094  0.3639542323050 1.0
C      1  0.4793179781696  0.1903433104795  0.3417848129103 1.0
C      1  0.9228197284915  0.6663378529006  0.9880829592956 1.0
C      1  0.3697905104253  0.9153516349918  0.3587883360821 1.0
C      1  0.1754089271110  0.0018294014650  0.7762520446330 1.0
C      1  0.3186975150377  0.7921026492319  0.5153839800223 1.0
C      1  0.3733520056213  0.7949797218709  0.8511910356539 1.0
C      1  0.7471513979938  0.5988150576311  0.1773626986593 1.0
C      1  0.3099274471330  0.6515090863440  0.3158521454459 1.0
C      1  0.9762853653119  0.1795734092448  0.4654606545330 1.0
C      1  0.1528678680465  0.9227737948247  0.5714028349394 1.0
C      1  0.6671416233982  0.1368646773205  0.0392614582052 1.0
C      1  0.6878187139374  0.0382245453597  0.4203496384751 1.0
C      1  0.6283060892195  0.2617391482877  0.7193550485246 1.0
C      1  0.4740506810122  0.9114213519526  0.9357473579768 1.0
C      1  0.1077873014128  0.5287197386078  0.9188903822851 1.0
C      1  0.3001626520637  0.2014787742613  0.5655839456912 1.0
C      1  0.7187697074113  0.6765646309894  0.3152850582790 1.0
C      1  0.3222396721797  0.0230818703248  0.8274015561326 1.0
C      1  0.0753089245152  0.5159065735997  0.5008356516854 1.0
C      1  0.3985407553421  0.4139002196115  0.1404236239769 1.0
C      1  0.8162724628012  0.4644460358653  0.2490161622080 1.0
C      1  0.4433442387284  0.5884657327577  0.3402950217849 1.0
C      1  0.3450322330575  0.2845935580952  0.9468963630944 1.0
C      1  0.9685693204724  0.9138102511432  0.6823386711867 1.0
C      1  0.0104216164536  0.2725836882688  0.2866172120106 1.0
C      1  0.7901162690521  0.5262313293083  0.4150563439973 1.0
C      1  0.2578147309258  0.6658787050357  0.1505185742565 1.0
C      1  0.4499206852253  0.8109906368178  0.9130961720094 1.0
C      1  0.2004992800484  0.9183318224935  0.3119580952544 1.0
C      1  0.8102333803509  0.6637205946488  0.2973059333567 1.0
C      1  0.4015303307461  0.6722860453275  0.0353161985049 1.0
C      1  0.7383032490312  0.3441254686696  0.1855525809491 1.0
C      1  0.3818303431618  0.9460111384576  0.9567614845752 1.0
C      1  0.5658420490949  0.8315108647685  0.4671627798397 1.0
C      1  0.5267253639996  0.4157017816246  0.0100566077115 1.0
C      1  0.8265244123544  0.2813267792269  0.9504171282403 1.0
C      1  0.9166612358443  0.8039434427316  0.3821555470275 1.0
C      1  0.3671601772051  0.7557596364021  0.6004304254754 1.0
C      1  0.0643426852006  0.0706500719629  0.6476599125015 1.0
C      1  0.9089977234506  0.6423694616431  0.5818854295553 1.0
C      1  0.9871148252084  0.7183621171143  0.2621219577090 1.0
C      1  0.7367131716035  0.0902639676134  0.8833640623512 1.0
C      1  0.8829305350382  0.9420551482923  0.7106635578866 1.0
C      1  0.2269199305738  0.6080203440497  0.2921940558009 1.0
C      1  0.1890657426117  0.2739144441591  0.4737607259324 1.0
C      1  0.6894950841627  0.8088306320014  0.7142873191570 1.0
C      1  0.7473167949451  0.7100220114688  0.9208008865820 1.0
C      1  0.3432756672322  0.9365701086336  0.8642073452541 1.0
C      1  0.9061203760055  0.8590263935250  0.2297469171044 1.0
C      1  0.5023553008655  0.9085550686025  0.4419067723641 1.0
C      1  0.6348400650289  0.1256730812914  0.5621363934792 1.0
C      1  0.2009638652612  0.7540547706233  0.8108979481277 1.0
C      1  0.3488215617722  0.1493958612075  0.1791174899349 1.0
C      1  0.2060633023021  0.8798789405162  0.6472922576222 1.0
C      1  0.2866903303498  0.0370841950498  0.2861435878563 1.0
C      1  0.3443859440942  0.4798026972157  0.3132298611347 1.0
C      1  0.0455110906399  0.8442998358905  0.4435669996815 1.0
C      1  0.3130745577642  0.3024981660042  0.7861484374239 1.0
C      1  0.3210868251180  0.4912475140936  0.8956268285282 1.0
C      1  0.8610481109469  0.1783803569771  0.7328060759380 1.0
C      1  0.6203892690466  0.9538956173973  0.6505872142343 1.0
C      1  0.1860799771444  0.5278296491804  0.3475929768122 1.0
C      1  0.9640982187595  0.5535037434106  0.8362886229981 1.0
C      1  0.1285753216286  0.1440077861248  0.1173214093981 1.0
C      1  0.9162447072276  0.3612538006964  0.2345517845837 1.0
C      1  0.8550511208021  0.3543849800212  0.0935288795222 1.0
C      1  0.5749482152842  0.6140254453907  0.9285397284789 1.0
C      1  0.7987170508412  0.3129472677117  0.6578793681127 1.0
C      1  0.6809630690970  0.9279790925279  0.1350867649317 1.0
C      1  0.2749835770846  0.6895984786737  0.8080181406574 1.0
C      1  0.0635288295181  0.6018819835493  0.1964238154122 1.0
C      1  0.7541322310953  0.5506154001394  0.9718080821048 1.0
C      1  0.3710745057386  0.7029305260604  0.8309154650023 1.0
C      1  0.5779777773092  0.4970397978008  0.7289158984313 1.0
C      1  0.1422944893744  0.7057552325725  0.0465980534101 1.0
C      1  0.1368382847601  0.7905713901792  0.0781872518879 1.0
C      1  0.8870639672929  0.7976213411273  0.1497415650017 1.0
C      1  0.1473033148138  0.2456053590014  0.1122526085445 1.0
C      1  0.1138796343117  0.7171217716136  0.7803420517057 1.0
C      1  0.8915391613548  0.7580456794406  0.9759936536340 1.0
C      1  0.5173838012423  0.3200633827396  0.5001021318906 1.0
C      1  0.6047112271311  0.2742929045560  0.6199927849758 1.0
C      1  0.7013127766657  0.4819519236731  0.4058687796117 1.0
C      1  0.5279254276024  0.3870837744387  0.8368344769920 1.0
C      1  0.4532655718610  0.2214438412617  0.7214082615675 1.0
C      1  0.1944571890517  0.9914819850393  0.2415724005735 1.0
C      1  0.2190766117721  0.4606023101899  0.4156556665700 1.0
C      1  0.7863260955721  0.8911786169391  0.4019584359942 1.0
C      1  0.7391086938155  0.9277596432038  0.8515303769353 1.0
C      1  0.8413617878770  0.4694297781342  0.6264559911835 1.0
C      1  0.1403727509760  0.2941241252603  0.6299528292051 1.0
C      1  0.4707386110081  0.9429175680941  0.6894173474463 1.0
C      1  0.6028483478883  0.6867872178309  0.7610094613377 1.0
C      1  0.2544447034414  0.4203656581365  0.8823377657096 1.0
C      1  0.9458408997677  0.3862454378744  0.0644515912818 1.0
C      1  0.2896688649568  0.8565939786684  0.8703003569722 1.0
C      1  0.8327884900698  0.4345402367204  0.7900706796635 1.0
C      1  0.4169062355343  0.7946014810386  0.2254780035958 1.0
C      1  0.8633517762569  0.3801747414374  0.9455526761677 1.0
C      1  0.6589581632757  0.7195624546078  0.6809052439364 1.0
C      1  0.4209775725414  0.5780949771197  0.2449811381688 1.0
C      1  0.6107805129373  0.9479652510806  0.2510102925149 1.0
C      1  0.6880780162664  0.8028657610241  0.0482640951317 1.0
C      1  0.0960274308295  0.7791835852518  0.7079316366886 1.0
C      1  0.6397114807608  0.1909351083890  0.2539954537261 1.0
C      1  0.4879177638450  0.7709379859740  0.4967642961811 1.0
C      1  0.3849369405780  0.0597352875261  0.5499997174382 1.0
C      1  0.3745019401696  0.6621193668674  0.6013126597439 1.0
C      1  0.5466312222531  0.3534969347528  0.5859439773049 1.0
C      1  0.4760126768204  0.4183508614485  0.6195068497694 1.0
C      1  0.7690154071060  0.0558740516549  0.7083404941057 1.0
C      1  0.6930882012692  0.7447785666833  0.4451391534358 1.0
C      1  0.6657749972740  0.5489160814195  0.7605396678000 1.0
C      1  0.5809090373740  0.7982491372062  0.1602164051267 1.0
C      1  0.4748082009861  0.1762931705333  0.5484694161935 1.0
C      1  0.7309315693357  0.2519744929279  0.1317201705894 1.0
C      1  0.8458898153023  0.6545143401957  0.4321391759530 1.0
C      1  0.2223688895933  0.6890695313943  0.6437126438794 1.0
C      1  0.6436508690396  0.2172623299781  0.0909458773616 1.0
C      1  0.5950145688773  0.1591201549664  0.9087660380457 1.0
C      1  0.1514601811435  0.1200523420328  0.4239960498833 1.0
C      1  0.5101432734442  0.1515073651797  0.6901966981487 1.0
C      1  0.3275956855922  0.1589554156454  0.8174550588843 1.0
C      1  0.3680232481241  0.0786151778131  0.1166757012641 1.0
C      1  0.3527355472623  0.5689970495176  0.3638441580776 1.0
C      1  0.8617222519120  0.4299317911101  0.0331590902924 1.0
C      1  0.4551963130034  0.3949263637695  0.2170931392430 1.0
C      1  0.5643899244895  0.5679684536097  0.0164450852019 1.0
C      1  0.1895828132513  0.8312042398274  0.1385705098224 1.0
C      1  0.9717414385316  0.4531169145113  0.8124868270014 1.0
C      1  0.7989992237141  0.9167236302558  0.6571912636968 1.0
C      1  0.8579244058203  0.1614997289982  0.8325994870110 1.0
C      1  0.4257845015303  0.4466616732717  0.5348882306714 1.0
C      1  0.7302724540582  0.3767907135402  0.6935822419427 1.0
C      1  0.1313863995586  0.5896785144994  0.5253778478176 1.0
C      1  0.1922160038486  0.3762194161866  0.6026378367063 1.0
C      1  0.0030910560034  0.5240871527852  0.5694654885046 1.0
C      1  0.7029040834824  0.0852804365016  0.1275415296650 1.0
C      1  0.6175762660167  0.3869937281123  0.2874534730078 1.0
C      1  0.1398022527642  0.2220472955488  0.3143465927910 1.0
C      1  0.5408056269724  0.6863328605216  0.0845070391600 1.0
C      1  0.3426494218988  0.6360449705039  0.9718464151817 1.0
C      1  0.8120010909438  0.4460637233933  0.8798502466890 1.0
C      1  0.2103625201754  0.1595818804970  0.5730382650131 1.0
C      1  0.1501170699380  0.1871896775969  0.4947160653378 1.0
C      1  0.9614118718372  0.5043880139099  0.1807980673241 1.0
C      1  0.2155798864711  0.8509027397858  0.8054171622162 1.0
C      1  0.5106750881644  0.9463834875223  0.5321388000290 1.0
C      1  0.6663765130613  0.3434855099469  0.7609349549705 1.0
C      1  0.5263932328126  0.9390669154770  0.2968530954430 1.0
C      1  0.7814621925307  0.8236888228079  0.0237396038518 1.0
C      1  0.9965565734182  0.8599836950150  0.6022262340936 1.0
C      1  0.9767228735806  0.4044785428588  0.1559085488988 1.0
C      1  0.3161100084052  0.1798774351692  0.9652790851074 1.0
C      1  0.4536028083631  0.2615640164515  0.1134952491875 1.0
C      1  0.6936971571256  0.9672796747285  0.7881476576924 1.0
C      1  0.5803650022497  0.2914777796157  0.4365470945673 1.0
C      1  0.8259522745623  0.2385130389005  0.5169953391031 1.0
C      1  0.9272228126645  0.2501028009473  0.7235081615318 1.0
C      1  0.2587030844575  0.5798620240315  0.2104213391475 1.0
C      1  0.4731190926996  0.6862743554247  0.3496309774996 1.0
C      1  0.7923055133831  0.4053327348635  0.5010043700892 1.0
C      1  0.2106221265283  0.1083050467553  0.0808761377933 1.0
C      1  0.3958295202436  0.9087476102740  0.7820283114508 1.0
C      1  0.1752909571162  0.4572258506475  0.2694023718327 1.0
C      1  0.9007940012576  0.3776570725040  0.7726492450267 1.0
C      1  0.1629309370574  0.1859508624787  0.8828946913589 1.0
C      1  0.6714803801093  0.3161776360480  0.4600598956760 1.0
C      1  0.0356666587592  0.5818333530215  0.7645457971162 1.0
C      1  0.4387758483461  0.4400611037661  0.3049955058562 1.0
C      1  0.5235437800119  0.7501519643229  0.8940523636539 1.0
C      1  0.2978131356754  0.2137124867210  0.1332652905792 1.0
C      1  0.5814393950911  0.0683314846508  0.8668322754371 1.0
C      1  0.5248880411318  0.6694428927230  0.1843769204107 1.0
C      1  0.3697791334602  0.6353329645957  0.6939811310944 1.0
C      1  0.7108018586659  0.5389734719792  0.5961161204716 1.0
C      1  0.7187720499501  0.9720837038590  0.6894778950543 1.0
C      1  0.5315380870189  0.0105960390683  0.6617939384451 1.0
C      1  0.8670170421985  0.8105546096073  0.0555751553790 1.0
C      1  0.4478133659528  0.5422282997765  0.1040173650083 1.0
C      1  0.4047602299106  0.5435126175367  0.6851890720672 1.0
C      1  0.8836760185147  0.8816745296952  0.5127844878949 1.0
C      1  0.2923952329904  0.7424131808096  0.3539979768587 1.0
C      1  0.8395414445934  0.6296746412184  0.2055149026725 1.0
C      1  0.5724671787098  0.2713734586063  0.0533646181415 1.0
C      1  0.3211554714228  0.2739541157453  0.6327914854421 1.0
C      1  0.4855216563050  0.0703905799935  0.2533529319576 1.0
C      1  0.4966653106027  0.5062001865022  0.3538919457947 1.0
C      1  0.6905823232110  0.7932557730295  0.8150131030275 1.0
C      1  0.4191863899424  0.1228361537378  0.2998345343240 1.0
C      1  0.7156899926605  0.4152037918190  0.0217736781862 1.0
C      1  0.8259772140667  0.0748452811800  0.8527846773647 1.0
C      1  0.3257269316902  0.1280671612297  0.2688005921249 1.0
C      1  0.9261106234943  0.2923289280055  0.8158479004704 1.0
C      1  0.5893867842291  0.6640834217803  0.5582620252586 1.0
C      1  0.2802799108921  0.1573469394414  0.7335753676091 1.0
C      1  0.2560317378666  0.4670380718359  0.1131636108358 1.0
C      1  0.5429978854102  0.7842154023789  0.0686841049742 1.0
C      1  0.4852552528193  0.4820153692593  0.4567630739332 1.0
C      1  0.1986728564683  0.9594195768816  0.4065163937322 1.0
C      1  0.5273548950804  0.1126337060868  0.1686931126445 1.0
C      1  0.0166730019563  0.2296765436714  0.6985412773622 1.0
C      1  0.0184478366117  0.4821502490545  0.7314335540219 1.0
C      1  0.9148405137729  0.1084840557825  0.3135290132720 1.0
C      1  0.6132858782849  0.0584300107067  0.1674850766250 1.0
C      1  0.8066783983658  0.1520023638492  0.2425423838394 1.0
C      1  0.8323249649540  0.6170238912455  0.7823988087257 1.0
C      1  0.4496889647460  0.4383143126518  0.8433750025441 1.0
C      1  0.6439406091618  0.8982571067119  0.4893772532999 1.0
C      1  0.1877824450844  0.2468734878408  0.0228971348417 1.0
C      1  0.6855830055143  0.3109920921717  0.5583610830017 1.0
C      1  0.4887549671177  0.2195978230069  0.0433788851840 1.0
C      1  0.4580608779500  0.7120208323712  0.2520057514646 1.0
C      1  0.3122019194367  0.8845884511851  0.6416668073477 1.0
C      1  0.9200129702419  0.3987386204650  0.6095338866727 1.0
C      1  0.7731616825743  0.7911871674950  0.4109261639345 1.0
C      1  0.8237357425464  0.1284898950939  0.4086946473998 1.0
C      1  0.7259026157775  0.4993522645612  0.2462263416845 1.0
C      1  0.4090809934070  0.1430411101858  0.9394859832083 1.0
C      1  0.2799857170211  0.3211231105675  0.8783218951581 1.0
C      1  0.7938416530590  0.7582334940085  0.6035381075865 1.0
C      1  0.6027210271236  0.8394481250632  0.0066061060974 1.0
C      1  0.3535205615256  0.6906943292642  0.1303601292210 1.0
C      1  0.5673471671911  0.3400423302447  0.9901925308972 1.0
C      1  0.7379190984180  0.7081139961948  0.8241554256656 1.0
C      1  0.5809854396916  0.2038683119589  0.1748282322078 1.0
C      1  0.1367808314434  0.6156875276535  0.3810215381577 1.0
C      1  0.8062549536672  0.0914118071824  0.3145968754322 1.0
C      1  0.4243446651379  0.3525592724920  0.3440745921530 1.0
C      1  0.2325289538261  0.3686738568990  0.2777251848566 1.0
C      1  0.0566562380762  0.8493458498686  0.3513165084038 1.0
C      1  0.1282609532458  0.2744650808191  0.3950007315405 1.0
C      1  0.5386477273356  0.2555383686839  0.7658385994698 1.0
C      1  0.0327382445224  0.5157726160255  0.2512971085952 1.0
C      1  0.9069983370570  0.3763169744758  0.4133759710804 1.0
C      1  0.1991949892492  0.0480350906683  0.4509985812457 1.0
C      1  0.3326296464044  0.7997885791594  0.6814353042264 1.0
C      1  0.6647951577134  0.8991119341633  0.3195943580018 1.0
C      1  0.3324422471753  0.4314467780654  0.5537240325008 1.0
C      1  0.5607750807250  0.0649178556901  0.3207928422749 1.0
C      1  0.7088594506187  0.4304575037472  0.8806690102861 1.0
C      1  0.3578643255689  0.2805041835526  0.4578868070979 1.0
C      1  0.0782840316067  0.6917864765433  0.2333287692220 1.0
C      1  0.0733075531406  0.2589634109371  0.7762295754710 1.0
C      1  0.8431875158350  0.7362590006900  0.3745280869105 1.0
C      1  0.7303584391034  0.5369011420946  0.6943476235866 1.0
C      1  0.3544617755195  0.5601029946519  0.8409583641542 1.0
C      1  0.1506596212111  0.6674821300064  0.3005755008740 1.0
C      1  0.2949369726717  0.4471663802883  0.7134246320414 1.0
C      1  0.7774313551729  0.3689904983271  0.3381549401719 1.0
C      1  0.0933193602187  0.3645235286973  0.3994844830661 1.0
C      1  0.5710131719091  0.4856747720186  0.9634406561445 1.0
C      1  0.8611707130005  0.4599667782454  0.4549260367119 1.0
C      1  0.5791016778327  0.1033187277513  0.9941359152960 1.0
C      1  0.6041057677834  0.8598996231461  0.6894580559082 1.0
C      1  0.6314772479520  0.5342767081180  0.4590064663221 1.0
C      1  0.7988065241856  0.1703894330336  0.5863089084628 1.0
C      1  0.0157141003634  0.5257915783003  0.4237151779228 1.0
C      1  0.7259656555658  0.2712185556842  0.9283036778279 1.0
C      1  0.3418456994652  0.7336093085968  0.4400217873817 1.0
C      1  0.5407203525146  0.2945089646759  0.1458719280934 1.0
C      1  0.1130207096283  0.7617092114795  0.5561552296423 1.0
C      1  0.3537895775320  0.9838675747139  0.4260514971737 1.0
C      1  0.4209928061687  0.3061365932013  0.2482783660432 1.0
C      1  0.3472221299718  0.3826311031602  0.7413409537825 1.0
C      1  0.0707438254883  0.3910427473753  0.1678291624424 1.0
C      1  0.7236187909846  0.1239962282886  0.5517688338515 1.0
C      1  0.0796236071779  0.6656681549058  0.5824888465640 1.0
C      1  0.8838367193577  0.5399514312929  0.2306268638370 1.0
C      1  0.3721119102502  0.9486846579218  0.6950207241104 1.0
C      1  0.2730034998077  0.7151517961486  0.9769416208205 1.0
C      1  0.9428085319791  0.6510048410331  0.0806407895851 1.0
C      1  0.1327563707619  0.3291187631335  0.5402689813035 1.0
C      1  0.7993793932611  0.2826673049335  0.0565346961437 1.0
C      1  0.5425808516865  0.4932680770825  0.6397533519169 1.0
C      1  0.7836246590406  0.2172336798928  0.6768788513817 1.0
C      1  0.9531365503606  0.3431780237618  0.5106013083425 1.0
C      1  0.5215487905734  0.8462505474290  0.3059027757677 1.0
C      1  0.9574274485361  0.1592177312503  0.5642499326813 1.0
C      1  0.9723223807935  0.8140613673201  0.3001823704788 1.0
C      1  0.7291455109612  0.3909596558127  0.4262847403275 1.0
C      1  0.5162502879910  0.0747161007067  0.7309828709429 1.0
C      1  0.7828309716754  0.4878332775281  0.0442655279268 1.0
END
