TITL C-29318-2018-4 -4.817 3375.00 -835.27102598 0 0 102 (C1) n - 1
REM
REM Run started: at 2021.01.18 00:09:35 in /rds/project/t2_vol4/rds-t2-cs072/BORA/CARBON/AIRSS/Generating-Clusters/Str-Search/Only-C1/C100-200
REM VASP from code version vasp.5.4.4.18Apr17-6-g9f103f2a35 (build Oct 11 2019 16:45:47) gamma-only
REM
REM
REM
REM
REM ./C.cell (efaf0b2bf1589a83377268d7ebe2c73f)
REM AIRSS Version 0.9.1 bugfix July 2018 build 013d7b7c2542+ Fri, 06 Jul 2018 19:26:36 +0100
REM compiler GCC version 4.8.5 20150623 (Red Hat 4.8.5-39)
REM options -cpp -mtune=generic -march=x86-64 -g -O0
REM seed 1036158989 -1698922130 2114754364 -1466665412 662501130 -981910096 -1671399655 813655367 -1854264838 516264358 152279329 -1350823841
REM
REM C.POTCAR (d86ddea03c3ceb6dc662c8ad6801f873)
REM 
CELL 1.54180   15.00000   15.00000   15.00000   90.00000   90.00000   90.00000
LATT -1
SFAC C  
C      1  0.5088085172521  0.3656719916104  0.6043631774706 1.0
C      1  0.6662474242959  0.3926928162605  0.3010657522534 1.0
C      1  0.4717724682291  0.3389161831548  0.2849990210142 1.0
C      1  0.3521319512334  0.4370861043180  0.2394458198935 1.0
C      1  0.6169379915651  0.5933449702213  0.8129818333863 1.0
C      1  0.7181892567586  0.3105125879229  0.2718843328810 1.0
C      1  0.6007911030679  0.4993872909181  0.4816832678631 1.0
C      1  0.7738144515933  0.3983125271214  0.4302992340593 1.0
C      1  0.4516252113171  0.2170280907119  0.5836694306280 1.0
C      1  0.4425176490622  0.2662541124183  0.7433109089977 1.0
C      1  0.2154498236233  0.6266224502122  0.4481229288441 1.0
C      1  0.7393964514918  0.2694547546639  0.3426111835799 1.0
C      1  0.6261691179529  0.6287367541784  0.5716012007338 1.0
C      1  0.4516212819000  0.6529215690878  0.5508770026199 1.0
C      1  0.4915082145054  0.2426515846515  0.4288526949879 1.0
C      1  0.4539033490238  0.7366321916645  0.3235805575295 1.0
C      1  0.2756646720504  0.4354258725778  0.3108242637095 1.0
C      1  0.4395499674302  0.4650408337899  0.3992992633276 1.0
C      1  0.2676049047105  0.6900036038889  0.5009436404682 1.0
C      1  0.5985771442796  0.4059705257039  0.4553669589151 1.0
C      1  0.5976646623035  0.7344554922656  0.3846685066708 1.0
C      1  0.2508844147921  0.6715327735778  0.2055411188660 1.0
C      1  0.5318236216974  0.2213380358903  0.5188001953611 1.0
C      1  0.3999328427173  0.5757811409975  0.5195933342769 1.0
C      1  0.6014128746797  0.3609264921720  0.3752610221229 1.0
C      1  0.5292166408568  0.5632389704434  0.7961822939396 1.0
C      1  0.4194478101636  0.3916804566713  0.6241459659103 1.0
C      1  0.5163378649763  0.7842418938661  0.3759387437797 1.0
C      1  0.4150460465090  0.6256710950880  0.3634179380495 1.0
C      1  0.7495596904963  0.2983858326246  0.4294328863346 1.0
C      1  0.3717548909354  0.2454478472141  0.5332495651006 1.0
C      1  0.5376852792091  0.6331048572463  0.5255150187501 1.0
C      1  0.6125835407595  0.5285794274873  0.5733807253848 1.0
C      1  0.6875437622475  0.6656969356982  0.5015682340993 1.0
C      1  0.2334573723932  0.6321213798452  0.2792568967938 1.0
C      1  0.3242382964182  0.3121842807776  0.4166080787563 1.0
C      1  0.7574319460596  0.5895852012354  0.6968312285488 1.0
C      1  0.4581277873350  0.4366926167693  0.3178137325134 1.0
C      1  0.4428946978345  0.5581319424165  0.4295227197432 1.0
C      1  0.5949879563997  0.5338415002746  0.2467823630349 1.0
C      1  0.4636473697251  0.6935224579163  0.7318664209334 1.0
C      1  0.1891452271993  0.5564477861972  0.5049818509359 1.0
C      1  0.5717691570772  0.3405571488494  0.6701235734397 1.0
C      1  0.8070370609577  0.3824567416951  0.5885355032999 1.0
C      1  0.6386278525864  0.7435000930661  0.4696206508082 1.0
C      1  0.6347623849443  0.2760725291190  0.6447936374632 1.0
C      1  0.5277097412926  0.2957309918872  0.3583767098112 1.0
C      1  0.2269917279411  0.4899105264114  0.3694491156079 1.0
C      1  0.7993515667661  0.4414213764304  0.5137089847928 1.0
C      1  0.7523123985817  0.3854428092499  0.6672792491441 1.0
C      1  0.6465114796523  0.5805918248811  0.3137336228057 1.0
C      1  0.2317968624752  0.4099802941648  0.5356295184716 1.0
C      1  0.3936224040511  0.2493741303413  0.4435097090087 1.0
C      1  0.4534986434721  0.3572580700149  0.7664977618440 1.0
C      1  0.7264700177259  0.2917613383810  0.6697455430936 1.0
C      1  0.2716137042739  0.4916782927694  0.6165074950090 1.0
C      1  0.5466604733979  0.7114605876467  0.6866499743441 1.0
C      1  0.2212915623196  0.5887153853269  0.3588791202239 1.0
C      1  0.5259445106814  0.3840751393032  0.5141243699545 1.0
C      1  0.4327348661072  0.7488114736008  0.5926472220033 1.0
C      1  0.3231842531707  0.6585932457974  0.6749500744018 1.0
C      1  0.4075199174274  0.7873141450751  0.5036367365951 1.0
C      1  0.7691267193484  0.2919879774940  0.5826146836126 1.0
C      1  0.3570111799577  0.5788869239217  0.7310264600368 1.0
C      1  0.3492508173477  0.5061015041053  0.5523123026641 1.0
C      1  0.3364569291803  0.7414830330411  0.4566337890256 1.0
C      1  0.7339520623859  0.4500625892946  0.3606482691180 1.0
C      1  0.3882196658067  0.4119854293415  0.7086569293749 1.0
C      1  0.5839860889260  0.5307310411840  0.6611544199145 1.0
C      1  0.5453000337782  0.5777287546397  0.4441051781398 1.0
C      1  0.3050303225762  0.3440734622676  0.5119850703693 1.0
C      1  0.5439149126277  0.3930234877683  0.7506805117575 1.0
C      1  0.4912315397921  0.6426227204752  0.2981468736023 1.0
C      1  0.6770775547272  0.6103868140122  0.7433584237002 1.0
C      1  0.5046531377086  0.5665107233928  0.2337156434755 1.0
C      1  0.5680616915840  0.7900780075404  0.5255616009223 1.0
C      1  0.7813702680281  0.5675248032611  0.6191195263481 1.0
C      1  0.3775723117794  0.4136951884852  0.5376985620710 1.0
C      1  0.4487246715697  0.4103981608604  0.4748992955712 1.0
C      1  0.3290164303310  0.4913912317681  0.7043273962659 1.0
C      1  0.3900497173702  0.7234252006719  0.6785620640455 1.0
C      1  0.5549582408593  0.4847713321359  0.7386393571711 1.0
C      1  0.7149969646385  0.5448117724781  0.3715649689450 1.0
C      1  0.5173967722765  0.4059077641876  0.2239349456149 1.0
C      1  0.5302564327639  0.7685020617028  0.6110999105785 1.0
C      1  0.3723593209257  0.7076829401711  0.3705801344570 1.0
C      1  0.4475369446911  0.2152991740930  0.6766075758500 1.0
C      1  0.3052761707715  0.3452811038392  0.3338833007920 1.0
C      1  0.4455063956948  0.6078601169463  0.7715102700819 1.0
C      1  0.6237583515868  0.2395282507810  0.5512618778945 1.0
C      1  0.7830600210455  0.5361168008025  0.5283933710247 1.0
C      1  0.2025351581380  0.4684522857937  0.4671386236571 1.0
C      1  0.7366403581578  0.5891796604400  0.4600129181709 1.0
C      1  0.4924658497150  0.8102074309876  0.4656183005252 1.0
C      1  0.3734124088313  0.3449293982191  0.2649293054042 1.0
C      1  0.2630690424588  0.6542207891392  0.5987987765685 1.0
C      1  0.2178363798719  0.5712014459239  0.5925292449595 1.0
C      1  0.6099720526141  0.6356759483333  0.6715156788042 1.0
C      1  0.5796992504271  0.6404055471086  0.3542269139387 1.0
C      1  0.4476048829645  0.4833599917770  0.2287752316433 1.0
C      1  0.6039620068741  0.4400031483177  0.2375442427039 1.0
C      1  0.7111751079166  0.2645250075354  0.5116879660090 1.0
END
