TITL C-30191-5427-10 -14.463 3375.00 -2479.12707566 0 0 300 (C1) n - 1
REM
REM Run started: at 2020.07.11 08:36:07 in /home/heco/bkarasulu/work/CARBON/AIRSS/Str-Search
REM VASP from code version vasp.5.4.4.18Apr17-6-g9f103f2a35 (build Jul 02 2020 21:03:42) gamma-only
REM
REM
REM
REM
REM ./C.cell (90889e035cd0f9d0e5f9cb6dd9eb5d52)
REM AIRSS Version 0.9.1 bugfix July 2018 build 013d7b7c2542+ Fri, 06 Jul 2018 19:26:36 +0100
REM compiler GCC version 9.2.0
REM options -cpp -mtune=generic -march=x86-64 -g -O0
REM seed -840415543 -1850107811 -80863604 1575999595 11970030 -35538969 -2125082017 461230874 798135015 2076101865 -521183292 2143379294 910321328 -1240020275 -2022170659 -537222986 -1734040200 1309767686 -1491396213 -1907979660 -77130818 2118944336 723605824 -741301293 878418473 -1978837347 -290898141 1204775005 -986324663 1112379709 635359369 -1270564184 2123759116
REM
REM C.POTCAR (d86ddea03c3ceb6dc662c8ad6801f873)
REM 
CELL 1.54180   15.00000   15.00000   15.00000   90.00000   90.00000   90.00000
LATT -1
SFAC C  
C      1  0.5539632143855  0.4280171391556  0.3960321376540 1.0
C      1  0.1242047678443  0.4636959040166  0.6150022676751 1.0
C      1  0.3566868019575  0.2319450680505  0.5818647832125 1.0
C      1  0.8024658985716  0.7631610365092  0.3820220503710 1.0
C      1  0.2922620640896  0.6994349781884  0.5776985331726 1.0
C      1  0.6856755559079  0.3109290456546  0.8636439483567 1.0
C      1  0.9583650161848  0.4664945422845  0.6176295282663 1.0
C      1  0.6241820737783  0.1846644786966  0.1011505208409 1.0
C      1  0.9596798384182  0.5729226247899  0.3899662997270 1.0
C      1  0.6264854970326  0.6122943508435  0.2497625147861 1.0
C      1  0.4931332592058  0.4221488153801  0.2452085088731 1.0
C      1  0.2600896186984  0.0446739632755  0.5031670876610 1.0
C      1  0.4384067814728  0.4910078483066  0.1976561380297 1.0
C      1  0.7968716299188  0.5210889622935  0.5851517776394 1.0
C      1  0.4263774479692  0.9162728407944  0.6393624496535 1.0
C      1  0.4865080705002  0.8069575834289  0.8863623748646 1.0
C      1  0.3220092895269  0.0290203803860  0.6982199988307 1.0
C      1  0.3784315032111  0.6803955050422  0.0056121578316 1.0
C      1  0.3258029851503  0.4394219791333  0.3907894183647 1.0
C      1  0.7186052388463  0.5125528776282  0.3282796206039 1.0
C      1  0.2748223970822  0.6249260398308  0.6436431269172 1.0
C      1  0.1705399637705  0.0588169266664  0.6259064484707 1.0
C      1  0.3239876244013  0.2538755598844  0.1503427707572 1.0
C      1  0.4072301698408  0.8350175010264  0.5787660677506 1.0
C      1  0.4940675760210  0.5570002946106  0.9563648763136 1.0
C      1  0.6794771794083  0.5320523051168  0.9334631630639 1.0
C      1  0.7047484250921  0.4679511161587  0.4109015817234 1.0
C      1  0.6435174988062  0.3654413119919  0.2019306672918 1.0
C      1  0.6705582128917  0.2385906533984  0.7022474273845 1.0
C      1  0.1342252620185  0.3219266833683  0.3004257734523 1.0
C      1  0.1029628748506  0.3413807266757  0.7664175735296 1.0
C      1  0.7419520231402  0.2337735222618  0.5138553480213 1.0
C      1  0.5478914777466  0.7971589188864  0.1702811475707 1.0
C      1  0.2417815130057  0.6456152717467  0.2902284896624 1.0
C      1  0.4752806894072  0.3957293261813  0.4530260356562 1.0
C      1  0.3314222224075  0.5416692590481  0.6488532206210 1.0
C      1  0.3695783060771  0.1935892300021  0.6717733701766 1.0
C      1  0.6365398679324  0.8234788643091  0.4988160099046 1.0
C      1  0.8748493622182  0.5127071283383  0.6498431251770 1.0
C      1  0.6834322118349  0.6372189726991  0.6487361369568 1.0
C      1  0.1835292856720  0.8292570826799  0.4452373857550 1.0
C      1  0.4434081783228  0.1521453200482  0.4513300408971 1.0
C      1  0.8585149668374  0.5907565656256  0.2345837882699 1.0
C      1  0.4546334109650  0.0801988413695  0.5224971664386 1.0
C      1  0.5974268633122  0.6916889094950  0.4020099961823 1.0
C      1  0.5991437445612  0.2824396369361  0.4926568110652 1.0
C      1  0.6535137912118  0.0440071910442  0.3219803292319 1.0
C      1  0.4111292747570  0.6505777883488  0.2578758406441 1.0
C      1  0.7461164980355  0.1287023632490  0.7983933763869 1.0
C      1  0.8067045708879  0.7682070473451  0.6358461199166 1.0
C      1  0.5629159847877  0.3589528078495  0.0718887128082 1.0
C      1  0.5519746791169  0.8522106092773  0.5037692474318 1.0
C      1  0.7676625853459  0.6416165082128  0.7145566423382 1.0
C      1  0.6958098919452  0.8961824995182  0.5361680856510 1.0
C      1  0.2193854581239  0.3972723513155  0.4904371369327 1.0
C      1  0.6876657325154  0.3290491562173  0.6868197294838 1.0
C      1  0.1266290630659  0.1126093242739  0.4595104132260 1.0
C      1  0.2301334512796  0.0467149563978  0.6832058063634 1.0
C      1  0.5722240282154  0.2512343848558  0.0677269995603 1.0
C      1  0.2672413425844  0.7945464672949  0.3984070094874 1.0
C      1  0.9071733277066  0.3255260810953  0.5924622631057 1.0
C      1  0.5029316397441  0.1447611251627  0.3671204016677 1.0
C      1  0.5714078726323  0.2014526733800  0.3421027813028 1.0
C      1  0.3360271987244  0.3996613010303  0.6229350802812 1.0
C      1  0.5256365551137  0.7432009002725  0.6910448236293 1.0
C      1  0.0255684319294  0.3786907126723  0.7233492981215 1.0
C      1  0.2753209805891  0.3120103498456  0.4879865831599 1.0
C      1  0.5544088422942  0.2218105285103  0.8096070836015 1.0
C      1  0.3491921995394  0.3775358559906  0.9239150226523 1.0
C      1  0.8413305904822  0.6847478350523  0.6711327998650 1.0
C      1  0.5038688393778  0.3130039648396  0.5210515249230 1.0
C      1  0.3239835816806  0.6557078413392  0.4917959706042 1.0
C      1  0.6888074835005  0.8767125942216  0.2713589401845 1.0
C      1  0.5773035726822  0.1996742756601  0.7160635488044 1.0
C      1  0.5574390067197  0.6055633904780  0.4406394204344 1.0
C      1  0.6763838658701  0.0547321842713  0.5569054604526 1.0
C      1  0.9894745685472  0.6931929517211  0.5045626380087 1.0
C      1  0.1966351082570  0.1301041766129  0.3913554121398 1.0
C      1  0.4925782847958  0.3854842741063  0.9995229327512 1.0
C      1  0.3765230590823  0.9007003926129  0.7955380863056 1.0
C      1  0.1780559727830  0.5657965117263  0.7514434995472 1.0
C      1  0.8406591311178  0.3970206662802  0.2896411560493 1.0
C      1  0.9661812980151  0.3692476058490  0.6545675972607 1.0
C      1  0.3923711923430  0.2791542109789  0.0779559307929 1.0
C      1  0.4257555184906  0.8694107958444  0.8540614636613 1.0
C      1  0.4810955684115  0.7901374585592  0.5301920698330 1.0
C      1  0.7139024862661  0.2754185571078  0.3359975537548 1.0
C      1  0.0569785447101  0.2446223613400  0.4206834503958 1.0
C      1  0.6012919139297  0.7326019023716  0.7556129518412 1.0
C      1  0.8395058700178  0.3745306788817  0.8676844850420 1.0
C      1  0.2577274894198  0.7143596779889  0.2125121125577 1.0
C      1  0.1588623926140  0.3954144309249  0.8218374793125 1.0
C      1  0.6043740364980  0.4595958980544  0.0730722222015 1.0
C      1  0.1829859807958  0.2947247230227  0.6241764230102 1.0
C      1  0.1098641343993  0.7656022431788  0.4476409321766 1.0
C      1  0.4677550754017  0.0797434495161  0.3014365913338 1.0
C      1  0.8249178295371  0.4677837130496  0.7310853424914 1.0
C      1  0.6604819680360  0.7296914512409  0.4860635867811 1.0
C      1  0.4397035977972  0.9846713087956  0.3098344386687 1.0
C      1  0.4241430689679  0.2409266577874  0.5015975643083 1.0
C      1  0.7825715709410  0.8641887407327  0.4995726406690 1.0
C      1  0.9047877041002  0.3704779961466  0.5110979179280 1.0
C      1  0.4026359381298  0.5673516200772  0.7176429477796 1.0
C      1  0.3195220075988  0.7908578445254  0.2155095598395 1.0
C      1  0.6665663644346  0.6626632645913  0.3279326741000 1.0
C      1  0.4875398181495  0.2743867401488  0.8579908116087 1.0
C      1  0.6256255381347  0.6777833264395  0.5703342219083 1.0
C      1  0.6412192870991  0.2222754851715  0.8600887877630 1.0
C      1  0.7980760427921  0.4605425888849  0.4328314193324 1.0
C      1  0.4786176005262  0.2439626466285  0.1028350415623 1.0
C      1  0.6603500481112  0.3586730296588  0.4981819392808 1.0
C      1  0.6594077997016  0.4616870578099  0.1738973036430 1.0
C      1  0.2205221254752  0.1732110901239  0.3092093608764 1.0
C      1  0.4573156085636  0.4831556687645  0.5081552862700 1.0
C      1  0.8206073573271  0.5394225736430  0.4911395562168 1.0
C      1  0.6231172636126  0.3728940215872  0.8927205067250 1.0
C      1  0.3645795840441  0.4792754561053  0.5602004120306 1.0
C      1  0.8233962000603  0.3659069527381  0.4533058946049 1.0
C      1  0.8660841541214  0.4521129708641  0.8241961867397 1.0
C      1  0.4686357860777  0.0956526603318  0.6209285970045 1.0
C      1  0.1976379255939  0.3702418193051  0.1643802354278 1.0
C      1  0.5277562191726  0.9357629671833  0.6324645267148 1.0
C      1  0.6279712810010  0.1459965739344  0.1850273165660 1.0
C      1  0.1811117868847  0.5876708593538  0.5175115985526 1.0
C      1  0.5693459266894  0.5997676548118  0.5343247539535 1.0
C      1  0.9448263143867  0.6241983502412  0.5483404463389 1.0
C      1  0.3840960174818  0.0954026325006  0.6756280245021 1.0
C      1  0.3900211682851  0.2637678382464  0.8309497839796 1.0
C      1  0.2009761992967  0.8421507695774  0.3445770625063 1.0
C      1  0.5166825539975  0.7515576292239  0.3768613387099 1.0
C      1  0.4333574982614  0.6893240821590  0.1585044942039 1.0
C      1  0.4426382374386  0.7373392194203  0.4481459287641 1.0
C      1  0.4873374789093  0.5684445836739  0.6598112752051 1.0
C      1  0.6384457737713  0.5120831199918  0.2632818307738 1.0
C      1  0.1978184786882  0.6531356270561  0.5874394278207 1.0
C      1  0.5274856701955  0.7383523313842  0.8266231343745 1.0
C      1  0.4337819289767  0.3548225737635  0.2983795043756 1.0
C      1  0.9635555292003  0.4582271801315  0.5150481222822 1.0
C      1  0.9815253455887  0.6775300079254  0.3978351960548 1.0
C      1  0.2614069852526  0.5736600778636  0.4758639165464 1.0
C      1  0.5462438024579  0.3587159829757  0.1767596988624 1.0
C      1  0.6104955261659  0.3900540707496  0.6694143634418 1.0
C      1  0.5341351942397  0.5134972899508  0.5799415043738 1.0
C      1  0.3218085031903  0.1561243158898  0.2976012834909 1.0
C      1  0.4910551488509  0.5319966645075  0.8644704458459 1.0
C      1  0.2141540014133  0.5879084468519  0.1152472647481 1.0
C      1  0.7315539749515  0.5218190171226  0.1275269275139 1.0
C      1  0.1034088605811  0.5487293574573  0.3141235255687 1.0
C      1  0.3831875414600  0.0729497204234  0.2716978985581 1.0
C      1  0.2905992327301  0.8837542519636  0.3469987617593 1.0
C      1  0.4626342340589  0.7174070269194  0.7521534378643 1.0
C      1  0.7198350841263  0.5981445203504  0.3784416138736 1.0
C      1  0.4553122989742  0.9853772782569  0.4935369164004 1.0
C      1  0.2801518301552  0.4607160261284  0.6834265881064 1.0
C      1  0.1213006493270  0.7813319428457  0.6120908254873 1.0
C      1  0.3252014128707  0.7902481459608  0.6108184933554 1.0
C      1  0.5369342420127  0.7067044348086  0.1463640654252 1.0
C      1  0.6334454730924  0.4325170240569  0.4490678258251 1.0
C      1  0.4618855970400  0.6515246782352  0.9658821229655 1.0
C      1  0.5009307547803  0.7209883991520  0.9176351716348 1.0
C      1  0.0828107923999  0.7026061302112  0.3744741597212 1.0
C      1  0.3927701612716  0.3649379193444  0.3888394251696 1.0
C      1  0.7124632727443  0.7103968063035  0.9071842538203 1.0
C      1  0.4356299696416  0.2744843556205  0.2567578639780 1.0
C      1  0.0402865102736  0.4531784392195  0.6631809351845 1.0
C      1  0.6867977416135  0.1451658869367  0.8769378956382 1.0
C      1  0.2922477692976  0.4767965906167  0.4798636215169 1.0
C      1  0.4638620295685  0.8438197598336  0.1766069294247 1.0
C      1  0.8118451923864  0.3233564579820  0.3523275572734 1.0
C      1  0.7757291539753  0.3308386562265  0.8196662529332 1.0
C      1  0.1595432962823  0.4880616318007  0.7902147783870 1.0
C      1  0.2768628209289  0.8519077522139  0.6620219157183 1.0
C      1  0.0972505165184  0.3199791975526  0.3924936127506 1.0
C      1  0.3386355220928  0.7260334687944  0.4144790909945 1.0
C      1  0.5235465270661  0.8189658114047  0.3142107042742 1.0
C      1  0.8247266041222  0.1291240336140  0.5897750709753 1.0
C      1  0.3600405459244  0.2209772483485  0.2338203316048 1.0
C      1  0.1863400709566  0.4880711594811  0.6893770820557 1.0
C      1  0.6169367235626  0.1327687246173  0.5705548869390 1.0
C      1  0.5914622956815  0.2210886623072  0.2455000783914 1.0
C      1  0.2797754959438  0.4748865976610  0.3228318421706 1.0
C      1  0.3446122011013  0.6656566439999  0.3338591067598 1.0
C      1  0.7128093115605  0.6058717133818  0.7894656058769 1.0
C      1  0.3484542768341  0.1682053973102  0.4007996199052 1.0
C      1  0.2915872142919  0.7235522872225  0.8711755046959 1.0
C      1  0.7502395736087  0.7251136648183  0.2996885206274 1.0
C      1  0.4151849784783  0.5902585123503  0.3428680284623 1.0
C      1  0.8074404759813  0.7810177703792  0.5405655647360 1.0
C      1  0.9030561444446  0.5360479287923  0.3069805083797 1.0
C      1  0.8218695790605  0.5266682900661  0.1728399265820 1.0
C      1  0.8242178375393  0.1945577018221  0.6644771184101 1.0
C      1  0.6453471736907  0.9788705046407  0.5006598108431 1.0
C      1  0.5459772267023  0.9466797454002  0.5268992494562 1.0
C      1  0.6364964980396  0.4706630840255  0.8772533696317 1.0
C      1  0.1603602347489  0.5203938461009  0.1570849376792 1.0
C      1  0.2115714881274  0.8848253394840  0.5222612380871 1.0
C      1  0.6769871595429  0.5186793956867  0.0322983388188 1.0
C      1  0.8952746016351  0.6160105227222  0.6320090295673 1.0
C      1  0.8160903415645  0.4806894391025  0.3363924051271 1.0
C      1  0.5250271307813  0.3464724259852  0.6213638116875 1.0
C      1  0.7517070440238  0.5368197303472  0.7281307213435 1.0
C      1  0.1519873795906  0.3741535200602  0.5668218944456 1.0
C      1  0.4242903624862  0.6436734776010  0.4948191196743 1.0
C      1  0.4151099724904  0.9663845400975  0.4039070321933 1.0
C      1  0.3133997006014  0.3043115254549  0.8668199362993 1.0
C      1  0.6110293570737  0.6400991578881  0.1586076277836 1.0
C      1  0.7836875970666  0.3514190005124  0.7142598697407 1.0
C      1  0.7484113235414  0.1827650308932  0.7250387167564 1.0
C      1  0.3137287605048  0.4099515690154  0.7657450842221 1.0
C      1  0.7525772464629  0.0819199822191  0.8790652117827 1.0
C      1  0.3977102351451  0.7823008383661  0.1613723464909 1.0
C      1  0.9256080042926  0.4451812696767  0.2643415431741 1.0
C      1  0.2959506063578  0.6885811682618  0.7876263555755 1.0
C      1  0.4820315756571  0.6387878366125  0.5813454850422 1.0
C      1  0.7596383568724  0.0667406308557  0.5859475911268 1.0
C      1  0.1758019606373  0.2995671150829  0.7198749830350 1.0
C      1  0.7187369293734  0.9114819656161  0.3571750448884 1.0
C      1  0.3298876306831  0.9375636230595  0.4144550793560 1.0
C      1  0.7139745762290  0.7717870991998  0.8506356380147 1.0
C      1  0.5596887588836  0.4593287932794  0.3094655241228 1.0
C      1  0.4429270647773  0.8877342694860  0.2663991755353 1.0
C      1  0.3225701611930  0.3225127474689  0.5731350199295 1.0
C      1  0.8631632108073  0.4390240805896  0.1963587363135 1.0
C      1  0.6513382684436  0.2091744682147  0.5334528537677 1.0
C      1  0.1251621199570  0.4913602861063  0.2415321703475 1.0
C      1  0.2640736952834  0.6643141149248  0.1331184047728 1.0
C      1  0.7021034086595  0.7919870368786  0.2481620831642 1.0
C      1  0.2709143361092  0.5163113449247  0.0780142741821 1.0
C      1  0.9205013325242  0.5488141879754  0.4832936246598 1.0
C      1  0.3872228439877  0.9318313774777  0.5496754299762 1.0
C      1  0.8766692275274  0.5320957802452  0.8720891750757 1.0
C      1  0.2528522839381  0.2520886732022  0.5653447175899 1.0
C      1  0.3585916903392  0.6472573339054  0.0951219539055 1.0
C      1  0.5631573569451  0.4912890070458  0.8050929628857 1.0
C      1  0.2358969728301  0.2835648538402  0.1798757739846 1.0
C      1  0.8400098053609  0.6773416333785  0.2768749705552 1.0
C      1  0.8264731973292  0.5908640380381  0.9011755998969 1.0
C      1  0.7811771403434  0.8587310196785  0.4056567581748 1.0
C      1  0.3569059437025  0.5463829596723  0.0806452918814 1.0
C      1  0.6175034788131  0.4879744905823  0.6416680232943 1.0
C      1  0.8176269893169  0.1734383494389  0.5014483486935 1.0
C      1  0.7712458242343  0.6171890631501  0.4510500540304 1.0
C      1  0.3536357918931  0.2751718824177  0.4327951110471 1.0
C      1  0.2772001466018  0.1085587332195  0.4345224964547 1.0
C      1  0.2808259132616  0.5493350418488  0.2746931061949 1.0
C      1  0.1900340179270  0.2491941455042  0.2624829771330 1.0
C      1  0.3782057094246  0.2579703296269  0.7337070864325 1.0
C      1  0.6542972515574  0.0760627477126  0.2432494801810 1.0
C      1  0.7474971973201  0.3247734458439  0.5009226414931 1.0
C      1  0.4386674673934  0.5018994547249  0.1062151359240 1.0
C      1  0.6687654007093  0.9848487612512  0.3942195758985 1.0
C      1  0.8428157588341  0.2842643986387  0.6557614342650 1.0
C      1  0.4756106587027  0.3746372206807  0.6973649599051 1.0
C      1  0.1689233295823  0.0644194355214  0.5304628899757 1.0
C      1  0.3834747180947  0.6649577886987  0.7524091122983 1.0
C      1  0.6304564091509  0.6330062206965  0.7373355127930 1.0
C      1  0.3476800680458  0.9274442090325  0.7051482818028 1.0
C      1  0.3971429282866  0.3503491739799  0.0028655339888 1.0
C      1  0.5472582176060  0.1431905244399  0.6420260740912 1.0
C      1  0.1394279274721  0.3943605653625  0.2407591722764 1.0
C      1  0.6259337550610  0.2556218661280  0.3949814891632 1.0
C      1  0.5079378324211  0.4860496820032  0.0325657545143 1.0
C      1  0.8305037887317  0.1739969818542  0.4136722313259 1.0
C      1  0.3465285651967  0.8566756058109  0.2757167219560 1.0
C      1  0.6055249983305  0.8242175443819  0.2467523520972 1.0
C      1  0.8021263491068  0.2271112826454  0.3479437271517 1.0
C      1  0.6639443405703  0.2933699183824  0.2523289287539 1.0
C      1  0.6833896258857  0.8824145029914  0.6362026805547 1.0
C      1  0.7351613988367  0.8201494510202  0.6824974400494 1.0
C      1  0.7087921235358  0.5372481440255  0.6350877833153 1.0
C      1  0.3554896076081  0.4511393908306  0.8477856113082 1.0
C      1  0.4076683905112  0.5219684419132  0.8160626323544 1.0
C      1  0.7690882233021  0.7152936956180  0.4706017678413 1.0
C      1  0.1216760682161  0.3869676352220  0.4638550000393 1.0
C      1  0.2935722326175  0.9482546332633  0.5074319368011 1.0
C      1  0.3809452661045  0.3592673361280  0.7078332508344 1.0
C      1  0.1383934599067  0.6416571967079  0.3262242839765 1.0
C      1  0.5101628268997  0.2654820157581  0.1968388787883 1.0
C      1  0.6690316881469  0.5945554805035  0.1005221251176 1.0
C      1  0.5300427069014  0.3445858429698  0.9136239577713 1.0
C      1  0.2440169873012  0.3415432534139  0.7978413652500 1.0
C      1  0.3827941185562  0.5531601319481  0.2559044986113 1.0
C      1  0.0627141193215  0.7553874392156  0.5280353693685 1.0
C      1  0.0615785971673  0.4700134902050  0.4693627924453 1.0
C      1  0.4619061622791  0.5729339432610  0.4336583962154 1.0
C      1  0.5725746720205  0.5531051591896  0.7192196069766 1.0
C      1  0.5300540622544  0.7238562948422  0.5964234501016 1.0
C      1  0.1504067692556  0.7018851859030  0.6585890716515 1.0
C      1  0.0442875872439  0.5208400111875  0.3851158530465 1.0
C      1  0.7295047790005  0.6126643389965  0.8907793574009 1.0
C      1  0.3213240392456  0.7232973439835  0.9493680467782 1.0
C      1  0.5456258897008  0.4081630801847  0.7483522024407 1.0
C      1  0.2224245944996  0.6556552353399  0.7273222023607 1.0
C      1  0.1116854600944  0.5258157292394  0.5357857717335 1.0
C      1  0.6821638294354  0.7948323957890  0.7651724551328 1.0
C      1  0.2095793314801  0.4480605516516  0.1140843522227 1.0
C      1  0.6007917161848  0.9047963762011  0.6796074499368 1.0
C      1  0.8892253357014  0.7161009229284  0.3475810506339 1.0
C      1  0.1864379791169  0.8541069007539  0.6091205803351 1.0
C      1  0.0511904484693  0.1669899085896  0.4536870430121 1.0
END
