TITL C-30191-5427-19 -12.476 3375.00 -2234.73500072 0 0 270 (C1) n - 1
REM
REM Run started: at 2020.07.11 21:03:43 in /home/heco/bkarasulu/work/CARBON/AIRSS/Str-Search
REM VASP from code version vasp.5.4.4.18Apr17-6-g9f103f2a35 (build Jul 02 2020 21:03:42) gamma-only
REM
REM
REM
REM
REM ./C.cell (90889e035cd0f9d0e5f9cb6dd9eb5d52)
REM AIRSS Version 0.9.1 bugfix July 2018 build 013d7b7c2542+ Fri, 06 Jul 2018 19:26:36 +0100
REM compiler GCC version 9.2.0
REM options -cpp -mtune=generic -march=x86-64 -g -O0
REM seed 1422257757 747131602 1090546858 573036273 779011814 -1047938036 463623894 1752392494 -1419621600 663165441 -307323355 383621326 2017575159 -1245212054 521931706 683008730 1095753618 -362016362 172224043 -1234310076 640831045 509399219 -441599119 -779290781 -1912960424 -585201624 643761668 564792200 1814665968 456878303 489302621 835311132 -213670113
REM
REM C.POTCAR (d86ddea03c3ceb6dc662c8ad6801f873)
REM 
CELL 1.54180   15.00000   15.00000   15.00000   90.00000   90.00000   90.00000
LATT -1
SFAC C  
C      1  0.3240511512455  0.3759600841523  0.6591771280591 1.0
C      1  0.1939520107145  0.5807013861405  0.7669944100107 1.0
C      1  0.3771150076724  0.5958300467717  0.3554270770193 1.0
C      1  0.2097284152719  0.7587720192749  0.5862516933484 1.0
C      1  0.5013182376593  0.9519154241667  0.3786344094123 1.0
C      1  0.6411306668183  0.2207420176882  0.2664648508869 1.0
C      1  0.6875731338411  0.3923839256735  0.3318841421185 1.0
C      1  0.2338731218586  0.4798883766590  0.4756744224206 1.0
C      1  0.5906779288579  0.2041392125717  0.7337028048999 1.0
C      1  0.5586056679506  0.7068720330748  0.2409785071918 1.0
C      1  0.6214871042430  0.5311145361284  0.3221441303560 1.0
C      1  0.8333103850403  0.2324663923782  0.5396104226163 1.0
C      1  0.6341490395355  0.2800867558332  0.5443601402425 1.0
C      1  0.6167792904901  0.2802922328635  0.1945777916927 1.0
C      1  0.7346067639944  0.2082762504828  0.2965868181687 1.0
C      1  0.3886447160643  0.8258985749304  0.2072197935755 1.0
C      1  0.2521393892713  0.2560810157744  0.7699340399137 1.0
C      1  0.6221700291267  0.5412080506144  0.6014982920743 1.0
C      1  0.4542104412983  0.7529359914166  0.9882439755051 1.0
C      1  0.5314540186157  0.3096066055463  0.4154908851619 1.0
C      1  0.3604091400682  0.5913475639329  0.4508568876019 1.0
C      1  0.7860875291597  0.5325790639354  0.6047101976342 1.0
C      1  0.2279840491650  0.5892422028810  0.6073885180519 1.0
C      1  0.3554041703632  0.2533647058288  0.1575303608813 1.0
C      1  0.7721491218548  0.9352005536578  0.5795903853707 1.0
C      1  0.2363169959917  0.4341677720133  0.3324326906530 1.0
C      1  0.5242238335161  0.4051555491125  0.5260391156965 1.0
C      1  0.3408402889983  0.3236720033660  0.2834131776483 1.0
C      1  0.6778379191026  0.4018340611524  0.4319237276411 1.0
C      1  0.2418298959864  0.1577114525006  0.5231380907258 1.0
C      1  0.8517993001209  0.2658304918241  0.3599876837441 1.0
C      1  0.5648037172320  0.7256871003776  0.8575401116715 1.0
C      1  0.5359732669820  0.6655170680617  0.3220056255556 1.0
C      1  0.6024893815043  0.7618890062860  0.7795073825101 1.0
C      1  0.8152421181792  0.5268696160984  0.3210902721237 1.0
C      1  0.7524254677020  0.4835209557775  0.1650470652857 1.0
C      1  0.5131504378724  0.6696137405913  0.5084690595118 1.0
C      1  0.1138807128059  0.3915411309093  0.6715415635219 1.0
C      1  0.4226549041022  0.5938790509437  0.9245285562743 1.0
C      1  0.2770309657984  0.3127638385479  0.2030425551719 1.0
C      1  0.4587943843250  0.9455803354709  0.7215190157604 1.0
C      1  0.3798604125619  0.5124676276233  0.5968012211215 1.0
C      1  0.7946113964739  0.2808578943940  0.2850155999332 1.0
C      1  0.3771678926208  0.2928812687160  0.4675742910152 1.0
C      1  0.6256731103605  0.1215567821516  0.4549556873354 1.0
C      1  0.7623511032818  0.7670491023866  0.2756719507838 1.0
C      1  0.5836932658406  0.1494680083460  0.6500244831762 1.0
C      1  0.5475264652995  0.2741930953436  0.6922549692257 1.0
C      1  0.4732956565669  0.8681240831400  0.1991287896509 1.0
C      1  0.6634923222026  0.3423205762216  0.1397553125806 1.0
C      1  0.2751682998534  0.6363010848107  0.7807055037172 1.0
C      1  0.0859478761448  0.5026053826090  0.5224574398602 1.0
C      1  0.8760092892276  0.3340426540610  0.4176350665986 1.0
C      1  0.5985390180803  0.3514039901725  0.4764756810617 1.0
C      1  0.5316512208745  0.1675786435114  0.8779615885216 1.0
C      1  0.7036705814307  0.7958567279471  0.2011367287250 1.0
C      1  0.4286657602485  0.8223806510369  0.8290248636762 1.0
C      1  0.6589044021945  0.8794433950699  0.3289548559365 1.0
C      1  0.3130407244315  0.8823573250889  0.5545522844015 1.0
C      1  0.7170048676982  0.6451095773999  0.3999707807858 1.0
C      1  0.6902820178998  0.7419176915566  0.7479007208070 1.0
C      1  0.8182838186950  0.6459116637744  0.7562045388096 1.0
C      1  0.8765329650642  0.3094445344073  0.5118820964414 1.0
C      1  0.2136493213835  0.4879814410732  0.7884979827590 1.0
C      1  0.8898343947561  0.6720248080242  0.3143407353528 1.0
C      1  0.8411266665229  0.6681435354632  0.6709812879165 1.0
C      1  0.3862106142044  0.1380131356540  0.7848246659731 1.0
C      1  0.4350649245608  0.3082147507433  0.1437027493436 1.0
C      1  0.4383792160925  0.0685478533794  0.4553077333044 1.0
C      1  0.4192741701957  0.1509638236393  0.6977452793699 1.0
C      1  0.7335792054754  0.3921910611139  0.1787931973902 1.0
C      1  0.5394402920612  0.5713366887043  0.4614214273412 1.0
C      1  0.7785690428823  0.1537648099366  0.7841939858856 1.0
C      1  0.1585589579848  0.4046169473482  0.7618433692081 1.0
C      1  0.5260830086523  0.0055481767287  0.6866937163282 1.0
C      1  0.3781447468489  0.2267401533067  0.8488951118888 1.0
C      1  0.4196001428642  0.3847124241680  0.0846955462375 1.0
C      1  0.5076101321819  0.7718000070400  0.6402919930736 1.0
C      1  0.6354964682226  0.0543811753941  0.5233779990718 1.0
C      1  0.3011474665108  0.4675908599910  0.8407398077346 1.0
C      1  0.4802034793540  0.6729936495525  0.0348380215012 1.0
C      1  0.6550073825648  0.4636289777316  0.8889833974463 1.0
C      1  0.5499027918035  0.3675182521931  0.7265898715313 1.0
C      1  0.2331640339548  0.2315142013566  0.2348303070728 1.0
C      1  0.3404162455848  0.5894166269406  0.7306748158465 1.0
C      1  0.8010713545609  0.6275477111468  0.1912301476773 1.0
C      1  0.5264050991411  0.4069794629710  0.2603495724883 1.0
C      1  0.2762148750123  0.8277976329989  0.6286653794265 1.0
C      1  0.7959566140398  0.7339248252883  0.6174575301853 1.0
C      1  0.9850709350619  0.4666632706114  0.3806039403387 1.0
C      1  0.7239431246006  0.6353042423377  0.1341137287219 1.0
C      1  0.2822971600294  0.7411106023658  0.2882179395412 1.0
C      1  0.2855848600199  0.4000752198211  0.4935928577164 1.0
C      1  0.4992312833285  0.5426498882083  0.7185709673503 1.0
C      1  0.6653172452321  0.8328609089886  0.6121569598254 1.0
C      1  0.9060756151480  0.3668598337517  0.5868142274800 1.0
C      1  0.4204000815899  0.8968334260712  0.5341652102692 1.0
C      1  0.6078521102319  0.8842825001629  0.4791324790813 1.0
C      1  0.5821248903987  0.3949542978851  0.1067551041347 1.0
C      1  0.1340444944084  0.7089509134360  0.6375976840298 1.0
C      1  0.6760868691437  0.2021101296228  0.4906019519232 1.0
C      1  0.6804864228618  0.6126358766200  0.8419204608325 1.0
C      1  0.6062088599036  0.7097709774609  0.5267949583470 1.0
C      1  0.3654230747574  0.5485059650767  0.0956088394004 1.0
C      1  0.0731716529702  0.4716529439910  0.3258033509516 1.0
C      1  0.7121343163739  0.5504099716613  0.3655743840404 1.0
C      1  0.3298965561906  0.1271747199529  0.2898203951700 1.0
C      1  0.2764694375104  0.2968182536710  0.4734409199272 1.0
C      1  0.1045859909866  0.3448289548473  0.4314726340083 1.0
C      1  0.1553029721164  0.3978342128694  0.2851946285346 1.0
C      1  0.5738943825328  0.1134671994908  0.3780068023689 1.0
C      1  0.4022162014655  0.5302434198380  0.5107718656354 1.0
C      1  0.9443222739976  0.5567978795688  0.4232301580309 1.0
C      1  0.7888253388244  0.1945912352135  0.3839447002117 1.0
C      1  0.6047928732313  0.4974013580082  0.1130434246611 1.0
C      1  0.8866445972021  0.5919228977937  0.3522744345660 1.0
C      1  0.8668008960925  0.5782053884621  0.6386181778035 1.0
C      1  0.7974052282909  0.8905929070032  0.5126909726739 1.0
C      1  0.3952871589639  0.5172466251914  0.8625510945624 1.0
C      1  0.3859657929875  0.3145656997816  0.7969052171374 1.0
C      1  0.3599440406311  0.2175361438813  0.6454546697125 1.0
C      1  0.4798258917161  0.4402096658732  0.7111032182635 1.0
C      1  0.5335074826516  0.5747903854941  0.9175380886468 1.0
C      1  0.9163919554486  0.4562847766867  0.5612098656706 1.0
C      1  0.5600864542424  0.2315247867734  0.5976177220633 1.0
C      1  0.5831272400048  0.2407552584052  0.8989992779520 1.0
C      1  0.3261613184420  0.2929834171720  0.7134348938614 1.0
C      1  0.4440528299970  0.4428017097520  0.3954078044561 1.0
C      1  0.6910940297004  0.5412080074986  0.1176308232653 1.0
C      1  0.2265453599974  0.5087458986744  0.3906348538543 1.0
C      1  0.6706957251115  0.6452262817173  0.4909467793952 1.0
C      1  0.8824886521274  0.2854685165873  0.7614674512360 1.0
C      1  0.6899686435305  0.5183886193834  0.8197841289385 1.0
C      1  0.7686408057401  0.1953205396717  0.4765775809285 1.0
C      1  0.5402047572360  0.8082933876064  0.7230833706820 1.0
C      1  0.8936014978599  0.3142312142440  0.6665743068202 1.0
C      1  0.1387014390706  0.7965308912532  0.4284972827960 1.0
C      1  0.3927606855770  0.6210814936358  0.0246295046449 1.0
C      1  0.4270442371172  0.2872376862796  0.3009012285174 1.0
C      1  0.7493870885509  0.3630603559272  0.2708899484996 1.0
C      1  0.8072513588713  0.5368463683849  0.2220681368537 1.0
C      1  0.6357320217310  0.9588601657008  0.5247435925754 1.0
C      1  0.4254525937830  0.1162775936796  0.3091342543836 1.0
C      1  0.7069771400578  0.1344782664345  0.8223417790564 1.0
C      1  0.6839209785788  0.3330831714457  0.6171804429469 1.0
C      1  0.2972478691748  0.1837062535108  0.8206430669039 1.0
C      1  0.3504132709583  0.8658272920520  0.3839383444318 1.0
C      1  0.4680691846044  0.2496783136697  0.4499632532204 1.0
C      1  0.2083321531657  0.2456655912021  0.5047906653181 1.0
C      1  0.1111240679248  0.3439636521293  0.8408453863579 1.0
C      1  0.6750943918515  0.9300799920207  0.6138567224764 1.0
C      1  0.1948185901079  0.2239780162896  0.3193316234713 1.0
C      1  0.6279751651653  0.8060824316510  0.5315319808475 1.0
C      1  0.4646742452486  0.8136090470032  0.5648330131046 1.0
C      1  0.1307388522167  0.7742736516094  0.3464212481325 1.0
C      1  0.6745306970513  0.3733206737444  0.8957106826898 1.0
C      1  0.3645551093343  0.3903300612925  0.4293618487912 1.0
C      1  0.3633534868939  0.9627251390374  0.5914322461506 1.0
C      1  0.6506706435860  0.3883937884913  0.7118171286754 1.0
C      1  0.5362188382185  0.5754623518161  0.3575246069160 1.0
C      1  0.1279444066496  0.3023393877347  0.5227241854556 1.0
C      1  0.0688559615224  0.4425954510893  0.4312837605664 1.0
C      1  0.6306194674037  0.5561177037938  0.5036053613071 1.0
C      1  0.5843676447453  0.7010355185080  0.1534342834127 1.0
C      1  0.5871791801389  0.9049724189246  0.3857660057718 1.0
C      1  0.3159798735234  0.5605881124505  0.6468142023561 1.0
C      1  0.3761112388579  0.7243583948559  0.0510491148330 1.0
C      1  0.1287266495934  0.4516497368139  0.5946355966216 1.0
C      1  0.4406583414028  0.4247057593766  0.8775399157608 1.0
C      1  0.2958687269194  0.8298601671321  0.4684555304469 1.0
C      1  0.7357784741848  0.6713182846592  0.7926534487107 1.0
C      1  0.3129215260202  0.6889252547178  0.2065266136691 1.0
C      1  0.7511956863897  0.2952841951217  0.6668033324954 1.0
C      1  0.4868115462783  0.3608333961034  0.3431295984436 1.0
C      1  0.2515327718435  0.6697348409688  0.5557231493513 1.0
C      1  0.6138867190266  0.4459908952350  0.2932944803515 1.0
C      1  0.4559501446360  0.1033648539715  0.5520179961501 1.0
C      1  0.9720107371207  0.6219168191242  0.4910586314628 1.0
C      1  0.2614974561069  0.4548843904381  0.1360464679037 1.0
C      1  0.1842940591001  0.5199741133522  0.5497461693249 1.0
C      1  0.3480443670388  0.3884674584815  0.8552699569738 1.0
C      1  0.4851476338961  0.4856718914425  0.4788979692283 1.0
C      1  0.3580528635682  0.0666279929213  0.5656598941351 1.0
C      1  0.5434171057264  0.6799181884204  0.6078145841107 1.0
C      1  0.3240115113233  0.7094510225378  0.8199354076669 1.0
C      1  0.4141777386007  0.2732241901992  0.5703351678571 1.0
C      1  0.4888632082522  0.0553893720401  0.3707686819341 1.0
C      1  0.2725990000354  0.5505408053578  0.1393379258257 1.0
C      1  0.1729438212642  0.6285085181675  0.2631785075863 1.0
C      1  0.7893304697183  0.5369835086180  0.5041835402815 1.0
C      1  0.8306433842188  0.2389904120234  0.6414416672562 1.0
C      1  0.2545859706679  0.1448825610327  0.3541421870770 1.0
C      1  0.1857436253776  0.3138210208919  0.7986655819187 1.0
C      1  0.3001437388548  0.1445243741202  0.5946213898702 1.0
C      1  0.5555945663243  0.8791238976405  0.2009768516484 1.0
C      1  0.4431846451250  0.5237901599292  0.3302028365780 1.0
C      1  0.8408473761373  0.3349762405157  0.8315828492865 1.0
C      1  0.1990335346579  0.8017759435706  0.4922728453511 1.0
C      1  0.4849933510788  0.8707561053705  0.7724027020010 1.0
C      1  0.5323845075363  0.3368745145042  0.1822952373056 1.0
C      1  0.8784106943692  0.4908388954668  0.4736928312705 1.0
C      1  0.1800789047552  0.5821032761605  0.3542847185214 1.0
C      1  0.5190891979051  0.4056514810887  0.9449111380576 1.0
C      1  0.7218486674821  0.7726799473996  0.6630888543532 1.0
C      1  0.4437360689958  0.1563371923149  0.8609396612569 1.0
C      1  0.2441262772441  0.6178819430578  0.1920792710121 1.0
C      1  0.4256352676658  0.5788729967706  0.7782766312484 1.0
C      1  0.3181712870073  0.8517201899764  0.7099772222995 1.0
C      1  0.6189930595725  0.9978672863487  0.6656143736238 1.0
C      1  0.3398630192990  0.8242647538753  0.2928185523395 1.0
C      1  0.5383113622692  0.6416632904511  0.0957804000646 1.0
C      1  0.3132061388669  0.1816029204176  0.2127907691804 1.0
C      1  0.0784395507328  0.6394932047949  0.6239501649763 1.0
C      1  0.4451261795962  0.5273596010317  0.1578174182274 1.0
C      1  0.1826565701365  0.7232963715718  0.2953088077033 1.0
C      1  0.5496235546807  0.5864438613920  0.6523162719002 1.0
C      1  0.4230628386894  0.9086493783972  0.4265831467808 1.0
C      1  0.9431938840042  0.5382618457612  0.6064446640818 1.0
C      1  0.8446779511287  0.1980047057794  0.7365984390000 1.0
C      1  0.7198227060434  0.3281498330890  0.7504307762535 1.0
C      1  0.1022185083186  0.2990702465907  0.6292788400728 1.0
C      1  0.6036812568420  0.7253549311640  0.3211540734064 1.0
C      1  0.8291896862986  0.6982639824101  0.2528843547268 1.0
C      1  0.4686211429868  0.7480283891336  0.8837658756763 1.0
C      1  0.6383370579770  0.0784995957309  0.6146433185514 1.0
C      1  0.5292354936571  0.5491835277384  0.1183373985015 1.0
C      1  0.7391778984282  0.8149088052599  0.3649126977814 1.0
C      1  0.1061029800600  0.5645913150482  0.3083389694752 1.0
C      1  0.7497169389579  0.3346191886584  0.8416807522737 1.0
C      1  0.6772392604620  0.7200036059342  0.1448507224558 1.0
C      1  0.3736793926826  0.9313062240314  0.6867501636877 1.0
C      1  0.4574458262551  0.3645045404416  0.5768601770831 1.0
C      1  0.1419612446022  0.3108121375751  0.3489342350167 1.0
C      1  0.3471759706597  0.0648739376470  0.4669688166617 1.0
C      1  0.5040588420730  0.3923655278327  0.0402724428906 1.0
C      1  0.3596998803163  0.7505905121687  0.1428973480830 1.0
C      1  0.4578427160055  0.4843976697845  0.2411455284883 1.0
C      1  0.6441646396849  0.8634654393160  0.2332700542652 1.0
C      1  0.4104119317653  0.4255748985325  0.6379501458211 1.0
C      1  0.5701459571305  0.4901628258765  0.9255443116134 1.0
C      1  0.0262821424268  0.5798044089207  0.5609054260066 1.0
C      1  0.2186332192884  0.3931342688565  0.1923726861733 1.0
C      1  0.3456186745199  0.6629074759328  0.2990407584250 1.0
C      1  0.3460605361965  0.4457438415034  0.0837155485285 1.0
C      1  0.3406154699414  0.8011961732828  0.7943929453668 1.0
C      1  0.4942155768764  0.0956319239179  0.6521772968348 1.0
C      1  0.8886536266450  0.4293373823636  0.3931804850621 1.0
C      1  0.1587399434434  0.6178465802055  0.6779088705566 1.0
C      1  0.5919929211959  0.3297117788176  0.9176508508711 1.0
C      1  0.2671068197823  0.1095764245663  0.4405400580916 1.0
C      1  0.7702646341862  0.6437840139848  0.4837160981228 1.0
C      1  0.4712028165585  0.1973719207913  0.2945746461028 1.0
C      1  0.7908949107677  0.8126462890668  0.4603307445682 1.0
C      1  0.7024715216985  0.5251656777169  0.6475431731832 1.0
C      1  0.6187197965526  0.1770071232245  0.8256541300872 1.0
C      1  0.4115274597484  0.6667097991936  0.8541713584702 1.0
C      1  0.1735289308581  0.3648933781035  0.5853310246255 1.0
C      1  0.7022457901792  0.4980481316058  0.4556475268956 1.0
C      1  0.4807263746749  0.2062843292178  0.5388519727176 1.0
C      1  0.2693037540724  0.3780843226127  0.5890851357354 1.0
C      1  0.6966202826391  0.7251236728402  0.3476343068735 1.0
C      1  0.4687895422456  0.3811056320512  0.7906343283810 1.0
C      1  0.5675288193017  0.1828984273315  0.3124124633556 1.0
C      1  0.3101208019632  0.3804183454466  0.3470259230681 1.0
C      1  0.3097784155043  0.6642700597650  0.4864621159550 1.0
C      1  0.4441711165572  0.7429259198088  0.5006617522836 1.0
C      1  0.5975015412420  0.6399375196547  0.8811975517534 1.0
C      1  0.6875963979689  0.4828968960605  0.7337035163080 1.0
C      1  0.3553594699454  0.7463715777744  0.4750495694555 1.0
C      1  0.8005851319500  0.7337532326941  0.5159784131586 1.0
END
