TITL C-30191-5427-9 -13.92 3375.00 -2530.15180587 0 0 307 (C1) n - 1
REM
REM Run started: at 2020.07.11 05:49:50 in /home/heco/bkarasulu/work/CARBON/AIRSS/Str-Search
REM VASP from code version vasp.5.4.4.18Apr17-6-g9f103f2a35 (build Jul 02 2020 21:03:42) gamma-only
REM
REM
REM
REM
REM ./C.cell (90889e035cd0f9d0e5f9cb6dd9eb5d52)
REM AIRSS Version 0.9.1 bugfix July 2018 build 013d7b7c2542+ Fri, 06 Jul 2018 19:26:36 +0100
REM compiler GCC version 9.2.0
REM options -cpp -mtune=generic -march=x86-64 -g -O0
REM seed -1434884390 320829382 536823259 -1822631949 -497675647 730337412 1414371314 1318531582 -109824907 -1883945111 -2092652359 -603702669 -1855294642 -40314749 -1642516526 -771759158 947736625 -66659499 -247816161 -1894552347 -1797168682 1244528659 -5899845 279697886 1097306688 -726712709 230913467 -1187120904 1212339302 -841051709 2105233057 410894888 663564556
REM
REM C.POTCAR (d86ddea03c3ceb6dc662c8ad6801f873)
REM 
CELL 1.54180   15.00000   15.00000   15.00000   90.00000   90.00000   90.00000
LATT -1
SFAC C  
C      1  0.2021622710753  0.8646040569633  0.5127640757259 1.0
C      1  0.2257873040736  0.7043193387788  0.1134694606085 1.0
C      1  0.2473037439969  0.7144244191737  0.3497723998449 1.0
C      1  0.4086561277046  0.3787629118354  0.5815034287075 1.0
C      1  0.2269546635621  0.2436821458028  0.8622693727438 1.0
C      1  0.2828188236189  0.8812148952109  0.3791431267021 1.0
C      1  0.1148039943621  0.2204909611815  0.4307310239712 1.0
C      1  0.5754224485611  0.1762530783016  0.8239175309553 1.0
C      1  0.0797924182435  0.5784233329496  0.4118498176881 1.0
C      1  0.3953690854008  0.5362041667779  0.6597718439336 1.0
C      1  0.8875493473121  0.7076983939662  0.3002668337125 1.0
C      1  0.5783778215531  0.6707382821940  0.5359302856186 1.0
C      1  0.0591951042039  0.3645454804265  0.5088196309927 1.0
C      1  0.6384794773684  0.1955247256371  0.7530974377843 1.0
C      1  0.7630182912229  0.2204724921008  0.3195158115817 1.0
C      1  0.6383752099195  0.9042931628976  0.5969661005104 1.0
C      1  0.8119931411838  0.1845896277009  0.1572408244471 1.0
C      1  0.6803421813352  0.3548418708594  0.9145713796011 1.0
C      1  0.5338592610950  0.7551744669103  0.8544565295809 1.0
C      1  0.0900375647534  0.5234786796040  0.5893066637387 1.0
C      1  0.5113983526202  0.2500166153809  0.5885399682968 1.0
C      1  0.2981395032340  0.9144742311502  0.6461989234592 1.0
C      1  0.5633469511739  0.6942649622746  0.2509016049767 1.0
C      1  0.7052172985021  0.7945550380062  0.3215275435975 1.0
C      1  0.4493390425882  0.0464697454669  0.6297969356493 1.0
C      1  0.8424647567146  0.4558627983015  0.8389604574646 1.0
C      1  0.7774813007805  0.6682504578687  0.4944843674204 1.0
C      1  0.5140298102932  0.7159182321603  0.4670557803917 1.0
C      1  0.2129919102067  0.7446745014550  0.2632424205463 1.0
C      1  0.3750612265647  0.7232048911151  0.2090448041376 1.0
C      1  0.6295443538022  0.0742763628358  0.3331545079274 1.0
C      1  0.0899664113357  0.2109477074984  0.5846142395598 1.0
C      1  0.4738959178853  0.6549083118982  0.3866929306216 1.0
C      1  0.4132614320630  0.8778638216516  0.1695347765052 1.0
C      1  0.6497902650799  0.9587117215754  0.5088265643460 1.0
C      1  0.8990869535807  0.2271580725171  0.5976057356971 1.0
C      1  0.5825604525540  0.7961943569498  0.9199549093003 1.0
C      1  0.9419572529359  0.2297417239321  0.5135742737272 1.0
C      1  0.2838787766746  0.5953885048859  0.4658048871429 1.0
C      1  0.2756046949039  0.7403035682660  0.1910635968731 1.0
C      1  0.7276511541593  0.8564440442893  0.8697429844642 1.0
C      1  0.5936993841380  0.9041332957718  0.2349751503283 1.0
C      1  0.4810727075830  0.9460626557082  0.4919051949379 1.0
C      1  0.7435696171103  0.5095248021066  0.5337447691708 1.0
C      1  0.2546197420708  0.1215599092284  0.3327030003632 1.0
C      1  0.1190547533306  0.8048112691477  0.5082336079226 1.0
C      1  0.5670356663660  0.1605991846751  0.5888003738501 1.0
C      1  0.7083242774044  0.4498468581015  0.9529898358077 1.0
C      1  0.6331412688352  0.6563456177575  0.3035041637116 1.0
C      1  0.1446386392831  0.1375035631814  0.5621600415623 1.0
C      1  0.5032498592833  0.4566476889848  0.9983607087215 1.0
C      1  0.1278215030724  0.7805520579628  0.6811612514905 1.0
C      1  0.9234521213915  0.6548763509493  0.5899080542668 1.0
C      1  0.6349258687197  0.6864500156466  0.1117445798566 1.0
C      1  0.8530607157042  0.6077338412061  0.8117459819162 1.0
C      1  0.4676769612982  0.4189836468599  0.4164133558321 1.0
C      1  0.4838123873103  0.4186062236856  0.1579330687934 1.0
C      1  0.7665452001288  0.8496357393338  0.7952920386646 1.0
C      1  0.5950608590959  0.4481296758880  0.6683066533587 1.0
C      1  0.1207374558938  0.2398968529417  0.6741224980078 1.0
C      1  0.4156312653654  0.9004216003028  0.4483482699498 1.0
C      1  0.7509042954105  0.8321703630636  0.5357020038450 1.0
C      1  0.3773514484265  0.8410437353264  0.5185188720613 1.0
C      1  0.6617507136374  0.4539382472764  0.5095623507006 1.0
C      1  0.2900545906541  0.7951599618182  0.5038586266842 1.0
C      1  0.2803698867295  0.4961673942983  0.7580866184592 1.0
C      1  0.4619229216103  0.6497814450007  0.0846106731698 1.0
C      1  0.6440710684540  0.4227509699327  0.3471687950160 1.0
C      1  0.2128694486795  0.5896595628305  0.1962147490295 1.0
C      1  0.5390369843470  0.2456240626457  0.8724724364285 1.0
C      1  0.5206249515254  0.1045576758498  0.6630939960412 1.0
C      1  0.1869405788369  0.3829471159108  0.2866233112041 1.0
C      1  0.5035879835157  0.6660517374732  0.8415645396102 1.0
C      1  0.6846233067715  0.6116766929281  0.8202271810042 1.0
C      1  0.0591724788708  0.7374518165105  0.5042228118403 1.0
C      1  0.2784614911570  0.8624164623362  0.8226907775635 1.0
C      1  0.2158454720510  0.4740597068048  0.8288278172009 1.0
C      1  0.7477300948920  0.5009887845364  0.1367309459791 1.0
C      1  0.1999227972320  0.7519650080599  0.8982473975951 1.0
C      1  0.7666301832833  0.5869447316744  0.8596392446877 1.0
C      1  0.5318389954860  0.4887429699994  0.4464202339034 1.0
C      1  0.6636716338529  0.5118135008199  0.2048514028954 1.0
C      1  0.0742639152980  0.4194901274671  0.5953682325498 1.0
C      1  0.7342742193388  0.1731628103469  0.7381115194953 1.0
C      1  0.3243367213301  0.5796140915892  0.0501305147982 1.0
C      1  0.4230055320262  0.3226808140621  0.9348507561664 1.0
C      1  0.4765232624771  0.3614607823979  0.3306665555849 1.0
C      1  0.7227755439540  0.8976272223793  0.4642451763465 1.0
C      1  0.3145510603079  0.2790932628110  0.0606247638551 1.0
C      1  0.2228459119694  0.8400433938988  0.8963843329645 1.0
C      1  0.6851484715009  0.2029074962776  0.5167275553917 1.0
C      1  0.4128708199916  0.8655295697942  0.2722979982935 1.0
C      1  0.8905654499024  0.4516722444467  0.3413611148660 1.0
C      1  0.1666771132965  0.3838638574013  0.6066963026647 1.0
C      1  0.2589855873175  0.6193148870884  0.3618756248420 1.0
C      1  0.5002454968171  0.7286007434519  0.3232379705633 1.0
C      1  0.4910933204464  0.1095512204426  0.2664627701793 1.0
C      1  0.4385693457328  0.5682912012125  0.3465858282147 1.0
C      1  0.6894220466692  0.5043798777812  0.0463489568217 1.0
C      1  0.5815496254637  0.1341295471428  0.2725578484949 1.0
C      1  0.0487321469819  0.4959785697504  0.3853951414953 1.0
C      1  0.5617475862738  0.0188953351933  0.3706862607263 1.0
C      1  0.1435841774409  0.2421684494748  0.3310289796952 1.0
C      1  0.9827012906037  0.4395177134714  0.3641277799361 1.0
C      1  0.8209846148634  0.5621433783450  0.6456723619657 1.0
C      1  0.7495781390979  0.1418789696146  0.6527901898462 1.0
C      1  0.8451767214488  0.3011599357713  0.7502503656608 1.0
C      1  0.3753668276957  0.9167909262085  0.3521875547490 1.0
C      1  0.3177075619401  0.2187116881765  0.7256980811094 1.0
C      1  0.6685218904554  0.0610984989839  0.5131294905685 1.0
C      1  0.3027055109241  0.2764276828956  0.2707760851893 1.0
C      1  0.5190862229523  0.4788570274996  0.7144964916076 1.0
C      1  0.8260784376384  0.3669239537997  0.8202700457429 1.0
C      1  0.5289560580511  0.4595240137741  0.0916888676577 1.0
C      1  0.5758639940322  0.8411894635152  0.1725937837952 1.0
C      1  0.7236563345446  0.0756523263439  0.3595429642197 1.0
C      1  0.7757955024476  0.7159270854737  0.1763360910537 1.0
C      1  0.7253513132142  0.6632793611013  0.1065539136094 1.0
C      1  0.2302760227385  0.7293581158683  0.8028902463374 1.0
C      1  0.2507357506988  0.8998071793388  0.7378184098869 1.0
C      1  0.7370853932717  0.3962739979767  0.3313106726508 1.0
C      1  0.4300600346314  0.3452571148656  0.4841429602466 1.0
C      1  0.5673387763052  0.9506277432588  0.4435911545946 1.0
C      1  0.6968633152585  0.5625714631963  0.3954851203664 1.0
C      1  0.1403135065924  0.5446723085087  0.6722331821187 1.0
C      1  0.2078178926601  0.1247680322544  0.6437749553132 1.0
C      1  0.4564237839990  0.7563988803098  0.0745831404865 1.0
C      1  0.6042424014829  0.5233753020257  0.1076465732950 1.0
C      1  0.2615654406703  0.0233612305908  0.4657833137024 1.0
C      1  0.1681418920465  0.1684892896171  0.7186716035657 1.0
C      1  0.3543648978092  0.3095709252231  0.4317848608163 1.0
C      1  0.7351408233947  0.6114581725844  0.6660334106687 1.0
C      1  0.4485842405790  0.3274240825226  0.7336930333740 1.0
C      1  0.5195737581898  0.4288840259598  0.2502503291438 1.0
C      1  0.2853381762017  0.7223792516508  0.5724653008775 1.0
C      1  0.3180259123673  0.3693654219499  0.6249347787183 1.0
C      1  0.8640343692637  0.4694519299544  0.2444186508445 1.0
C      1  0.7123712354594  0.7645636513716  0.2264753670173 1.0
C      1  0.6329597327645  0.3285231783416  0.3797989490126 1.0
C      1  0.4912063407882  0.5718853156191  0.6824490974637 1.0
C      1  0.2412449298744  0.5305052192458  0.6706478921407 1.0
C      1  0.5922151250151  0.4682266027647  0.5786045060171 1.0
C      1  0.6763270372932  0.3137707959484  0.6320147933161 1.0
C      1  0.5086509405124  0.6080172279840  0.5820094439702 1.0
C      1  0.7860039771758  0.5270264399274  0.4432281037514 1.0
C      1  0.9580480804305  0.4942916909477  0.5288146133156 1.0
C      1  0.8398388488585  0.1955321913963  0.3553661327411 1.0
C      1  0.5551943756727  0.1351588894231  0.7420268161935 1.0
C      1  0.3471715369138  0.5066413785548  0.4867851374028 1.0
C      1  0.1828005235106  0.3109429938306  0.6669171093747 1.0
C      1  0.5452577846680  0.2815033433568  0.3503634570986 1.0
C      1  0.1688707455797  0.7257582336159  0.7400323216697 1.0
C      1  0.6214974818516  0.7521675708623  0.1844230281284 1.0
C      1  0.3400785792995  0.0900597134659  0.3057822834544 1.0
C      1  0.0310218223717  0.6432329312771  0.4716264239100 1.0
C      1  0.3673703744127  0.2260999752402  0.2153540639557 1.0
C      1  0.3334357040754  0.6416852995945  0.5401632573841 1.0
C      1  0.3916616985661  0.4870333982654  0.3985873546468 1.0
C      1  0.2788776279619  0.7841986862168  0.4042649514195 1.0
C      1  0.9393999949753  0.6011695881903  0.5059099862155 1.0
C      1  0.6714269281749  0.1332251176821  0.5898055645065 1.0
C      1  0.8769825830270  0.7340798152288  0.5990593276300 1.0
C      1  0.5099745598706  0.7963641133269  0.6128925582104 1.0
C      1  0.7832565389984  0.1983651236594  0.5041194555462 1.0
C      1  0.5325257452474  0.2199210840271  0.4317383617257 1.0
C      1  0.5899701402106  0.5857614892586  0.8276236772627 1.0
C      1  0.1821905464338  0.6816914231425  0.1983161085005 1.0
C      1  0.5948230551826  0.2316418903160  0.2646976520954 1.0
C      1  0.8363682077826  0.4381922257082  0.4313112164872 1.0
C      1  0.6265162201669  0.4901601145814  0.4198039746631 1.0
C      1  0.0839486386569  0.5441714131652  0.7459010565598 1.0
C      1  0.1723278343727  0.8681298268141  0.6852148436300 1.0
C      1  0.8771518083075  0.5424300016462  0.2990653118242 1.0
C      1  0.8235755897116  0.1603023966255  0.5890452782933 1.0
C      1  0.6766086923432  0.5790056461538  0.2922682784648 1.0
C      1  0.0140676187454  0.4371093828685  0.4577945563729 1.0
C      1  0.3174507427501  0.7779414682420  0.7868589807577 1.0
C      1  0.4900489437138  0.2516593387404  0.1272914203065 1.0
C      1  0.8741240424565  0.6212455938417  0.3441754914423 1.0
C      1  0.0393683029110  0.2591107920641  0.5062010688819 1.0
C      1  0.4946257415197  0.8354962682530  0.1228227687756 1.0
C      1  0.4210989924063  0.6750478145317  0.5745306063958 1.0
C      1  0.6859976209515  0.6529263444280  0.7296489503738 1.0
C      1  0.8783267338408  0.4378046183292  0.5273665095407 1.0
C      1  0.2586011919853  0.6066659394418  0.1050408667958 1.0
C      1  0.4004185843412  0.2578072027485  0.7761825802572 1.0
C      1  0.7875024074281  0.8258864414148  0.7102803389124 1.0
C      1  0.2263216270572  0.2724799292131  0.0950622992286 1.0
C      1  0.6020288573890  0.7051819267923  0.7091364419884 1.0
C      1  0.3643841674387  0.3377774770241  0.3369200324474 1.0
C      1  0.8768133404178  0.7856914742743  0.4413686562396 1.0
C      1  0.7467982932593  0.0690592841903  0.4511636473821 1.0
C      1  0.2702341085630  0.4555319097798  0.5102405362837 1.0
C      1  0.8769220586396  0.3070461836313  0.6567572716430 1.0
C      1  0.3182596914347  0.0783718719638  0.5178962513283 1.0
C      1  0.3201244909904  0.4179424094383  0.1864570712680 1.0
C      1  0.6830457252061  0.2723277519455  0.2986068709454 1.0
C      1  0.2337000383057  0.4010318074603  0.8756617451205 1.0
C      1  0.2601206492606  0.3195673202234  0.9060651071998 1.0
C      1  0.8500333969559  0.6086313230341  0.4440488705637 1.0
C      1  0.7717287775574  0.3691385778888  0.4151990009754 1.0
C      1  0.7517299928186  0.5774118874783  0.0751678139188 1.0
C      1  0.8492716489626  0.7506188323161  0.6922352438085 1.0
C      1  0.4909382488690  0.2675019532389  0.4972895903776 1.0
C      1  0.6555270282608  0.8397490880382  0.9169748276066 1.0
C      1  0.8986090385293  0.5236744357111  0.7968396246871 1.0
C      1  0.8572132239485  0.3839886657001  0.6072213800477 1.0
C      1  0.5545016416070  0.7868689804239  0.7622594383828 1.0
C      1  0.4213380816304  0.6369804638529  0.1847111662807 1.0
C      1  0.7316550622377  0.8628601480050  0.6323344829014 1.0
C      1  0.6422432225742  0.2849744438935  0.7142920263043 1.0
C      1  0.3251491216756  0.4940761333488  0.2525112074076 1.0
C      1  0.5611211840460  0.6170691574262  0.1127507499513 1.0
C      1  0.2077007688879  0.0844045865908  0.4105957363631 1.0
C      1  0.1590592809719  0.3576341247313  0.5005366082115 1.0
C      1  0.2529733928678  0.5622916129980  0.2752112905681 1.0
C      1  0.1921025291528  0.2731853766801  0.4682589589625 1.0
C      1  0.3957142284193  0.7887463234909  0.1385729006118 1.0
C      1  0.8082878155983  0.2697753025809  0.1408680807282 1.0
C      1  0.3941285047602  0.2782926163852  0.1322171544619 1.0
C      1  0.4182270222349  0.7724162050374  0.2864371434911 1.0
C      1  0.4937679180748  0.5310497836040  0.2653133214541 1.0
C      1  0.1342859779546  0.6037071106461  0.8942344843893 1.0
C      1  0.1272516366275  0.3091183435463  0.2590792759577 1.0
C      1  0.2872961915174  0.2487817472297  0.4698303256774 1.0
C      1  0.4008959928440  0.5569483085829  0.2448505576715 1.0
C      1  0.2497582506171  0.4416096302193  0.6054268339987 1.0
C      1  0.5266844014279  0.8754762385386  0.7328145261636 1.0
C      1  0.1538061746612  0.6775043135926  0.9324549991108 1.0
C      1  0.8276047317911  0.1073296508113  0.4953881115175 1.0
C      1  0.5071586664468  0.3691819720133  0.9554363314189 1.0
C      1  0.5442863222842  0.8956973309255  0.6355732328829 1.0
C      1  0.4522752552706  0.4268241168598  0.7538189504383 1.0
C      1  0.1171946684593  0.7432380540880  0.5881951225151 1.0
C      1  0.7209400740573  0.8774806493164  0.3732534865711 1.0
C      1  0.4715260968623  0.5401028652944  0.9591558123044 1.0
C      1  0.0032397564297  0.4870142873672  0.6212712257045 1.0
C      1  0.8772069596467  0.6736103381939  0.7435842717402 1.0
C      1  0.7502151731958  0.3155329046570  0.8574098111292 1.0
C      1  0.6408668871946  0.8790964419838  0.3155206810747 1.0
C      1  0.5610092606926  0.7698427705514  0.3968222512778 1.0
C      1  0.1466266175813  0.1296778228498  0.4628312986688 1.0
C      1  0.4656437596586  0.7973536673894  0.7047749994626 1.0
C      1  0.3213958836156  0.1697352127327  0.4985035183785 1.0
C      1  0.8576618993372  0.7081990691207  0.2157071114878 1.0
C      1  0.8138389507448  0.1139397931374  0.2064566267455 1.0
C      1  0.6875637602128  0.3567353086095  0.4722562562704 1.0
C      1  0.3197061507707  0.5966399743839  0.6377573128511 1.0
C      1  0.1858446746393  0.2937795316052  0.1711325065315 1.0
C      1  0.4679439913872  0.9518218492624  0.5942396556505 1.0
C      1  0.4178679514297  0.4831199827189  0.5706070706343 1.0
C      1  0.3043954751434  0.1371058870992  0.6572388792265 1.0
C      1  0.9057755469575  0.7755164069748  0.3652906037854 1.0
C      1  0.6861428981743  0.6572251441014  0.4468286413212 1.0
C      1  0.6526262813958  0.7206093939424  0.3753158242258 1.0
C      1  0.5197885248938  0.6188026386386  0.2081060710999 1.0
C      1  0.7809856205572  0.3478709056598  0.1743259731323 1.0
C      1  0.5137874710500  0.5826380596819  0.8900064000053 1.0
C      1  0.3802342272591  0.7552634845764  0.7244982186134 1.0
C      1  0.8131094294039  0.4712282555572  0.6007062231983 1.0
C      1  0.5949409476647  0.1557665527204  0.4846139129487 1.0
C      1  0.6788646055873  0.2945650167150  0.5449484789662 1.0
C      1  0.2525189191515  0.3535309347589  0.2193318007914 1.0
C      1  0.5555118334489  0.2529509991922  0.1772502646792 1.0
C      1  0.3519455202921  0.6952837125954  0.6514008424547 1.0
C      1  0.3896000963853  0.0142091860591  0.3351752371197 1.0
C      1  0.1958060783549  0.6869473871721  0.5706129402186 1.0
C      1  0.2136409937299  0.8951044341980  0.6040965540180 1.0
C      1  0.3652797919863  0.0818930226138  0.6075833040700 1.0
C      1  0.7559000932656  0.6048868036484  0.5733036222201 1.0
C      1  0.5839572123747  0.3223304406226  0.9195033750202 1.0
C      1  0.6461119922802  0.3747034850957  0.6945779577526 1.0
C      1  0.3694893957970  0.4796774799635  0.7396550675347 1.0
C      1  0.7803737431933  0.2421434310585  0.7881620039347 1.0
C      1  0.2418826018243  0.9295336041419  0.4455162222918 1.0
C      1  0.6657926456015  0.8079162843051  0.5836585931417 1.0
C      1  0.3333378009169  0.3118335186849  0.9742491815488 1.0
C      1  0.4805860193552  0.0362679384869  0.3261638476147 1.0
C      1  0.7874236769276  0.1241947474704  0.3008983113641 1.0
C      1  0.4420895125160  0.2580937087811  0.8671654090061 1.0
C      1  0.5103944147385  0.5146824076017  0.5402550074153 1.0
C      1  0.4087525646609  0.5905668323392  0.0210445590514 1.0
C      1  0.4670193591494  0.3150241128528  0.6396855066200 1.0
C      1  0.9755798074423  0.5341032096728  0.7156728708905 1.0
C      1  0.8696744459342  0.1902524296239  0.4501260673345 1.0
C      1  0.2781325943412  0.2991108510417  0.6728296159569 1.0
C      1  0.4521128479397  0.7631989747731  0.5358937369876 1.0
C      1  0.1068068055137  0.5790430068325  0.5060931082345 1.0
C      1  0.4022070135161  0.1483628622602  0.2529640172607 1.0
C      1  0.2110154993844  0.4216587913636  0.4506799707255 1.0
C      1  0.5966907097476  0.7388995378263  0.6102286270996 1.0
C      1  0.2323937557833  0.2013393716436  0.7858831884391 1.0
C      1  0.8172375637927  0.4397477589284  0.1706933352262 1.0
C      1  0.3947948453503  0.3792404353873  0.1518237553253 1.0
C      1  0.3267345669178  0.4374900169170  0.3377004769017 1.0
C      1  0.1942743234374  0.6165650766264  0.5148837673631 1.0
C      1  0.1328843169510  0.5367421001262  0.8325911681391 1.0
C      1  0.3783205206070  0.9016993944081  0.6005874255923 1.0
C      1  0.7719841656484  0.4962267598065  0.8973232471684 1.0
C      1  0.6248087753567  0.4276288119777  0.2501502466484 1.0
C      1  0.9146709010242  0.6097341287692  0.6759863199904 1.0
C      1  0.5351678655695  0.6339974712845  0.7509619039219 1.0
C      1  0.2284433541722  0.4228718482277  0.3587708504860 1.0
C      1  0.2315850433969  0.2101841394751  0.3099605378035 1.0
C      1  0.8213900212724  0.7622315310714  0.5187384160473 1.0
C      1  0.5789727185919  0.8664982455315  0.3908601422208 1.0
C      1  0.7091974991294  0.3535907224915  0.2445137369551 1.0
END
