TITL C-304222-2299-2 -0.531 3375.00 -80.25023354 0 0 11 (C1) n - 1
REM
REM Run started: at 2020.10.17 03:56:46 in /rds/project/t2_vol4/rds-t2-cs072/BORA/CARBON/AIRSS/Generating-Clusters/Str-Search
REM VASP from code version vasp.5.4.4.18Apr17-6-g9f103f2a35 (build Oct 11 2019 16:45:47) gamma-only
REM
REM
REM
REM
REM ./C.cell (8c8f32957ea4b25f9ffc41644e092d35)
REM AIRSS Version 0.9.1 bugfix July 2018 build 013d7b7c2542+ Fri, 06 Jul 2018 19:26:36 +0100
REM compiler GCC version 4.8.5 20150623 (Red Hat 4.8.5-39)
REM options -cpp -mtune=generic -march=x86-64 -g -O0
REM seed -1661533377 -1079007810 2143636768 -1904872428 1936471346 -413473633 1705400130 22917978 208653456 -1720450600 -1431000982 2079568919
REM
REM C.POTCAR (d86ddea03c3ceb6dc662c8ad6801f873)
REM 
CELL 1.54180   15.00000   15.00000   15.00000   90.00000   90.00000   90.00000
LATT -1
SFAC C  
C      1  0.4213404030656  0.4831343146118  0.5776531985244 1.0
C      1  0.6285444569076  0.5102374343445  0.4226312151023 1.0
C      1  0.3776620865984  0.4222618283516  0.6396409077460 1.0
C      1  0.2967438572150  0.4554567690978  0.6255814226072 1.0
C      1  0.4956407269221  0.4914288841018  0.5298129351211 1.0
C      1  0.7503321490604  0.5270408598531  0.3152739378720 1.0
C      1  0.5612468684912  0.5006411578900  0.4782600036278 1.0
C      1  0.6736537432663  0.5658545251741  0.3585842943200 1.0
C      1  0.3391577194367  0.5425664583759  0.5807944001515 1.0
C      1  0.2501406529591  0.5300290948071  0.5915801531576 1.0
C      1  0.7055373360776  0.4713486733923  0.3801874317701 1.0
END
