TITL C-30191-5427-22 -8.993 3375.00 -1587.73641812 0 0 195 (C1) n - 1
REM
REM Run started: at 2020.07.12 03:29:24 in /home/heco/bkarasulu/work/CARBON/AIRSS/Str-Search
REM VASP from code version vasp.5.4.4.18Apr17-6-g9f103f2a35 (build Jul 02 2020 21:03:42) gamma-only
REM
REM
REM
REM
REM ./C.cell (90889e035cd0f9d0e5f9cb6dd9eb5d52)
REM AIRSS Version 0.9.1 bugfix July 2018 build 013d7b7c2542+ Fri, 06 Jul 2018 19:26:36 +0100
REM compiler GCC version 9.2.0
REM options -cpp -mtune=generic -march=x86-64 -g -O0
REM seed -958685249 889738716 -1760157120 -403101397 1996345683 1726918238 1254656096 -2136594829 1127473624 -1276578585 -1534856400 -2105771405 1663815379 2007742228 -1705062233 -71929035 -596874221 1970687479 1522787581 -1783391986 -16924177 -2120813926 242407066 1223724026 -831245155 -1479693033 -1654755636 -697202589 1913270463 -690503178 -1766719993 -1337116790 -97241987
REM
REM C.POTCAR (d86ddea03c3ceb6dc662c8ad6801f873)
REM 
CELL 1.54180   15.00000   15.00000   15.00000   90.00000   90.00000   90.00000
LATT -1
SFAC C  
C      1  0.3760120321485  0.4565895064071  0.4271865688197 1.0
C      1  0.2181605321854  0.7454320320874  0.6280917576981 1.0
C      1  0.1192243095081  0.4763283625966  0.6272481382292 1.0
C      1  0.2544542406120  0.3559735899313  0.2171706089095 1.0
C      1  0.4513365606807  0.7909720192737  0.6812356496133 1.0
C      1  0.4673019550741  0.5507075796626  0.3664109823021 1.0
C      1  0.5721882732920  0.4318778593462  0.2095945428191 1.0
C      1  0.3703326821864  0.5595423542511  0.7491428474635 1.0
C      1  0.4172712425754  0.3749341661579  0.5864549180025 1.0
C      1  0.8049677902911  0.5636808333700  0.7841469475084 1.0
C      1  0.8928597537802  0.5770433501036  0.4281250443675 1.0
C      1  0.3401146061509  0.7230406079096  0.7808154226714 1.0
C      1  0.3674578626753  0.5391559844468  0.3744097270218 1.0
C      1  0.1698398658070  0.5284922952210  0.7923617813604 1.0
C      1  0.3288040001775  0.3532654497466  0.8315866980583 1.0
C      1  0.4064027305247  0.0954318660259  0.3028050469149 1.0
C      1  0.2234510478094  0.3277881388868  0.3073545416197 1.0
C      1  0.8642046859365  0.6525999497495  0.3786410280479 1.0
C      1  0.2895818831960  0.8467949059568  0.4768749460753 1.0
C      1  0.7809787684894  0.7857219725813  0.3487489766823 1.0
C      1  0.6270712720402  0.0884327462262  0.5736729999581 1.0
C      1  0.3162044993824  0.4404449847949  0.2214034583179 1.0
C      1  0.4209615560416  0.3367228202146  0.8158315722366 1.0
C      1  0.2398809974790  0.5020259347552  0.8515057064187 1.0
C      1  0.5742298027760  0.4928067498892  0.2773609327976 1.0
C      1  0.6127939137130  0.6104816476124  0.7669325564914 1.0
C      1  0.7540621871144  0.5901373877235  0.8448502344797 1.0
C      1  0.6576671429262  0.5880656427447  0.6237925954618 1.0
C      1  0.1727311677364  0.3561449555170  0.5182875708609 1.0
C      1  0.8227108742310  0.7328356455253  0.4122628620746 1.0
C      1  0.5644024946092  0.2147157820084  0.4458377668248 1.0
C      1  0.4595061349030  0.7590757627908  0.4573921590324 1.0
C      1  0.5582467121350  0.5632067045228  0.6174371906001 1.0
C      1  0.2519205874950  0.6760472190531  0.3023162972254 1.0
C      1  0.8581236243803  0.5707739497209  0.5253055729024 1.0
C      1  0.7162457924889  0.5162389645001  0.6643436575871 1.0
C      1  0.3512766788882  0.6554232941659  0.5368601691465 1.0
C      1  0.3760010593290  0.1238308475395  0.3922667972095 1.0
C      1  0.1213635078734  0.5367699462338  0.5479396575223 1.0
C      1  0.5319774690199  0.9195705570657  0.5772735103915 1.0
C      1  0.1817207936576  0.4011136954983  0.3551896620404 1.0
C      1  0.4683827122236  0.4159425838788  0.4261386771490 1.0
C      1  0.3934250889008  0.5743367365803  0.8384379554869 1.0
C      1  0.1432086868262  0.4093119854537  0.4397916546585 1.0
C      1  0.9115321894827  0.4912024583526  0.3834893117783 1.0
C      1  0.7011994115911  0.1264417100362  0.5725648446672 1.0
C      1  0.6969425070709  0.2153654027619  0.7395826243422 1.0
C      1  0.3906178994849  0.2796996122148  0.5775477023724 1.0
C      1  0.7292399606554  0.8018455709995  0.5381193541185 1.0
C      1  0.7653626813600  0.2430824875444  0.6995478916651 1.0
C      1  0.1365700645912  0.3871813543493  0.6080101513320 1.0
C      1  0.5923381559318  0.7144643783864  0.5686868515417 1.0
C      1  0.3015695908539  0.4941517654655  0.3067147617935 1.0
C      1  0.7188033561046  0.8115928433391  0.3002385593799 1.0
C      1  0.2597237859857  0.7899425621543  0.4079327784019 1.0
C      1  0.7004417523671  0.7864607022330  0.6318804128771 1.0
C      1  0.4186576639603  0.2205245029050  0.1824862623543 1.0
C      1  0.7859395257985  0.3991206833356  0.5195082040574 1.0
C      1  0.4733724180924  0.6920141844999  0.6661621444790 1.0
C      1  0.5006793973473  0.1331480044125  0.6820961262338 1.0
C      1  0.7437787715877  0.3628177030775  0.3686827244733 1.0
C      1  0.5764756856056  0.5973824075172  0.2575174539925 1.0
C      1  0.5306181427556  0.4766216687808  0.3688072637996 1.0
C      1  0.3253497301061  0.4940315976248  0.7001387785563 1.0
C      1  0.7267821853493  0.3410547202451  0.4621247638069 1.0
C      1  0.6400783208355  0.3780093398573  0.4960042169352 1.0
C      1  0.8301517027429  0.6652874760295  0.5595277210516 1.0
C      1  0.5970446856849  0.8319521724337  0.3957653024183 1.0
C      1  0.5189930438470  0.7160580517469  0.8256620456279 1.0
C      1  0.6315462978885  0.2973968390031  0.2633899998509 1.0
C      1  0.6268986237494  0.8245911512815  0.3060462236748 1.0
C      1  0.2913935656370  0.8048811430748  0.6383549222793 1.0
C      1  0.7812865388412  0.4978906566871  0.5004315914091 1.0
C      1  0.2336717538373  0.2444855132437  0.6223639123653 1.0
C      1  0.7575706215355  0.6058630325234  0.2497964286419 1.0
C      1  0.6179865319915  0.3253047559776  0.8123197936064 1.0
C      1  0.7511647627388  0.2050583126859  0.5484114903005 1.0
C      1  0.7275718838861  0.1639162524215  0.2684631121311 1.0
C      1  0.4715784181348  0.8125618926589  0.2941322206660 1.0
C      1  0.7368234008472  0.7140868263419  0.6823824858526 1.0
C      1  0.5420324235846  0.4673675650965  0.1207318694001 1.0
C      1  0.6854494828151  0.4459253678263  0.7086277082885 1.0
C      1  0.5510941639794  0.2010404659975  0.5440544617827 1.0
C      1  0.8257751895642  0.3567510952416  0.5917231075893 1.0
C      1  0.3420030310963  0.2147965032400  0.3563731156642 1.0
C      1  0.4994162213785  0.8137482370872  0.3921206327305 1.0
C      1  0.6620944233372  0.6486278466533  0.5451969728436 1.0
C      1  0.7935099904156  0.4043774919575  0.3038648028329 1.0
C      1  0.4279796537759  0.2747480412066  0.3316305932642 1.0
C      1  0.6141138612521  0.4131464734478  0.7590207066254 1.0
C      1  0.7884286432232  0.1171004094158  0.2302273413208 1.0
C      1  0.4448065211172  0.4588985730633  0.1318220768149 1.0
C      1  0.7105701310785  0.3545251861388  0.2848831233855 1.0
C      1  0.8151746317416  0.5620847349612  0.6842119043571 1.0
C      1  0.5450512121440  0.5023706292271  0.5338197320696 1.0
C      1  0.9508868473041  0.4187373864918  0.5253509439807 1.0
C      1  0.5319354340866  0.1137807797023  0.5877098723382 1.0
C      1  0.8786032732663  0.5174443265660  0.6176794699268 1.0
C      1  0.5885899319622  0.6231234954918  0.0893343016974 1.0
C      1  0.4462102385071  0.6183498694810  0.7274293026019 1.0
C      1  0.5656755761542  0.3503526378022  0.5429316208165 1.0
C      1  0.3413378637522  0.2385513537405  0.1371535368295 1.0
C      1  0.1290592209121  0.5333786227818  0.7060108946018 1.0
C      1  0.3554270963712  0.7869412745109  0.7114131762154 1.0
C      1  0.4552465977493  0.2972396786905  0.6464754325543 1.0
C      1  0.2973435459713  0.6281857002983  0.2209251959515 1.0
C      1  0.1395478565701  0.6215372405024  0.6716220944759 1.0
C      1  0.5174176928864  0.6535766105997  0.5897489547145 1.0
C      1  0.4090722420822  0.1274484188282  0.6618302315390 1.0
C      1  0.5339124707629  0.5557668308875  0.7272365278071 1.0
C      1  0.9544275189087  0.4329042777726  0.4428172956724 1.0
C      1  0.6109070892453  0.2363556657597  0.7689446292334 1.0
C      1  0.4262361737062  0.0970725628290  0.5630965267548 1.0
C      1  0.4255374049415  0.6699616731409  0.8175591651066 1.0
C      1  0.3294654795609  0.5800257571810  0.5619700230120 1.0
C      1  0.5686283932039  0.6362943434116  0.4279287338243 1.0
C      1  0.1973359885533  0.6897818992908  0.7034261709958 1.0
C      1  0.4632550821078  0.4255211223676  0.8294880913709 1.0
C      1  0.1967593099914  0.6484139910682  0.3785898715038 1.0
C      1  0.4934912673767  0.4157055233214  0.5305852435092 1.0
C      1  0.2807672859897  0.2400047546455  0.7091173543067 1.0
C      1  0.3033234984106  0.8545385086524  0.5584115842836 1.0
C      1  0.2621991322725  0.2528420064683  0.3442466995403 1.0
C      1  0.1738667502968  0.5568131388432  0.3909193678933 1.0
C      1  0.6624503019458  0.6134146008945  0.8564901397549 1.0
C      1  0.2747997209296  0.3529037547074  0.5164599868636 1.0
C      1  0.8601985002949  0.4706334910625  0.3010762326726 1.0
C      1  0.4071056857006  0.3999729221304  0.1950145490952 1.0
C      1  0.8079121828681  0.6585926165652  0.6489065340266 1.0
C      1  0.9018027998777  0.4257126246254  0.6058262566947 1.0
C      1  0.3676487242354  0.6418710004708  0.3895529350708 1.0
C      1  0.1345040709274  0.5050238661192  0.4609785660771 1.0
C      1  0.3994809032423  0.4835433903870  0.8737257827807 1.0
C      1  0.5641098110142  0.7418614992927  0.1690316668769 1.0
C      1  0.4254941198112  0.6747321231822  0.3165809326307 1.0
C      1  0.3618615839485  0.1950542979387  0.7181256478775 1.0
C      1  0.1327991879142  0.6267737845535  0.5762336092107 1.0
C      1  0.3630730153611  0.7013957479695  0.1805854315150 1.0
C      1  0.2117961262463  0.4918638684915  0.3318577020198 1.0
C      1  0.6106698063249  0.7194763770864  0.0912783996005 1.0
C      1  0.5972455215440  0.7835984476803  0.6462605194100 1.0
C      1  0.5187746869898  0.8459214599845  0.6293654035150 1.0
C      1  0.6545145061668  0.8499232515102  0.4796748604503 1.0
C      1  0.3908033038839  0.5404042215066  0.1233747076577 1.0
C      1  0.3805566840969  0.6983417503284  0.4612007517386 1.0
C      1  0.5405333818263  0.2772167547232  0.5928302199545 1.0
C      1  0.2808068233836  0.3293378620797  0.7497008960905 1.0
C      1  0.4877354057760  0.2504961974613  0.4056006095668 1.0
C      1  0.3121767458946  0.4425428361473  0.8699010215625 1.0
C      1  0.4217443387743  0.1398203439049  0.2334048871798 1.0
C      1  0.6659264591370  0.6475352375440  0.7023990256602 1.0
C      1  0.2529860474164  0.6766133994983  0.7814848011433 1.0
C      1  0.6508729671064  0.2064217833860  0.4068702555928 1.0
C      1  0.6319150301716  0.4689460191090  0.4927381435294 1.0
C      1  0.4346977249790  0.6275222531645  0.1567198085984 1.0
C      1  0.7237183776352  0.2385519574988  0.4674180936276 1.0
C      1  0.2247810361538  0.5957475928820  0.8280564633090 1.0
C      1  0.3073731986385  0.5334923309531  0.1645923968178 1.0
C      1  0.5268115115413  0.2011762840087  0.7461895810514 1.0
C      1  0.3931616018532  0.6235351953676  0.2433340489908 1.0
C      1  0.6390824698434  0.3561230283444  0.8917199096035 1.0
C      1  0.5259413175854  0.6997781306985  0.4988506281650 1.0
C      1  0.2812455261471  0.2967864624964  0.1548450847719 1.0
C      1  0.6999347643158  0.5275566539943  0.4653077023494 1.0
C      1  0.5329300119825  0.6451271991946  0.1717941512076 1.0
C      1  0.6634303431294  0.2135048923612  0.3104771681454 1.0
C      1  0.3018805559055  0.2653303119539  0.5581633455823 1.0
C      1  0.1780999880756  0.7053878499921  0.5414815381012 1.0
C      1  0.5265028699770  0.5491238606496  0.4462340815753 1.0
C      1  0.4423133360123  0.2606343044381  0.7473938297349 1.0
C      1  0.5346895521026  0.4630264945891  0.7746878469405 1.0
C      1  0.5816151532408  0.5364009305250  0.0778179259400 1.0
C      1  0.3182217511176  0.4082541768236  0.5931758801922 1.0
C      1  0.3371265010334  0.3748730821257  0.4440275331114 1.0
C      1  0.2917159413898  0.7634216701596  0.3203344160735 1.0
C      1  0.1560832698834  0.2956553744482  0.5989333878536 1.0
C      1  0.4545883152851  0.3096706407348  0.2310938096755 1.0
C      1  0.6641700830624  0.6191949241271  0.4596920260197 1.0
C      1  0.3191583815242  0.5056957880608  0.6080908684540 1.0
C      1  0.4251761378524  0.3282414044541  0.4143951846234 1.0
C      1  0.5180270546447  0.6330813548752  0.3350656554741 1.0
C      1  0.6029599004030  0.9061009410875  0.5280313994551 1.0
C      1  0.3916137007952  0.1018174589881  0.4793355895325 1.0
C      1  0.3857646274345  0.7621903052018  0.2736970068637 1.0
C      1  0.8469484389714  0.6342906942327  0.2844373600165 1.0
C      1  0.1996728453140  0.7191803193335  0.4469321330437 1.0
C      1  0.5519483734085  0.8043682126681  0.2442247008093 1.0
C      1  0.5330035820305  0.7478547935818  0.7282410123684 1.0
C      1  0.7961546713469  0.2651248791662  0.6147460892790 1.0
C      1  0.8009409994574  0.7426423432467  0.5060901145984 1.0
C      1  0.8388186662188  0.5491563628734  0.2528543813757 1.0
C      1  0.2938302301845  0.4015032761618  0.6930098590262 1.0
C      1  0.5554367708427  0.3365967765568  0.2322439475530 1.0
C      1  0.6724669237055  0.6123789208104  0.2581801224331 1.0
C      1  0.5928850012085  0.6684778612127  0.8575651559173 1.0
END
