TITL C-304222-2299-8 -6.803 3375.00 -1195.26598731 0 0 146 (C1) n - 1
REM
REM Run started: at 2020.10.17 17:40:35 in /rds/project/t2_vol4/rds-t2-cs072/BORA/CARBON/AIRSS/Generating-Clusters/Str-Search
REM VASP from code version vasp.5.4.4.18Apr17-6-g9f103f2a35 (build Oct 11 2019 16:45:47) gamma-only
REM
REM
REM
REM
REM ./C.cell (8c8f32957ea4b25f9ffc41644e092d35)
REM AIRSS Version 0.9.1 bugfix July 2018 build 013d7b7c2542+ Fri, 06 Jul 2018 19:26:36 +0100
REM compiler GCC version 4.8.5 20150623 (Red Hat 4.8.5-39)
REM options -cpp -mtune=generic -march=x86-64 -g -O0
REM seed 509816226 950534184 -596887961 1169260712 1926447559 1974516897 -1366225067 632797906 -964884036 1363529903 811276936 -677361510
REM
REM C.POTCAR (d86ddea03c3ceb6dc662c8ad6801f873)
REM 
CELL 1.54180   15.00000   15.00000   15.00000   90.00000   90.00000   90.00000
LATT -1
SFAC C  
C      1  0.3479895838349  0.1947795300291  0.4553317771331 1.0
C      1  0.3885742069787  0.4028664297557  0.4347074530263 1.0
C      1  0.7021565167124  0.3423938297383  0.8007273756462 1.0
C      1  0.6675754987268  0.2004286128804  0.4294807084278 1.0
C      1  0.4907073465578  0.3295554221325  0.5272640042518 1.0
C      1  0.5620175843034  0.4132247136962  0.8180967632567 1.0
C      1  0.6559969500213  0.3123863402846  0.2668186923692 1.0
C      1  0.5415140487713  0.8172415563507  0.6432786481465 1.0
C      1  0.1779851905836  0.5446511961715  0.3390155158551 1.0
C      1  0.7803881123685  0.4653577135879  0.2665715080324 1.0
C      1  0.7632153394429  0.7187270652139  0.6893291965135 1.0
C      1  0.3521175647075  0.8170341525467  0.6781384581906 1.0
C      1  0.3244728894465  0.4836895190782  0.1971849827739 1.0
C      1  0.3065014979054  0.5418095387196  0.6183169678831 1.0
C      1  0.5583673920207  0.7158426524677  0.5138201232969 1.0
C      1  0.7768047333311  0.6059649194729  0.3802309879371 1.0
C      1  0.5262899417689  0.1706330102741  0.6290873091471 1.0
C      1  0.7256131784667  0.6440217387779  0.7411037947840 1.0
C      1  0.4807523366011  0.3707730092446  0.4389483962431 1.0
C      1  0.2050873618153  0.3910543466752  0.6012684239791 1.0
C      1  0.2144781563516  0.3004335724371  0.6564022681540 1.0
C      1  0.7923816117500  0.5430065021724  0.3160589575202 1.0
C      1  0.7067750649170  0.5632432461887  0.7012605438814 1.0
C      1  0.6886179334457  0.7813930386978  0.6881477599787 1.0
C      1  0.6551190612237  0.4699563672880  0.1412796939208 1.0
C      1  0.4739618886535  0.6129166072524  0.6242917042432 1.0
C      1  0.6049002024829  0.6629851752100  0.4371336691330 1.0
C      1  0.3358047151023  0.3248432927023  0.2719359744156 1.0
C      1  0.4957890757716  0.3153815306742  0.2162818650844 1.0
C      1  0.2406489579244  0.5863202942182  0.2845790048009 1.0
C      1  0.5101326834575  0.5846492139892  0.3202440091015 1.0
C      1  0.3318521183362  0.0789855347764  0.6036581566988 1.0
C      1  0.5391079917274  0.6665096997325  0.5976523205698 1.0
C      1  0.4202588097338  0.4715980232488  0.2215439705621 1.0
C      1  0.4665501070438  0.8246456781933  0.5785209985896 1.0
C      1  0.3079278152972  0.8643290043899  0.4733498054476 1.0
C      1  0.7295851335868  0.3623277059908  0.7187109936274 1.0
C      1  0.5163184448389  0.1528547759758  0.4507003334422 1.0
C      1  0.2983383217395  0.5735074184822  0.2088664348401 1.0
C      1  0.3812342196418  0.6246068964616  0.1924073114440 1.0
C      1  0.3636680925071  0.7461151172507  0.7329273031593 1.0
C      1  0.8587457042676  0.3699913365961  0.3776308544725 1.0
C      1  0.6485305797840  0.5816382570764  0.4801765631994 1.0
C      1  0.7085832213934  0.3755109670713  0.4604502680499 1.0
C      1  0.3675493005690  0.6280295662563  0.4942656411590 1.0
C      1  0.1259859668520  0.4766824748129  0.4712988058558 1.0
C      1  0.1996731010027  0.4956249552382  0.7173438979667 1.0
C      1  0.1532298953721  0.4681864467310  0.6404217773615 1.0
C      1  0.8340188183017  0.6186260015211  0.5807007592457 1.0
C      1  0.3999672455770  0.3149985461266  0.5702110148897 1.0
C      1  0.6373698524458  0.8098228460781  0.6136494078957 1.0
C      1  0.4050257831318  0.5759568490554  0.8115593159662 1.0
C      1  0.3806115028987  0.8627285292253  0.6091181090793 1.0
C      1  0.6860770809866  0.7242555510554  0.4544230993479 1.0
C      1  0.3189237871611  0.6018140816488  0.7858275589581 1.0
C      1  0.5941624152803  0.2215678140303  0.6745688732018 1.0
C      1  0.2876204596304  0.4468490340535  0.5710440666386 1.0
C      1  0.2650295810341  0.5746204990256  0.7074677908834 1.0
C      1  0.4170378605001  0.2769813267148  0.2639700104786 1.0
C      1  0.2596063655321  0.3288198872460  0.7307040986893 1.0
C      1  0.5266402979875  0.5558757620306  0.0991276942606 1.0
C      1  0.8063955767205  0.3734720369495  0.2990790921356 1.0
C      1  0.7184347625977  0.5091278423442  0.6138546520967 1.0
C      1  0.6198363635394  0.5324300764540  0.5624900109356 1.0
C      1  0.5816923213940  0.6299781677342  0.0770777108396 1.0
C      1  0.7453397479551  0.2944732364114  0.3012184917039 1.0
C      1  0.3603756344426  0.3294595000610  0.7476765703556 1.0
C      1  0.4510070453122  0.2047853960793  0.3198924573694 1.0
C      1  0.7714838169093  0.7691581694670  0.3321564527090 1.0
C      1  0.3911717862918  0.7180477216847  0.4759478190030 1.0
C      1  0.4432466069523  0.1833681164702  0.6711502817431 1.0
C      1  0.3645673803054  0.1630376397690  0.6159268000842 1.0
C      1  0.7395505061612  0.2500089670333  0.3897692956563 1.0
C      1  0.6445751832419  0.6729964522535  0.7930904694254 1.0
C      1  0.6511581286697  0.7905937885966  0.2546831530747 1.0
C      1  0.5610654517103  0.4727660088460  0.1292846584822 1.0
C      1  0.8230247879391  0.6886849329382  0.6265946395890 1.0
C      1  0.5502312430280  0.4353604184501  0.2880278989266 1.0
C      1  0.5699484453255  0.5822917323504  0.6343073936242 1.0
C      1  0.6259535801082  0.3874161602905  0.3142320490556 1.0
C      1  0.5874447657621  0.1715626590970  0.3859522129375 1.0
C      1  0.7805225405841  0.3203476666214  0.4489968938684 1.0
C      1  0.6111919359198  0.5551245115437  0.7192268878824 1.0
C      1  0.5045080688163  0.4184405784675  0.1998420944625 1.0
C      1  0.4520360166449  0.2631185774436  0.7311405931044 1.0
C      1  0.6055174016554  0.3358975440963  0.7958422267038 1.0
C      1  0.3124729796958  0.0054047770047  0.5704264113216 1.0
C      1  0.6416642703502  0.4028538259062  0.4094501375278 1.0
C      1  0.4763421913041  0.6412853953832  0.8008142516612 1.0
C      1  0.5318380638027  0.7808293742151  0.7322540008914 1.0
C      1  0.3564011014673  0.2278875272745  0.5485662063753 1.0
C      1  0.5599556401271  0.6619729640507  0.3451986835623 1.0
C      1  0.3254373179209  0.9194076531026  0.5472537239774 1.0
C      1  0.5943602014455  0.7049700559163  0.1102649311700 1.0
C      1  0.4506651006882  0.5678389808869  0.2446731317252 1.0
C      1  0.3275330369535  0.4260370746102  0.3678173010531 1.0
C      1  0.4452383474086  0.4765569483167  0.5716922641528 1.0
C      1  0.4932805253026  0.4516693071291  0.7580650085789 1.0
C      1  0.2193413310221  0.2283063103549  0.3463447106321 1.0
C      1  0.7355765660872  0.4105259350520  0.6395440638472 1.0
C      1  0.6656469815940  0.2430351488194  0.6082405856969 1.0
C      1  0.3467573585379  0.4235009041941  0.2709663887759 1.0
C      1  0.5738949607587  0.2656215188258  0.2424024675206 1.0
C      1  0.7369906464730  0.5655559424181  0.4618113567922 1.0
C      1  0.5722908161610  0.5049072836051  0.7895854185837 1.0
C      1  0.2490865289558  0.3148688062026  0.3203168362431 1.0
C      1  0.5558534033994  0.2702985742578  0.7449562464007 1.0
C      1  0.5828997227841  0.7289477388872  0.2826864418762 1.0
C      1  0.4539553943945  0.5969721978206  0.1489514093491 1.0
C      1  0.4307433034940  0.1739767071702  0.4101825409628 1.0
C      1  0.5547502030768  0.1587965531680  0.5374001875729 1.0
C      1  0.3699454459240  0.4091842108711  0.5326685838848 1.0
C      1  0.6227884103142  0.7567425987550  0.7582544734497 1.0
C      1  0.2297952423103  0.3970066878165  0.3665457772026 1.0
C      1  0.3422214126840  0.4209203024462  0.7909576251307 1.0
C      1  0.5398150575660  0.3849053147948  0.5846217081953 1.0
C      1  0.4554401920386  0.7293483100980  0.7680164524864 1.0
C      1  0.5299274522930  0.4981556287149  0.3545826190991 1.0
C      1  0.7338252803023  0.8262630091882  0.2811687088270 1.0
C      1  0.3289017446638  0.7854752071906  0.4543437916496 1.0
C      1  0.2505485728628  0.4214091438377  0.7637266194193 1.0
C      1  0.5481948077560  0.4682566661007  0.5320471281451 1.0
C      1  0.2480500139824  0.5360904664139  0.5368029095485 1.0
C      1  0.8800732247240  0.3313337426844  0.4520359443294 1.0
C      1  0.1495502750349  0.5126042326208  0.5502463497572 1.0
C      1  0.5527712165720  0.4432436880582  0.4356512323018 1.0
C      1  0.3984967808855  0.5711564933435  0.5778441591317 1.0
C      1  0.7662010714425  0.7036781303803  0.3950994818767 1.0
C      1  0.2961851587795  0.6746447235355  0.7409135322223 1.0
C      1  0.5461937036708  0.1986321028965  0.3050498356843 1.0
C      1  0.6443933278045  0.1972531176998  0.5262680071858 1.0
C      1  0.1574701209951  0.4606962054188  0.3887644136515 1.0
C      1  0.4112132469686  0.4829945649106  0.7991655333604 1.0
C      1  0.2714480645459  0.1988963759187  0.4061933600592 1.0
C      1  0.7201519048515  0.4699880920325  0.1922744620798 1.0
C      1  0.7821919423320  0.5515289197108  0.5462536463863 1.0
C      1  0.4178691603994  0.3375899981625  0.6672399963903 1.0
C      1  0.4712275568810  0.7630668206375  0.5092171868173 1.0
C      1  0.2855232024321  0.5920441988224  0.4625336735923 1.0
C      1  0.6433118792082  0.7704118016604  0.5241338409313 1.0
C      1  0.2434889615632  0.6009308700466  0.3795016465301 1.0
C      1  0.5699963987786  0.6076815849775  0.8040161673039 1.0
C      1  0.6004179351613  0.7502833229895  0.1899729837646 1.0
C      1  0.7121296334918  0.3227419657239  0.6261133460975 1.0
C      1  0.1674561197322  0.3017504054153  0.5818137830397 1.0
C      1  0.4775641902502  0.4174909660779  0.6600023353419 1.0
END
