TITL C-319720-4437-4 -1.918 3375.00 -320.61414851 0 0 40 (C1) n - 1
REM
REM Run started: at 2020.10.20 01:48:20 in /rds/project/t2_vol4/rds-t2-cs072/BORA/CARBON/AIRSS/Generating-Clusters/Str-Search
REM VASP from code version vasp.5.4.4.18Apr17-6-g9f103f2a35 (build Oct 11 2019 16:45:47) gamma-only
REM
REM
REM
REM
REM ./C.cell (8c8f32957ea4b25f9ffc41644e092d35)
REM AIRSS Version 0.9.1 bugfix July 2018 build 013d7b7c2542+ Fri, 06 Jul 2018 19:26:36 +0100
REM compiler GCC version 4.8.5 20150623 (Red Hat 4.8.5-39)
REM options -cpp -mtune=generic -march=x86-64 -g -O0
REM seed 1755801792 658225255 1746894981 -167799596 824627966 261692920 -1685613739 -767637535 -1040205531 -1880254633 -190792507 -1796824337
REM
REM C.POTCAR (d86ddea03c3ceb6dc662c8ad6801f873)
REM 
CELL 1.54180   15.00000   15.00000   15.00000   90.00000   90.00000   90.00000
LATT -1
SFAC C  
C      1  0.5297969570880  0.3966310568879  0.6572975169048 1.0
C      1  0.6185407600597  0.4688905006395  0.3233887967500 1.0
C      1  0.4139380597240  0.5111981697693  0.6869370100273 1.0
C      1  0.4685504510590  0.6059093648740  0.3216624848801 1.0
C      1  0.4628791400483  0.7017629809061  0.4570971821110 1.0
C      1  0.3499201349642  0.5885260912368  0.4282393342730 1.0
C      1  0.5093389779816  0.6690033529190  0.3737876344354 1.0
C      1  0.4147822061315  0.3082990199477  0.4619466327142 1.0
C      1  0.6583415499446  0.6022999985405  0.4323293147698 1.0
C      1  0.4990559150883  0.3021833015546  0.5151999995745 1.0
C      1  0.5673840363262  0.6830217768053  0.5878071531048 1.0
C      1  0.6806187795096  0.4367931496047  0.3910017037055 1.0
C      1  0.4445808436651  0.4544960195487  0.3719654925933 1.0
C      1  0.5291171410268  0.4852017601042  0.5227032901439 1.0
C      1  0.4540920732989  0.4668780715202  0.4777483579159 1.0
C      1  0.6460169584879  0.3934066463339  0.4679149812121 1.0
C      1  0.6289844206145  0.4705658839562  0.5304113653347 1.0
C      1  0.4061097016004  0.3524708015630  0.6525392705142 1.0
C      1  0.4203180071555  0.5929366485175  0.6405806112155 1.0
C      1  0.6383034080376  0.6136275191273  0.5964604233261 1.0
C      1  0.3398743493803  0.3510485007442  0.5036051865557 1.0
C      1  0.4435239713652  0.4295969311072  0.7027384777985 1.0
C      1  0.4351702185133  0.3446899993860  0.3775801304582 1.0
C      1  0.3575836240870  0.4503598434943  0.5176951225445 1.0
C      1  0.4029838520328  0.5494288998927  0.3582904280551 1.0
C      1  0.5297408435473  0.3447745835523  0.3668657426040 1.0
C      1  0.3848713335849  0.6626412059810  0.4818557583423 1.0
C      1  0.5725336442658  0.4720325130501  0.6154361328155 1.0
C      1  0.3226924645955  0.5414801343038  0.5093661402817 1.0
C      1  0.5731050224609  0.3297245520718  0.4535851659557 1.0
C      1  0.5102245381004  0.6301311999810  0.6484211974867 1.0
C      1  0.6691262044324  0.5311086824608  0.3733815530128 1.0
C      1  0.5345342460549  0.4326988880554  0.3283074945718 1.0
C      1  0.5486009131037  0.7107510521512  0.5024999328847 1.0
C      1  0.4902477217098  0.3230518892639  0.6093072006423 1.0
C      1  0.3410663029840  0.3790538469894  0.5888372206192 1.0
C      1  0.5807475111600  0.5630248134393  0.6547761191069 1.0
C      1  0.6671255494291  0.5656137170088  0.5225700342087 1.0
C      1  0.5941281142498  0.6738107886785  0.4225571727157 1.0
C      1  0.3614500531316  0.6108757440319  0.5653050338340 1.0
END
