TITL C-343440-4199-6 -10.198 3375.00 0 0 0 219 (C1) n - 1
REM
REM Run started: at 2020.03.12 07:03:37 in /rds/user/bk393/hpc-work/AIRSS.pl-DENE/CARBON/New-Try
REM VASP from code version vasp.5.4.4.18Apr17-6-g9f103f2a35 (build Oct 11 2019 16:45:47) gamma-only
REM
REM
REM
REM
REM ./C.cell (90889e035cd0f9d0e5f9cb6dd9eb5d52)
REM AIRSS Version 0.9.1 bugfix July 2018 build 013d7b7c2542+ Fri, 06 Jul 2018 19:26:36 +0100
REM compiler GCC version 4.8.5 20150623 (Red Hat 4.8.5-39)
REM options -cpp -mtune=generic -march=x86-64 -g -O0
REM seed 1554979535 -1630071965 1059553097 381689778 -46548864 -540622819 -1200528912 1215041059 -2060493525 784055634 1399948751 665923116
REM
REM C.POTCAR (d86ddea03c3ceb6dc662c8ad6801f873)
REM 
CELL 1.54180   15.00000   15.00000   15.00000   90.00000   90.00000   90.00000
LATT -1
SFAC C  
C      1  0.8035531385140  0.7958564913325  0.5151161252117 1.0
C      1  0.4420989332383  0.0950427636965  0.5278694878530 1.0
C      1  0.3721125128113  0.4654580323615  0.5384891280742 1.0
C      1  0.1969309645045  0.4697935762599  0.2325397450809 1.0
C      1  0.3226388070196  0.8757206899801  0.5618016550592 1.0
C      1  0.1249763565448  0.5824440199985  0.5015309651012 1.0
C      1  0.4130859895059  0.2882163040698  0.2183391489577 1.0
C      1  0.4257602436080  0.3515062366628  0.1470320770546 1.0
C      1  0.8468438183570  0.4863367099247  0.7465501810276 1.0
C      1  0.6093394386122  0.9515125721504  0.3644138833866 1.0
C      1  0.6796760346464  0.7179930037456  0.3348291373110 1.0
C      1  0.2462638728854  0.4320988506361  0.6534681530297 1.0
C      1  0.6809654070598  0.8763055909263  0.6060490415524 1.0
C      1  0.7302112612877  0.2681472577102  0.3748052250538 1.0
C      1  0.3523093605373  0.0767330664964  0.5548510684537 1.0
C      1  0.8793749372632  0.2166711911984  0.4630444542898 1.0
C      1  0.2775993293177  0.0995902519677  0.6101538387207 1.0
C      1  0.5474149348153  0.3076456257582  0.6458488956303 1.0
C      1  0.4537893848246  0.6641151460047  0.4168731391491 1.0
C      1  0.7258634138997  0.8235062482779  0.6745001480056 1.0
C      1  0.2072144554276  0.6053987105417  0.1377212847199 1.0
C      1  0.4722652259422  0.4521896652907  0.8991713435792 1.0
C      1  0.3474248103842  0.4109309906610  0.3065730334426 1.0
C      1  0.1955877584521  0.1834612312496  0.3944137552283 1.0
C      1  0.8562927293852  0.5148232055917  0.4817332855555 1.0
C      1  0.7017131617719  0.1972665666344  0.3117274869641 1.0
C      1  0.6201855733662  0.2521072763306  0.4993978854924 1.0
C      1  0.8403135580360  0.5691676043368  0.6222858069819 1.0
C      1  0.3551023415013  0.6072867983659  0.7963612955119 1.0
C      1  0.4883646191893  0.4627278136819  0.6864439645747 1.0
C      1  0.5541765405806  0.8894038783345  0.3121143884290 1.0
C      1  0.2795848750555  0.8094925199777  0.3957861542738 1.0
C      1  0.8720983936732  0.4089477502524  0.7247316205758 1.0
C      1  0.4991959152517  0.8282748795800  0.7007044445404 1.0
C      1  0.3923767496136  0.8823841969333  0.4368411796688 1.0
C      1  0.6533333530426  0.5268433994857  0.6619645480721 1.0
C      1  0.8672126592106  0.6041950144990  0.3139409508865 1.0
C      1  0.8576542362227  0.6679402750816  0.1580103581377 1.0
C      1  0.6914770805497  0.2829845807138  0.5756327028836 1.0
C      1  0.6769775481610  0.5153579135036  0.5649022612192 1.0
C      1  0.2411402515459  0.1201064679095  0.4522099480486 1.0
C      1  0.5814039632001  0.7671488513426  0.7143931285311 1.0
C      1  0.8069972092432  0.2867365102898  0.4338715847510 1.0
C      1  0.5574441754779  0.2321662864032  0.2537504061045 1.0
C      1  0.4305036366098  0.5984342027305  0.7240774577907 1.0
C      1  0.3717289179772  0.4493895831531  0.8868538966082 1.0
C      1  0.4037528394144  0.6650397613159  0.8619274498719 1.0
C      1  0.2371141200914  0.6848241635248  0.1817359969838 1.0
C      1  0.5950666389350  0.8385175231696  0.5685514402006 1.0
C      1  0.4510567130154  0.6785219078467  0.3185658588359 1.0
C      1  0.4652933668870  0.6531131065626  0.0174841290890 1.0
C      1  0.5134407938720  0.8262086534187  0.2727708353939 1.0
C      1  0.5946355883026  0.1170592384903  0.6188803579251 1.0
C      1  0.8945040003521  0.6558819191313  0.5800784095893 1.0
C      1  0.7649215872336  0.6387092824555  0.1438685828816 1.0
C      1  0.2037832048431  0.2188249003063  0.3073819190968 1.0
C      1  0.4296801946340  0.7378523548225  0.0344973966022 1.0
C      1  0.5294634706293  0.2546795346976  0.5528041021690 1.0
C      1  0.4382561878992  0.7514384811645  0.8368875294158 1.0
C      1  0.3052669266333  0.4553752735007  0.2307775045408 1.0
C      1  0.2438869623526  0.2502161828127  0.7781495724108 1.0
C      1  0.6405238866491  0.2928385571299  0.7918223147893 1.0
C      1  0.5540342126595  0.5459400204865  0.6639613194799 1.0
C      1  0.6642259172107  0.4926723135616  0.4112673278902 1.0
C      1  0.2698396449494  0.5016531901596  0.5773234417456 1.0
C      1  0.3008281442607  0.8770776656542  0.4705017393370 1.0
C      1  0.8491042325668  0.6962230068152  0.3131116458729 1.0
C      1  0.7399727428923  0.2691497598381  0.2740928627144 1.0
C      1  0.5299185231057  0.5430774940040  0.5010921833260 1.0
C      1  0.2233392233806  0.7368245415181  0.3585720684027 1.0
C      1  0.1301064009445  0.3893453070439  0.3551623806832 1.0
C      1  0.6295104257115  0.5604831484737  0.4830851874767 1.0
C      1  0.7740125818174  0.7596867919365  0.3435455225238 1.0
C      1  0.6706524580227  0.1393319915848  0.6428297383529 1.0
C      1  0.4272688110144  0.7623727017813  0.5251524287765 1.0
C      1  0.6891507786378  0.3561122787356  0.1404038137086 1.0
C      1  0.7609913026301  0.3306314808866  0.5191024081726 1.0
C      1  0.1634487501211  0.3764692286114  0.2678929197827 1.0
C      1  0.6767900414478  0.6724553281150  0.7745018099740 1.0
C      1  0.6110605258741  0.1743179526449  0.3078306458047 1.0
C      1  0.3626166392027  0.4229569437289  0.1518159143320 1.0
C      1  0.8503493213903  0.3413227972809  0.6690749442769 1.0
C      1  0.3696188289360  0.5097562628281  0.1751530860274 1.0
C      1  0.3402249533581  0.8204418314538  0.7168195892734 1.0
C      1  0.3745243591719  0.8270024811345  0.3614975698258 1.0
C      1  0.1535767263120  0.2446388262810  0.4542454854277 1.0
C      1  0.6473700540769  0.3183551320989  0.4201554396975 1.0
C      1  0.4705098110444  0.3731371056222  0.6459186213397 1.0
C      1  0.4706157965459  0.1073304201579  0.3602200699662 1.0
C      1  0.5743283550152  0.6844643320348  0.7714125524242 1.0
C      1  0.4885472241579  0.5077579100032  0.3505454288251 1.0
C      1  0.6431272050518  0.6519990421056  0.2854688889700 1.0
C      1  0.3745268248024  0.5038461307241  0.4494279980225 1.0
C      1  0.8617235582064  0.5844346490242  0.2179819893502 1.0
C      1  0.5130338293310  0.7294856243404  0.4852116951951 1.0
C      1  0.3880505855397  0.3293533288722  0.6836152834300 1.0
C      1  0.4220679425210  0.8606876789798  0.5421306414946 1.0
C      1  0.5841987201680  0.5365713111336  0.8189409980948 1.0
C      1  0.5757832048438  0.4030048470294  0.2023520508175 1.0
C      1  0.7643602811632  0.8392225150942  0.5876372391477 1.0
C      1  0.2666410320209  0.1061132940388  0.7005729220337 1.0
C      1  0.8755798311356  0.4177515816634  0.4896179534897 1.0
C      1  0.3784996654611  0.7789156184413  0.2015304536058 1.0
C      1  0.2806647241511  0.7220802689646  0.6113323336783 1.0
C      1  0.5913626495530  0.3617111638668  0.3504017161523 1.0
C      1  0.2833850686235  0.4603895253946  0.4892897041511 1.0
C      1  0.4551172892244  0.4012315460431  0.5506389647916 1.0
C      1  0.6523889603324  0.4329686972084  0.6998238374550 1.0
C      1  0.2944693142297  0.3193774141489  0.5373506031783 1.0
C      1  0.6148505814226  0.4434745911767  0.7826217746770 1.0
C      1  0.5170573133308  0.6010968804396  0.5892854302027 1.0
C      1  0.3116577619811  0.3584677869928  0.8938788927846 1.0
C      1  0.4293922402932  0.7765577903251  0.2889030059793 1.0
C      1  0.8362494688362  0.8084343338000  0.2753972958654 1.0
C      1  0.3963855728125  0.3058442920838  0.7717427635808 1.0
C      1  0.7535092577403  0.6437879714380  0.5231192983095 1.0
C      1  0.1315657115439  0.6761546688508  0.4803000773388 1.0
C      1  0.7214495193595  0.2218369832715  0.6525834723100 1.0
C      1  0.1513310580789  0.5330314222747  0.3051198319141 1.0
C      1  0.7117677273637  0.5850287245491  0.7306517346264 1.0
C      1  0.4681902707695  0.2098540306572  0.2381864453861 1.0
C      1  0.4207596242232  0.5005833712199  0.7299339494739 1.0
C      1  0.1530903769604  0.6249484003179  0.3137475563645 1.0
C      1  0.8089190261769  0.5617112757521  0.7143466670305 1.0
C      1  0.6618037250320  0.7423470201675  0.4340055976581 1.0
C      1  0.5200735266513  0.3711443660304  0.8725561385681 1.0
C      1  0.4058150151126  0.4394160607812  0.3799145419502 1.0
C      1  0.5833298683523  0.7530943069016  0.6181451933701 1.0
C      1  0.7788502938174  0.4171733065166  0.2626972425930 1.0
C      1  0.5335794685773  0.5966974446668  0.7471853415711 1.0
C      1  0.6351611485716  0.3606805204277  0.6244853815558 1.0
C      1  0.5182047415675  0.7022363754526  0.8546442745430 1.0
C      1  0.7492617870865  0.3407064762146  0.2143581293452 1.0
C      1  0.6590658656196  0.6588017353077  0.4965801968040 1.0
C      1  0.3813371862764  0.3256983485766  0.3015848025699 1.0
C      1  0.8569922818467  0.3730761161528  0.4096113774879 1.0
C      1  0.2831598373967  0.7137806458682  0.4444355894907 1.0
C      1  0.8251520055656  0.7036345102314  0.5333766977110 1.0
C      1  0.1659218619990  0.6153747531496  0.6512883886526 1.0
C      1  0.2247080183359  0.6901262862529  0.5245296309120 1.0
C      1  0.1108642704042  0.4796095997607  0.3748146542714 1.0
C      1  0.4402107217970  0.5748598213229  0.1742883939354 1.0
C      1  0.6852643663494  0.3967809251098  0.4706056439394 1.0
C      1  0.7167535929548  0.2676315898819  0.7455768362065 1.0
C      1  0.3071566396615  0.7431992198316  0.1589431523847 1.0
C      1  0.6185480657461  0.4902440728811  0.2509659451288 1.0
C      1  0.5863487065683  0.5895992304571  0.2546411148094 1.0
C      1  0.4313113403647  0.6298778861905  0.6277626286265 1.0
C      1  0.8927489536114  0.2606652890797  0.5333301747301 1.0
C      1  0.1917061685507  0.2867422312755  0.2606307232872 1.0
C      1  0.1996079530050  0.5458632182359  0.7640562298729 1.0
C      1  0.5279908317288  0.1438535733540  0.5499242507437 1.0
C      1  0.3760906103578  0.6898313671894  0.5779132766016 1.0
C      1  0.8533137340559  0.7359373145075  0.2211616616239 1.0
C      1  0.0935966424101  0.5124031831176  0.4582218413931 1.0
C      1  0.5172633438532  0.5341899740294  0.8942144303452 1.0
C      1  0.4866366795858  0.3127853018475  0.8061147126575 1.0
C      1  0.3246022826783  0.0806512866490  0.4585996862493 1.0
C      1  0.5348790922655  0.4506472011463  0.5241777668701 1.0
C      1  0.5873414750355  0.4633646504893  0.3471727434913 1.0
C      1  0.5015754336805  0.8620877271287  0.6091600151465 1.0
C      1  0.4280059649010  0.1361757640707  0.2822715330120 1.0
C      1  0.3478033095314  0.4957519745288  0.7964835363087 1.0
C      1  0.2519234013696  0.1610049734179  0.7617033191564 1.0
C      1  0.9097433704262  0.5692447087631  0.5542091480520 1.0
C      1  0.2595587354454  0.4763925187489  0.7490456161140 1.0
C      1  0.6281387532110  0.4248137290485  0.5473532890691 1.0
C      1  0.7961652102062  0.2674761091622  0.7007961309050 1.0
C      1  0.2347700113367  0.3746523816602  0.4796535512891 1.0
C      1  0.1617508055399  0.2193958338010  0.5472432767449 1.0
C      1  0.7228162728268  0.4996407713255  0.2535469421318 1.0
C      1  0.3875082222554  0.7620401325178  0.1092062366637 1.0
C      1  0.6881457067639  0.4321775538121  0.9015527360763 1.0
C      1  0.6831854566920  0.7715564143416  0.7383385266979 1.0
C      1  0.7517660832155  0.7874636750520  0.4340240733769 1.0
C      1  0.2395170531184  0.6702773817320  0.6862045920058 1.0
C      1  0.5866605217555  0.1602042064413  0.4682835507422 1.0
C      1  0.5704849423849  0.6810782054566  0.5573645378366 1.0
C      1  0.4625974170368  0.5655710420942  0.4305881007075 1.0
C      1  0.4181986830668  0.0839823012813  0.4338834895665 1.0
C      1  0.6067750585967  0.3538275407885  0.1106664666696 1.0
C      1  0.2179888113089  0.2938222811719  0.6934265699024 1.0
C      1  0.4854175028471  0.5961644744806  0.2670174855176 1.0
C      1  0.1528679732273  0.2806042785052  0.6215325789274 1.0
C      1  0.7365501015380  0.5253981938579  0.3531802507905 1.0
C      1  0.3148363397861  0.4163500343202  0.9613267911505 1.0
C      1  0.3742205780695  0.6967994627270  0.4712852474821 1.0
C      1  0.3002829262915  0.3366375817010  0.6396785656009 1.0
C      1  0.2643945440362  0.6276795189063  0.7624260594596 1.0
C      1  0.5835614904359  0.8032427120958  0.4672803517247 1.0
C      1  0.1640663787877  0.3396395549934  0.4332532800388 1.0
C      1  0.4218198665696  0.8077298328037  0.7577076249437 1.0
C      1  0.2136272146184  0.6859197210514  0.2713910357272 1.0
C      1  0.6216638418165  0.3728631832779  0.8547597570285 1.0
C      1  0.1262831129687  0.5508147296335  0.7042823484931 1.0
C      1  0.7729436837367  0.5492924067451  0.5478358440198 1.0
C      1  0.8351295063046  0.4312676332958  0.3386695727054 1.0
C      1  0.8560038295040  0.3469367419033  0.5665199859384 1.0
C      1  0.5566341119552  0.2807702562746  0.7476961430011 1.0
C      1  0.1646587779008  0.3679875681434  0.6550712529532 1.0
C      1  0.3157015397529  0.2974908958753  0.8262795474571 1.0
C      1  0.4115106105956  0.3337294120551  0.4043079411167 1.0
C      1  0.2984077571981  0.8200444820650  0.6379981951581 1.0
C      1  0.2141119111140  0.1386028336950  0.5459916353304 1.0
C      1  0.1404810696863  0.6883020050259  0.3893973121878 1.0
C      1  0.5802816319481  0.8794290613297  0.4071299942640 1.0
C      1  0.7747414159028  0.5550427252758  0.1884610235445 1.0
C      1  0.1784726613847  0.5295634329054  0.1553435715417 1.0
C      1  0.4826008741187  0.6278358900704  0.9180814440631 1.0
C      1  0.3636345808567  0.2937792204174  0.4845436768424 1.0
C      1  0.6809304368371  0.5773231071113  0.8274811404656 1.0
C      1  0.5187804380008  0.3806480511962  0.1211474223711 1.0
C      1  0.5639962913826  0.1350621694817  0.3815961865805 1.0
C      1  0.7166858339699  0.5103125800308  0.8930072257731 1.0
C      1  0.4569506354580  0.3079212064183  0.5006100756528 1.0
C      1  0.5751514434313  0.3291597920559  0.2677856948730 1.0
C      1  0.4672983591201  0.6003614131681  0.0926025989385 1.0
C      1  0.2048215229610  0.5882306029959  0.5638605467116 1.0
C      1  0.8338308348471  0.5297957516300  0.3766063767875 1.0
END
