TITL C-343440-4199-2 -12.592 3375.00 0 0 0 289 (C1) n - 1
REM
REM Run started: at 2020.03.11 19:19:45 in /rds/user/bk393/hpc-work/AIRSS.pl-DENE/CARBON/New-Try
REM VASP from code version vasp.5.4.4.18Apr17-6-g9f103f2a35 (build Oct 11 2019 16:45:47) gamma-only
REM
REM
REM
REM
REM ./C.cell (90889e035cd0f9d0e5f9cb6dd9eb5d52)
REM AIRSS Version 0.9.1 bugfix July 2018 build 013d7b7c2542+ Fri, 06 Jul 2018 19:26:36 +0100
REM compiler GCC version 4.8.5 20150623 (Red Hat 4.8.5-39)
REM options -cpp -mtune=generic -march=x86-64 -g -O0
REM seed -760419797 1923724258 -1150648856 437570567 1450864255 2074078 -591850809 -1202125536 476601514 1015308585 587839928 1833296148
REM
REM C.POTCAR (d86ddea03c3ceb6dc662c8ad6801f873)
REM 
CELL 1.54180   15.00000   15.00000   15.00000   90.00000   90.00000   90.00000
LATT -1
SFAC C  
C      1  0.6813228545281  0.5764011691909  0.7946214422642 1.0
C      1  0.4481134968577  0.4744110688749  0.6586225292736 1.0
C      1  0.5220586890490  0.2451388234858  0.3323453298702 1.0
C      1  0.5388405303761  0.4397695901775  0.2721154812414 1.0
C      1  0.7488610326843  0.8829228013907  0.5498372008205 1.0
C      1  0.7016922621584  0.9542006292904  0.5589792455983 1.0
C      1  0.3012926062834  0.4103762129742  0.7209303718333 1.0
C      1  0.7164522765235  0.5782837718082  0.6228473628721 1.0
C      1  0.4225349818461  0.7435898793842  0.7002202710458 1.0
C      1  0.5567473613286  0.7127662913020  0.3485496123552 1.0
C      1  0.1791715711753  0.2752738744352  0.5894849977802 1.0
C      1  0.7590996497561  0.7124658039196  0.7067549327829 1.0
C      1  0.8506759237909  0.4262331007977  0.8541202587464 1.0
C      1  0.5291712815614  0.3642084864567  0.9388954170715 1.0
C      1  0.1206448885469  0.7657113191607  0.4725785065307 1.0
C      1  0.0663459429625  0.5955871043976  0.5254337204221 1.0
C      1  0.4947758422943  0.9246914511937  0.7025403475943 1.0
C      1  0.3244053303440  0.4476279394177  0.8092200001314 1.0
C      1  0.4878582276923  0.7397632055218  0.1073064992572 1.0
C      1  0.6407243423116  0.7121131283362  0.3047333690160 1.0
C      1  0.4524788540164  0.2437056458189  0.6363963903250 1.0
C      1  0.4441808094825  0.8736398380602  0.3434254935713 1.0
C      1  0.2748799537931  0.7341801718643  0.1411165011395 1.0
C      1  0.2053182063006  0.0482911579103  0.5845566915883 1.0
C      1  0.3256134513641  0.4085599075926  0.1664900552290 1.0
C      1  0.6178999047629  0.6016929541092  0.0877845654011 1.0
C      1  0.6972113669920  0.1909457470144  0.5269539437895 1.0
C      1  0.4845129926239  0.6945000679211  0.5820288860215 1.0
C      1  0.2960953532392  0.3784252119070  0.5347627665858 1.0
C      1  0.3078721372415  0.2303322815016  0.8070629029495 1.0
C      1  0.8005646420211  0.2495991718979  0.4225040558941 1.0
C      1  0.0959035108856  0.5182461895672  0.5899827538169 1.0
C      1  0.5306238715781  0.3783699088960  0.5017110951234 1.0
C      1  0.3985721309273  0.5679569896268  0.6814747910514 1.0
C      1  0.4244773255561  0.3341383530695  0.6123047452146 1.0
C      1  0.3976306108205  0.8950221349054  0.4320731955183 1.0
C      1  0.4339422937467  0.0887406328801  0.2518011257754 1.0
C      1  0.7746675749033  0.5377865051200  0.2497721106588 1.0
C      1  0.1414339765344  0.5100218850526  0.2590695886336 1.0
C      1  0.7832885122352  0.1903047101007  0.7508441686099 1.0
C      1  0.2996380424161  0.8785885887592  0.4382977065626 1.0
C      1  0.4009437335950  0.8182899846326  0.2882953477926 1.0
C      1  0.2920370146210  0.6898750046008  0.3224815968710 1.0
C      1  0.0609550614263  0.3579222304567  0.7457143683175 1.0
C      1  0.6547195592251  0.4416278515208  0.6520932683948 1.0
C      1  0.7923613225009  0.5334498797810  0.3531395704049 1.0
C      1  0.1475736208994  0.6912699392267  0.7520090997119 1.0
C      1  0.8829302663216  0.3809883148150  0.3694324815204 1.0
C      1  0.4560345937276  0.0030569153679  0.5474667324384 1.0
C      1  0.6121097364899  0.4043424577177  0.9054124112452 1.0
C      1  0.2215709012292  0.5809196675157  0.4185180336562 1.0
C      1  0.4214954122522  0.5455292648336  0.1843737954250 1.0
C      1  0.7394040896996  0.3198376117352  0.4558466592829 1.0
C      1  0.5773523267264  0.6585886980503  0.6905503573126 1.0
C      1  0.6837546765683  0.3951159939992  0.8357125244691 1.0
C      1  0.5242646001047  0.3083139650093  0.7762347878294 1.0
C      1  0.5224294098973  0.6236360816339  0.3064262886002 1.0
C      1  0.2562139951328  0.2183437901872  0.4469738301937 1.0
C      1  0.2957929434029  0.6573291784280  0.0922339254287 1.0
C      1  0.3368320216784  0.4683409292879  0.4043131883589 1.0
C      1  0.5461964591841  0.6157970426871  0.0205425087208 1.0
C      1  0.2158198324993  0.9617973247561  0.5737497976130 1.0
C      1  0.2513070971421  0.3672559682858  0.0159999042806 1.0
C      1  0.2801174227552  0.6512905113239  0.8768097556800 1.0
C      1  0.7036352973057  0.7196846526297  0.8472194572196 1.0
C      1  0.3914450949079  0.0790565036207  0.4103263896598 1.0
C      1  0.5367950592149  0.2211642698353  0.5923691481900 1.0
C      1  0.5876070745005  0.8299685490059  0.4523058574375 1.0
C      1  0.8729468836767  0.5328841141349  0.6003224182885 1.0
C      1  0.4345257088060  0.6001269546831  0.2587758114730 1.0
C      1  0.6296637260301  0.8360047252299  0.7729846331987 1.0
C      1  0.2578109320240  0.4582605288423  0.3406838117196 1.0
C      1  0.6106372805289  0.2699728585277  0.3326455065387 1.0
C      1  0.1715371919849  0.5068399082299  0.3659937550047 1.0
C      1  0.4060323690850  0.3932526317898  0.3743850667664 1.0
C      1  0.1556840271408  0.2727912337128  0.2436883862421 1.0
C      1  0.5476327109994  0.5580987001646  0.3810952398715 1.0
C      1  0.3730053257072  0.6519541144433  0.0255190115489 1.0
C      1  0.1496237099044  0.8060258423324  0.5577848507219 1.0
C      1  0.1032150650167  0.6776628569159  0.5138202254736 1.0
C      1  0.5332044988419  0.0059519296572  0.3619790434366 1.0
C      1  0.7650519153698  0.4263392427916  0.8925946592946 1.0
C      1  0.5360019293402  0.2279642550949  0.8343641237744 1.0
C      1  0.7609002519345  0.4145331924718  0.4587808876009 1.0
C      1  0.7505808367143  0.0895865660362  0.4154924564266 1.0
C      1  0.6922151344423  0.6447644074666  0.1253239443982 1.0
C      1  0.6881640741998  0.4756937466138  0.4817901966792 1.0
C      1  0.3465597255361  0.2152092371712  0.5091425761439 1.0
C      1  0.9215030850076  0.2841084334589  0.6501111576910 1.0
C      1  0.7856831076942  0.5052347328611  0.0319519555809 1.0
C      1  0.3276164835314  0.5103433712767  0.1738517640100 1.0
C      1  0.1715882216889  0.8812440737118  0.6109909631184 1.0
C      1  0.7151375305695  0.5622921952537  0.4181811351528 1.0
C      1  0.3814009749827  0.1809800257505  0.7625722914148 1.0
C      1  0.4655303527737  0.6671829461527  0.0468268324974 1.0
C      1  0.3470812132449  0.1201515874323  0.2553825866117 1.0
C      1  0.3623876619099  0.6192664831804  0.4836969156476 1.0
C      1  0.2338020070361  0.2259181243698  0.2876712830840 1.0
C      1  0.5350098327557  0.7564989636524  0.4314661241897 1.0
C      1  0.1706383867425  0.5986082323678  0.7722219093896 1.0
C      1  0.2196744865348  0.6775214086767  0.3797952707097 1.0
C      1  0.6072637483418  0.4133384166705  0.4351023807308 1.0
C      1  0.5233288566350  0.5588797718361  0.4723905114916 1.0
C      1  0.6770262693046  0.6324695997087  0.7023475590533 1.0
C      1  0.4599737611473  0.0570800604621  0.3393453818825 1.0
C      1  0.2958984503085  0.2173180488187  0.0362865331698 1.0
C      1  0.4118695093440  0.4675371740151  0.9843583107888 1.0
C      1  0.6482183890534  0.7928511279140  0.1247034005871 1.0
C      1  0.5575994460749  0.2957777117502  0.1890693039945 1.0
C      1  0.2082756418851  0.3709488577221  0.3639740888135 1.0
C      1  0.4978736039593  0.1402083186008  0.1979388360255 1.0
C      1  0.4741320216100  0.8130823568611  0.8215979472808 1.0
C      1  0.6242749754281  0.1787065932681  0.8242955253419 1.0
C      1  0.6018361627861  0.1995030440397  0.6678835376001 1.0
C      1  0.3176542843777  0.7246617749407  0.8233954406821 1.0
C      1  0.5356443248351  0.9150162406381  0.3357409457421 1.0
C      1  0.8753885996323  0.4855482592239  0.7880875541231 1.0
C      1  0.5663707049449  0.7934524302184  0.8356926454812 1.0
C      1  0.6588936475021  0.2756420360446  0.5001005505114 1.0
C      1  0.9231196856239  0.4724263621551  0.2404312064192 1.0
C      1  0.6941376159337  0.5794631738511  0.2056643473096 1.0
C      1  0.2330470473888  0.5231783019479  0.5196359509241 1.0
C      1  0.5394074910793  0.0551744427207  0.5266945741170 1.0
C      1  0.5664808519236  0.3051222870077  0.0935100768069 1.0
C      1  0.4818091254523  0.4904228136161  0.1340644275448 1.0
C      1  0.9397808799891  0.3843018030354  0.2732315525705 1.0
C      1  0.8830908728299  0.7073586377370  0.4756812531554 1.0
C      1  0.8825799392632  0.5677699918453  0.3701837670858 1.0
C      1  0.8913681814905  0.2994166383441  0.2736669818405 1.0
C      1  0.6944588879633  0.2369721431655  0.1747634358721 1.0
C      1  0.4488072775351  0.4143846374822  0.9097368263313 1.0
C      1  0.4437550042636  0.9487701050890  0.6199478603369 1.0
C      1  0.1597628339298  0.8564446686459  0.6993024414646 1.0
C      1  0.5960649712153  0.6082745524037  0.8499376396657 1.0
C      1  0.3852122044286  0.9924577154357  0.4784282887828 1.0
C      1  0.3309879043439  0.6683882769319  0.5583001420808 1.0
C      1  0.1348142972165  0.4263209056101  0.4337208019978 1.0
C      1  0.1601015651041  0.4553993930681  0.5329726277939 1.0
C      1  0.1118556799373  0.6695206655827  0.6698931561733 1.0
C      1  0.7556784262195  0.6384013746328  0.8401828795340 1.0
C      1  0.4185371069193  0.8315558749060  0.5143498754989 1.0
C      1  0.3880171800506  0.3696183803949  0.2189176046884 1.0
C      1  0.5744376142587  0.8334429875747  0.6247378739775 1.0
C      1  0.3731805977230  0.3171193462627  0.5252692909025 1.0
C      1  0.0179434845922  0.4135118856155  0.6904812035122 1.0
C      1  0.9582696544814  0.3435681960653  0.7241520671990 1.0
C      1  0.2834146535321  0.7816362396289  0.7573358191784 1.0
C      1  0.4864793381788  0.2397619435560  0.2369144259505 1.0
C      1  0.8417760101214  0.5587015159984  0.7404149083894 1.0
C      1  0.2196443168177  0.2463360476539  0.7642738551192 1.0
C      1  0.5502945119002  0.6265281457418  0.6016807379105 1.0
C      1  0.2037871967705  0.5641158825492  0.2139290430900 1.0
C      1  0.5614337840243  0.4739273558115  0.1852302842035 1.0
C      1  0.1209875257185  0.4217469514519  0.2277764933805 1.0
C      1  0.3990597425439  0.6644823974927  0.6353765028860 1.0
C      1  0.5628676270213  0.5539088266627  0.9393922702658 1.0
C      1  0.1750576716724  0.2511115529090  0.6843951397671 1.0
C      1  0.3873633619268  0.2750476911595  0.2481463969926 1.0
C      1  0.7389565269628  0.6478680443461  0.5595069427813 1.0
C      1  0.7075670664049  0.2201164389339  0.8046507385892 1.0
C      1  0.2282335555369  0.5788503596568  0.6055946195159 1.0
C      1  0.7347089304655  0.6500117843984  0.4705465601350 1.0
C      1  0.3682507825964  0.2966316279673  0.3482096065079 1.0
C      1  0.6573419752508  0.5089918568041  0.5770287355851 1.0
C      1  0.7109790240099  0.7785166885978  0.7718397328048 1.0
C      1  0.3938225352784  0.3918945944728  0.6884892093564 1.0
C      1  0.2200481202922  0.3913380652350  0.6873540926268 1.0
C      1  0.6479912340224  0.3183949773457  0.4100236789238 1.0
C      1  0.4633487979398  0.4366924536802  0.0624521434525 1.0
C      1  0.5240885931581  0.7503256278658  0.6573240779484 1.0
C      1  0.5644243184872  0.7794549627928  0.1087417991808 1.0
C      1  0.9480585051540  0.4891060205858  0.5568032811985 1.0
C      1  0.2443323711424  0.1575088498093  0.3657792539158 1.0
C      1  0.3274205185370  0.5709524775032  0.4028133536229 1.0
C      1  0.8151304572298  0.6472044344882  0.7672833086704 1.0
C      1  0.6437664795654  0.1460599172862  0.1119875138459 1.0
C      1  0.6379896008611  0.2793429500469  0.2387767683296 1.0
C      1  0.4664671478010  0.7538670286707  0.5030841921020 1.0
C      1  0.7656357702075  0.8819560671509  0.3726266606540 1.0
C      1  0.2534330337083  0.8281050321723  0.3793575195913 1.0
C      1  0.3003167266417  0.9330519631488  0.5256576648572 1.0
C      1  0.2572947616902  0.3485949140246  0.1207681099349 1.0
C      1  0.1582219879701  0.3307923156321  0.7433181231523 1.0
C      1  0.6102278849185  0.9720134898841  0.5319974010601 1.0
C      1  0.3204995342652  0.5110217134702  0.9667037606003 1.0
C      1  0.5870527896742  0.8880074491060  0.7043735682333 1.0
C      1  0.5895498464436  0.0249410738721  0.4422315051691 1.0
C      1  0.6818164889795  0.4730221855249  0.7605090832230 1.0
C      1  0.4176547590027  0.7310576278601  0.8068821852790 1.0
C      1  0.8251609367570  0.5009805627793  0.1037869569616 1.0
C      1  0.5874655780943  0.4695386810384  0.3523858866494 1.0
C      1  0.9558408410668  0.5170546250638  0.3239350604992 1.0
C      1  0.7712635490722  0.7978472469281  0.5399541960182 1.0
C      1  0.1824623815984  0.7632930368891  0.4028227875967 1.0
C      1  0.3442609873378  0.6076768446283  0.9406380523740 1.0
C      1  0.6959155922795  0.9380697990167  0.3737333965701 1.0
C      1  0.8707978199940  0.7255623681926  0.2287235268067 1.0
C      1  0.4438996071833  0.5872011848039  0.4893013521487 1.0
C      1  0.5918426287142  0.3666383469357  0.6386843203883 1.0
C      1  0.7472424348329  0.4362759849806  0.6864221618483 1.0
C      1  0.4494779979468  0.2524833040370  0.4006974186678 1.0
C      1  0.4754211661959  0.5300432051135  0.7359704199642 1.0
C      1  0.9136943973528  0.6134431054311  0.5844921957076 1.0
C      1  0.5820149508303  0.8750942719415  0.5388776568543 1.0
C      1  0.8654787830410  0.2849114582711  0.3630647562558 1.0
C      1  0.0400972457792  0.3845030620069  0.4336364859474 1.0
C      1  0.7333509294562  0.4838481468292  0.9577148072521 1.0
C      1  0.6041002176124  0.3026391096082  0.7143039873566 1.0
C      1  0.3855027729353  0.5322648463142  0.7816702377803 1.0
C      1  0.1442201798523  0.3537571337787  0.2905982262737 1.0
C      1  0.4277697309349  0.1705861093554  0.4630275683574 1.0
C      1  0.6861836552874  0.0305107234758  0.4012921839110 1.0
C      1  0.8421270011639  0.5038911523592  0.1960455249186 1.0
C      1  0.6879175423421  0.1703203225123  0.6175348930112 1.0
C      1  0.3105085458028  0.2098968632217  0.2174647812528 1.0
C      1  0.3154037322326  0.1050139913607  0.3459805891461 1.0
C      1  0.9327037592218  0.6861064784569  0.2667360927091 1.0
C      1  0.1709491079538  0.3494260398310  0.1798575266708 1.0
C      1  0.4615495089441  0.6502757191770  0.8259958687569 1.0
C      1  0.4723299571775  0.5130696820488  0.9163470142744 1.0
C      1  0.6365580733774  0.2400214416938  0.0868299560514 1.0
C      1  0.7883434600852  0.7244484046756  0.6063251487235 1.0
C      1  0.8261932326615  0.2585704682728  0.6791845581750 1.0
C      1  0.1883609315956  0.7826167717010  0.7456040361726 1.0
C      1  0.2677125968235  0.2874230141028  0.3700551867186 1.0
C      1  0.3843332346888  0.3714541937872  0.8486166801973 1.0
C      1  0.3066376573745  0.7868689660441  0.2985918121298 1.0
C      1  0.5849274073261  0.3082227678306  0.5550026603700 1.0
C      1  0.2255087357889  0.5780423794488  0.8447645878868 1.0
C      1  0.2843141848115  0.2892153034993  0.9704051212927 1.0
C      1  0.7845074611102  0.3471397291783  0.7192502595472 1.0
C      1  0.2324637743374  0.1311541920119  0.5770841639266 1.0
C      1  0.2405658224258  0.6669279010873  0.5860539702622 1.0
C      1  0.9289928518231  0.6272554280025  0.4327232208427 1.0
C      1  0.4522329923054  0.4104814675152  0.2861474949540 1.0
C      1  0.3036602561345  0.4575049907896  0.4949306862032 1.0
C      1  0.5002901558856  0.4049721697979  0.5992602401485 1.0
C      1  0.7961782468846  0.5210933494860  0.6575639776823 1.0
C      1  0.3804912383967  0.1816467630769  0.6635395687805 1.0
C      1  0.6111571080949  0.7112716991515  0.8679480233591 1.0
C      1  0.5625822414863  0.1140111465952  0.1432101231931 1.0
C      1  0.8710273058109  0.3825399851680  0.7695992713006 1.0
C      1  0.2618051872760  0.4850853830759  0.8788759715699 1.0
C      1  0.9590574391193  0.6213262968339  0.3324705859496 1.0
C      1  0.6260827555475  0.5285548304755  0.1522896079869 1.0
C      1  0.5208123817100  0.3610572146098  0.0359080496185 1.0
C      1  0.3258659256165  0.2928297131926  0.8823322463547 1.0
C      1  0.4482682455682  0.3420810137004  0.4538339309780 1.0
C      1  0.6343524029147  0.4826308999384  0.9513908668816 1.0
C      1  0.8798595118550  0.6982992689252  0.5684676954755 1.0
C      1  0.3216463870878  0.1684523366050  0.5960666791919 1.0
C      1  0.7720256592611  0.7933970412232  0.3722567903637 1.0
C      1  0.2652378003856  0.7844706388456  0.2065991706033 1.0
C      1  0.7711800419157  0.1746122052781  0.6622835057912 1.0
C      1  0.1536392647598  0.7145192535146  0.5940987083206 1.0
C      1  0.9598924153782  0.2944112969924  0.5665274952534 1.0
C      1  0.2880435192115  0.2458436549985  0.1219379144156 1.0
C      1  0.6314152858362  0.6178693666448  0.2761249217500 1.0
C      1  0.7911511419551  0.7425175260793  0.4536696584961 1.0
C      1  0.4420140768768  0.3503002252885  0.7687315585980 1.0
C      1  0.3715633302653  0.8795843159122  0.5966422760150 1.0
C      1  0.0048637065228  0.3311536310231  0.5021818102791 1.0
C      1  0.5759175994017  0.5574746010879  0.5527656465798 1.0
C      1  0.2602554610804  0.5780807069484  0.1344576858803 1.0
C      1  0.7650873381564  0.1688874930632  0.4573501588007 1.0
C      1  0.4375560777009  0.8763102005519  0.7596991137680 1.0
C      1  0.3636266967599  0.8272910720677  0.6999613889358 1.0
C      1  0.5633581761881  0.1500668588408  0.7527688532740 1.0
C      1  0.7789070567406  0.7461890884022  0.2161916358669 1.0
C      1  0.3444342077252  0.6055974191922  0.3086818901184 1.0
C      1  0.2856027955949  0.5311140682104  0.2641685166277 1.0
C      1  0.0166417578405  0.4675169492507  0.6144746858389 1.0
C      1  0.7248491238241  0.1475363769543  0.1716077696075 1.0
C      1  0.2446505065971  0.4504033517129  0.9710132041176 1.0
C      1  0.9772777172625  0.4180613187485  0.3647077463558 1.0
C      1  0.5109960147274  0.1518122241388  0.5256638933551 1.0
C      1  0.6971391031249  0.3157631494635  0.7753051747437 1.0
C      1  0.8104631832283  0.4411958222137  0.3888175772542 1.0
C      1  0.5297086944657  0.6096241375761  0.7696717241494 1.0
C      1  0.1959994177547  0.2115655033544  0.5267509431423 1.0
C      1  0.2088307002039  0.3738085867306  0.5870118087851 1.0
C      1  0.4719053466402  0.1648435022438  0.7939744222400 1.0
C      1  0.4148042150044  0.5803503241347  0.8710881911969 1.0
C      1  0.1460693635423  0.5727845495083  0.6661930592302 1.0
C      1  0.7295991728049  0.7524210506304  0.2950845574445 1.0
C      1  0.9736341725818  0.5777929452230  0.5093624302323 1.0
C      1  0.7188236108600  0.7352976428990  0.1383130981276 1.0
C      1  0.6406826092648  0.5570892528131  0.3551232447288 1.0
C      1  0.6140458726134  0.8825719142817  0.3759778702705 1.0
END
