TITL C-35313-7963-35 -3.809 3375.00 -644.46973622 0 0 80 (C1) n - 1
REM
REM Run started: at 2020.12.22 21:15:41 in /rds/project/t2_vol4/rds-t2-cs072/BORA/CARBON/AIRSS/Generating-Clusters/Str-Search/Only-C1/C10-100
REM VASP from code version vasp.5.4.4.18Apr17-6-g9f103f2a35 (build Oct 11 2019 16:45:47) gamma-only
REM
REM
REM
REM
REM ./C.cell (67c5d0192afd7a3ce4a0888e5fe73b87)
REM AIRSS Version 0.9.1 bugfix July 2018 build 013d7b7c2542+ Fri, 06 Jul 2018 19:26:36 +0100
REM compiler GCC version 4.8.5 20150623 (Red Hat 4.8.5-39)
REM options -cpp -mtune=generic -march=x86-64 -g -O0
REM seed -2085936213 -1699938674 1054175690 -1464444851 -546468974 -1506506094 -372827048 -466854853 1268021097 1905804426 610790234 -721043079
REM
REM C.POTCAR (d86ddea03c3ceb6dc662c8ad6801f873)
REM 
CELL 1.54180   15.00000   15.00000   15.00000   90.00000   90.00000   90.00000
LATT -1
SFAC C  
C      1  0.3231595508067  0.7454342107049  0.5026928524617 1.0
C      1  0.5366606964916  0.4073056329375  0.2952870845836 1.0
C      1  0.2598023963795  0.5776492504147  0.5305238324372 1.0
C      1  0.4613077501612  0.8133349357104  0.4807385937825 1.0
C      1  0.3087176440956  0.2860081837740  0.5449353336871 1.0
C      1  0.5494310785455  0.5461732606518  0.3859949421162 1.0
C      1  0.4234933102817  0.5206614208694  0.6110620144743 1.0
C      1  0.4629027155316  0.2373773696154  0.4760301726753 1.0
C      1  0.4800595457035  0.3460631871015  0.5917257957970 1.0
C      1  0.4887529519461  0.7136229257901  0.6889074520564 1.0
C      1  0.6168659955499  0.2719752019267  0.5883340928698 1.0
C      1  0.5279696966858  0.6186839494447  0.6980086658628 1.0
C      1  0.5461895370699  0.4684933387409  0.5948289702342 1.0
C      1  0.3877210798066  0.5781840543103  0.3390820917119 1.0
C      1  0.6906046846727  0.2760013468424  0.4560482309607 1.0
C      1  0.7056563235827  0.5769841154638  0.6559179189856 1.0
C      1  0.7055532706554  0.4962948878328  0.7025054099475 1.0
C      1  0.5437420188414  0.2620531371446  0.3145192789566 1.0
C      1  0.5290957372460  0.4454046330420  0.3884625116914 1.0
C      1  0.7491098353395  0.4862432658185  0.3477411685353 1.0
C      1  0.6267121313246  0.3366886280625  0.6559606001248 1.0
C      1  0.5033535668135  0.3863910695313  0.7556301112967 1.0
C      1  0.3425735879230  0.5746937851070  0.6594085011799 1.0
C      1  0.4545562674138  0.4370615957855  0.5506388563036 1.0
C      1  0.6069180057927  0.4729588008250  0.5168382868723 1.0
C      1  0.4889443805227  0.5430516259543  0.7563535084827 1.0
C      1  0.6737694656941  0.4899961070022  0.2909116722088 1.0
C      1  0.2754287734115  0.3749671135291  0.5526000234050 1.0
C      1  0.7672867192520  0.5508197345664  0.4068826108135 1.0
C      1  0.4035118605599  0.7914420038146  0.5568497052278 1.0
C      1  0.3026862007415  0.5406110096022  0.3624543398816 1.0
C      1  0.4513961037102  0.3261540787725  0.8113522903183 1.0
C      1  0.6255136242355  0.6333293322640  0.6711257565260 1.0
C      1  0.2673371997266  0.5243656464464  0.4531648216059 1.0
C      1  0.3422163786310  0.6661907929600  0.6303325732823 1.0
C      1  0.6880597035325  0.2420028407945  0.5319441830815 1.0
C      1  0.4454095693083  0.3749074458281  0.2653345301693 1.0
C      1  0.3467062292221  0.4255721115332  0.7088655407606 1.0
C      1  0.7319349949886  0.6465914027107  0.3995226708547 1.0
C      1  0.2843238167394  0.4314030084885  0.6295025742444 1.0
C      1  0.3738118399627  0.2517203028284  0.5047978437612 1.0
C      1  0.6525658053953  0.3413458492884  0.4019309519073 1.0
C      1  0.4098793146546  0.7316159969993  0.4684399721284 1.0
C      1  0.2761843512563  0.5244346412212  0.6100871796228 1.0
C      1  0.7572215548711  0.6078326775295  0.4824912244996 1.0
C      1  0.6795773461286  0.4019608814095  0.7063147078406 1.0
C      1  0.5598747007303  0.7869402677696  0.3497785087869 1.0
C      1  0.3077530841475  0.4542810702115  0.3155557121303 1.0
C      1  0.2874333323932  0.3821965846165  0.3756640535510 1.0
C      1  0.3933194415515  0.3614441969369  0.7536859187487 1.0
C      1  0.3846484554471  0.4468726587949  0.2546140805793 1.0
C      1  0.6290315138818  0.6657133885480  0.5817143255578 1.0
C      1  0.5280350924066  0.8248296853905  0.4186414607672 1.0
C      1  0.5852464965149  0.5531256063671  0.4773941481418 1.0
C      1  0.7166460542890  0.6163180753560  0.5664230914161 1.0
C      1  0.4143523943681  0.7294684027693  0.6374510540750 1.0
C      1  0.4847582794449  0.5939649373307  0.2188660977793 1.0
C      1  0.5209696639357  0.2732037949100  0.5508076770675 1.0
C      1  0.5460261512499  0.6250886815363  0.5315428558900 1.0
C      1  0.5098067250523  0.5670915783679  0.6099933541299 1.0
C      1  0.6135617729821  0.3309002214421  0.3098698813608 1.0
C      1  0.4522850741619  0.2825028857046  0.2991178576200 1.0
C      1  0.4633730662629  0.6005818392557  0.3952035402012 1.0
C      1  0.6065142448437  0.4097405449766  0.4427896139572 1.0
C      1  0.6161262160033  0.5749997010030  0.3097641881702 1.0
C      1  0.3994863459796  0.5135935249095  0.7117287535691 1.0
C      1  0.2706927116849  0.4252521033254  0.4660242233796 1.0
C      1  0.4454236595245  0.4314055634261  0.4499967650690 1.0
C      1  0.5385594044604  0.3823370303394  0.6600018669739 1.0
C      1  0.4802801735698  0.2388535319120  0.3818881844127 1.0
C      1  0.5966531774839  0.7159959953105  0.3015907990345 1.0
C      1  0.6244220555196  0.4173335531286  0.2569137565152 1.0
C      1  0.5447472139615  0.4732793594512  0.7818659412964 1.0
C      1  0.5537536895257  0.6381705433411  0.2547896272896 1.0
C      1  0.6639568495231  0.6581250594649  0.3400272017965 1.0
C      1  0.2906103938868  0.6688279667940  0.5516230176503 1.0
C      1  0.4694096751858  0.6552178080109  0.4673381702865 1.0
C      1  0.6398699265710  0.4644376633805  0.7645633038641 1.0
C      1  0.3659273672192  0.3969396144890  0.4251602370470 1.0
C      1  0.4217712850324  0.5389099704390  0.2545292816585 1.0
END
