TITL C-35313-7963-11 -3.463 3375.00 -570.34036550 0 0 72 (C1) n - 1
REM
REM Run started: at 2020.12.22 13:25:26 in /rds/project/t2_vol4/rds-t2-cs072/BORA/CARBON/AIRSS/Generating-Clusters/Str-Search/Only-C1/C10-100
REM VASP from code version vasp.5.4.4.18Apr17-6-g9f103f2a35 (build Oct 11 2019 16:45:47) gamma-only
REM
REM
REM
REM
REM ./C.cell (67c5d0192afd7a3ce4a0888e5fe73b87)
REM AIRSS Version 0.9.1 bugfix July 2018 build 013d7b7c2542+ Fri, 06 Jul 2018 19:26:36 +0100
REM compiler GCC version 4.8.5 20150623 (Red Hat 4.8.5-39)
REM options -cpp -mtune=generic -march=x86-64 -g -O0
REM seed 491139239 1490315062 1352830206 1341051496 753029999 -937633034 765845460 -488664813 193921940 1458476052 -1365864162 -207223097
REM
REM C.POTCAR (d86ddea03c3ceb6dc662c8ad6801f873)
REM 
CELL 1.54180   15.00000   15.00000   15.00000   90.00000   90.00000   90.00000
LATT -1
SFAC C  
C      1  0.5790444133567  0.2869236272743  0.5100513616431 1.0
C      1  0.6233380675670  0.5557838133262  0.6544597551280 1.0
C      1  0.4676743950896  0.4388985517344  0.5904765024551 1.0
C      1  0.4564662989807  0.4482825830195  0.4911911938298 1.0
C      1  0.4315913761528  0.4481918777613  0.7559946532325 1.0
C      1  0.5163199580890  0.6524066745176  0.4420040422559 1.0
C      1  0.5565648350797  0.3215154615696  0.7312258599173 1.0
C      1  0.7137257890149  0.5674565468519  0.5295752034450 1.0
C      1  0.6561645098876  0.3088887256452  0.5627557843485 1.0
C      1  0.4637488397587  0.7220253294902  0.3023237154343 1.0
C      1  0.3316954242852  0.3570305315021  0.6093966632533 1.0
C      1  0.2381836472918  0.5785188875877  0.4887255885888 1.0
C      1  0.5462607837389  0.4365313074265  0.2786503476016 1.0
C      1  0.4960017291975  0.3932477153075  0.4181339394653 1.0
C      1  0.3718456348059  0.2785651875533  0.5770484891860 1.0
C      1  0.4550145845694  0.2465311070548  0.6206305756469 1.0
C      1  0.3753749282239  0.2799670180801  0.4025497027474 1.0
C      1  0.3973455599411  0.4804793317675  0.3034676977858 1.0
C      1  0.3950450298596  0.7471517405700  0.4713625671710 1.0
C      1  0.4356986381554  0.3014141056253  0.3250539849195 1.0
C      1  0.2803493647140  0.5007433279460  0.5083271200189 1.0
C      1  0.3048167885056  0.7318305571668  0.4848639254208 1.0
C      1  0.3793472423387  0.6405717816049  0.6202584065614 1.0
C      1  0.4644121399978  0.7619023591819  0.5447078451658 1.0
C      1  0.4223568843228  0.5420167887087  0.7553095248266 1.0
C      1  0.5012931597499  0.2697467569704  0.6970790342595 1.0
C      1  0.3789259028545  0.5157254207509  0.4970598864892 1.0
C      1  0.5780490567488  0.6844484021023  0.3800520944615 1.0
C      1  0.4071962935546  0.5930422665152  0.5406237098266 1.0
C      1  0.4059332552274  0.2561653511617  0.4874130475430 1.0
C      1  0.4094271196503  0.6485989998090  0.3146272737979 1.0
C      1  0.2900927638608  0.3155758569021  0.3807447370658 1.0
C      1  0.4953579871968  0.2469866079267  0.5338199467522 1.0
C      1  0.6293084375385  0.3998631680101  0.2926353916561 1.0
C      1  0.5959310556168  0.4865114198791  0.7225075293630 1.0
C      1  0.3932488864678  0.4183901473411  0.6663897801531 1.0
C      1  0.5491300197317  0.7435540946862  0.3083929088590 1.0
C      1  0.6812551275141  0.6976404874079  0.6100952621027 1.0
C      1  0.6548686497746  0.6270922247904  0.3774647900147 1.0
C      1  0.7189773901406  0.3809464612503  0.5613593968053 1.0
C      1  0.6923510383216  0.4755881759381  0.3054642646955 1.0
C      1  0.6243077889544  0.3180468509823  0.3461121414700 1.0
C      1  0.5101999578839  0.4991405329820  0.7591929425810 1.0
C      1  0.5492358287631  0.6250049762869  0.6311514342304 1.0
C      1  0.6640503552033  0.7176596063782  0.5172918348304 1.0
C      1  0.4613862969831  0.4008912225114  0.3201114330058 1.0
C      1  0.5133232957290  0.6987894422933  0.6841329414404 1.0
C      1  0.3587176653813  0.5741363907985  0.6859382537144 1.0
C      1  0.2825084579591  0.3895299296508  0.3378257159187 1.0
C      1  0.5057140729104  0.6011871390009  0.5338952288599 1.0
C      1  0.3062984226518  0.4680745338032  0.3063240975354 1.0
C      1  0.6934236091630  0.6409106833362  0.4641608933200 1.0
C      1  0.6169464714781  0.3911254296117  0.7095437689906 1.0
C      1  0.5739205201800  0.3383516524168  0.4284534254008 1.0
C      1  0.6361955531631  0.5567964106476  0.3183990456796 1.0
C      1  0.7048899106688  0.4699395838813  0.5266275274885 1.0
C      1  0.6252829665804  0.5073399538248  0.5623516908878 1.0
C      1  0.5282236553276  0.5024882133854  0.5417093175726 1.0
C      1  0.4368908972122  0.7207864385456  0.6286561999306 1.0
C      1  0.2822131220237  0.4384882018200  0.5859416010779 1.0
C      1  0.2523286188827  0.6631685014295  0.4760932029172 1.0
C      1  0.3245397371511  0.4895300787597  0.6558195370735 1.0
C      1  0.6754729432782  0.3558511431524  0.6428023737804 1.0
C      1  0.4515010328534  0.5597763773543  0.2957897287071 1.0
C      1  0.5668514927530  0.7628743860886  0.5464256011668 1.0
C      1  0.7063376370819  0.6092657658406  0.6233594760685 1.0
C      1  0.5904167640978  0.7306655768087  0.6343846964219 1.0
C      1  0.4911627387819  0.2377319723883  0.2837001973734 1.0
C      1  0.4305760561790  0.6876947981160  0.4021193962303 1.0
C      1  0.5443838241157  0.5336380457204  0.2868298039309 1.0
C      1  0.5720497932529  0.2518192864088  0.3086795842070 1.0
C      1  0.7809176064828  0.4725462960607  0.3019029042940 1.0
END
