TITL C-35313-7963-33 -1.45 3375.00 -235.66569575 0 0 30 (C1) n - 1
REM
REM Run started: at 2020.12.22 20:28:44 in /rds/project/t2_vol4/rds-t2-cs072/BORA/CARBON/AIRSS/Generating-Clusters/Str-Search/Only-C1/C10-100
REM VASP from code version vasp.5.4.4.18Apr17-6-g9f103f2a35 (build Oct 11 2019 16:45:47) gamma-only
REM
REM
REM
REM
REM ./C.cell (67c5d0192afd7a3ce4a0888e5fe73b87)
REM AIRSS Version 0.9.1 bugfix July 2018 build 013d7b7c2542+ Fri, 06 Jul 2018 19:26:36 +0100
REM compiler GCC version 4.8.5 20150623 (Red Hat 4.8.5-39)
REM options -cpp -mtune=generic -march=x86-64 -g -O0
REM seed 1181695700 449490499 1726400138 -488600104 -1413604424 1782952625 -765240102 -504120710 -1735112238 -2103223759 -1450716813 -2067384795
REM
REM C.POTCAR (d86ddea03c3ceb6dc662c8ad6801f873)
REM 
CELL 1.54180   15.00000   15.00000   15.00000   90.00000   90.00000   90.00000
LATT -1
SFAC C  
C      1  0.5278405445340  0.5670006037833  0.5547858962231 1.0
C      1  0.3873340081870  0.4170908177023  0.5150968724857 1.0
C      1  0.5660190492709  0.3814047986725  0.3525871782361 1.0
C      1  0.4255118911218  0.6495825809252  0.6346085707368 1.0
C      1  0.4261172523415  0.4411186227786  0.3684153765355 1.0
C      1  0.5034623943355  0.6124070613659  0.4105102147113 1.0
C      1  0.4881855952048  0.3647780999931  0.5732101713138 1.0
C      1  0.6312969438750  0.5043415304874  0.4595967621159 1.0
C      1  0.5896060295949  0.5688778436939  0.3987362330735 1.0
C      1  0.5684372668678  0.4098105466739  0.5967305781099 1.0
C      1  0.4581039312011  0.6245491511768  0.3302298933309 1.0
C      1  0.6353694176830  0.4397609578863  0.3873241205709 1.0
C      1  0.4523493865577  0.4822198447471  0.2869651194741 1.0
C      1  0.6017419865215  0.4976707079957  0.5525699510610 1.0
C      1  0.4993219955713  0.4923368413559  0.7248379185341 1.0
C      1  0.4534215048598  0.3464274234810  0.4870843586290 1.0
C      1  0.4306314230522  0.5735017280910  0.2696356702054 1.0
C      1  0.5434668554996  0.4531787294203  0.2821004215476 1.0
C      1  0.3961330785379  0.4857276729888  0.4509757438047 1.0
C      1  0.3842452738979  0.6119245130651  0.5571757600792 1.0
C      1  0.4113228038663  0.4149462668313  0.6090381299591 1.0
C      1  0.3764055860514  0.5676530528479  0.6416167266006 1.0
C      1  0.5616274676772  0.5720395764661  0.6971765931412 1.0
C      1  0.6092488750546  0.5087162282646  0.3201965217190 1.0
C      1  0.5734599815154  0.4446316748752  0.6841731267288 1.0
C      1  0.4445170362577  0.5720079735074  0.4861003394081 1.0
C      1  0.6346904295340  0.5195204156547  0.6664828690342 1.0
C      1  0.4845362506877  0.3678331980351  0.3999767698463 1.0
C      1  0.5200513419038  0.6232749873668  0.6292572884618 1.0
C      1  0.4155444987367  0.4856662498670  0.6728048243221 1.0
END
