TITL C-35313-7963-15 -2.616 3375.00 -440.51922489 0 0 54 (C1) n - 1
REM
REM Run started: at 2020.12.22 14:41:56 in /rds/project/t2_vol4/rds-t2-cs072/BORA/CARBON/AIRSS/Generating-Clusters/Str-Search/Only-C1/C10-100
REM VASP from code version vasp.5.4.4.18Apr17-6-g9f103f2a35 (build Oct 11 2019 16:45:47) gamma-only
REM
REM
REM
REM
REM ./C.cell (67c5d0192afd7a3ce4a0888e5fe73b87)
REM AIRSS Version 0.9.1 bugfix July 2018 build 013d7b7c2542+ Fri, 06 Jul 2018 19:26:36 +0100
REM compiler GCC version 4.8.5 20150623 (Red Hat 4.8.5-39)
REM options -cpp -mtune=generic -march=x86-64 -g -O0
REM seed 187671794 1300737920 -2126507733 -497453200 616613640 388546648 -1720862781 2144715630 1654461116 -1191824811 -1618603461 99663917
REM
REM C.POTCAR (d86ddea03c3ceb6dc662c8ad6801f873)
REM 
CELL 1.54180   15.00000   15.00000   15.00000   90.00000   90.00000   90.00000
LATT -1
SFAC C  
C      1  0.6083849240656  0.4580817697145  0.4397116267015 1.0
C      1  0.5335800136419  0.4560975730278  0.7060665795884 1.0
C      1  0.6708006478508  0.6615978671355  0.5280492688643 1.0
C      1  0.3787143046823  0.6101262992836  0.4749028246602 1.0
C      1  0.2857398749520  0.4682545332939  0.4867920442315 1.0
C      1  0.4241487972258  0.6656910765971  0.6233397621132 1.0
C      1  0.5177666056780  0.6108684429793  0.2622280269068 1.0
C      1  0.5829400301426  0.3741804294367  0.4106863031423 1.0
C      1  0.5415212870823  0.3106294420302  0.6280441972094 1.0
C      1  0.6502910570640  0.4304338969381  0.5892363304321 1.0
C      1  0.6966608722813  0.5760408416984  0.4768561208551 1.0
C      1  0.2998882066304  0.4702728436423  0.6417376111674 1.0
C      1  0.6511881146088  0.6607735203334  0.7155819732256 1.0
C      1  0.5836266289413  0.3128438895191  0.4825947440054 1.0
C      1  0.4443629047528  0.3140763535241  0.4044253847510 1.0
C      1  0.5470961723014  0.5316929186777  0.4515320494458 1.0
C      1  0.4322219011524  0.5971585309773  0.6947065196605 1.0
C      1  0.4532559838007  0.5352708520753  0.4453150268480 1.0
C      1  0.4332007261690  0.6777226458035  0.5289156242663 1.0
C      1  0.3505055895507  0.6204943550303  0.6552924118938 1.0
C      1  0.2955775273327  0.5609295574305  0.6095016848224 1.0
C      1  0.6162876727352  0.4841726560054  0.6662983383390 1.0
C      1  0.6020891382411  0.6051724687423  0.4673337446746 1.0
C      1  0.4052092869046  0.5975642979183  0.3783972657110 1.0
C      1  0.6219800956471  0.5454688084293  0.2507122977266 1.0
C      1  0.4081178009584  0.3600440763105  0.6885383055078 1.0
C      1  0.4990014380996  0.7218972367429  0.4809514812089 1.0
C      1  0.5046714437859  0.3661508983599  0.6930987478361 1.0
C      1  0.5291509685278  0.5136917892515  0.2712595100391 1.0
C      1  0.6734136458784  0.4798313699849  0.5094156667383 1.0
C      1  0.5931162288781  0.7003758198254  0.4624963231228 1.0
C      1  0.5971808638848  0.6298937339932  0.2083685617736 1.0
C      1  0.3507385312804  0.3392227202611  0.4136165063258 1.0
C      1  0.3019136576604  0.5598742806620  0.5146255327920 1.0
C      1  0.3085028559776  0.3220257025802  0.5619648269241 1.0
C      1  0.6100287725900  0.3440035419796  0.5713073802629 1.0
C      1  0.4006121177925  0.4944727390076  0.3683567237773 1.0
C      1  0.3319568589825  0.4335536599203  0.4115099555132 1.0
C      1  0.3828339923575  0.2994799397796  0.6188215846032 1.0
C      1  0.6643792008798  0.6495200860690  0.6220578547608 1.0
C      1  0.6421493388075  0.5757277454606  0.6729087962260 1.0
C      1  0.4511652472288  0.5089891444309  0.7173821441522 1.0
C      1  0.5025975686057  0.3702444240077  0.3570232850710 1.0
C      1  0.3115542291914  0.2822559352486  0.4774754924394 1.0
C      1  0.4666678053266  0.2723692371017  0.5757415870214 1.0
C      1  0.4716704071280  0.6566372959846  0.3315813314004 1.0
C      1  0.7372926544648  0.5660693120627  0.3855127702369 1.0
C      1  0.7978589599315  0.5622974538920  0.3139147983525 1.0
C      1  0.3727790616363  0.4468684779105  0.7001509109784 1.0
C      1  0.5150462478705  0.7196478619107  0.3882930846941 1.0
C      1  0.2786593755761  0.4132463689066  0.5671932147393 1.0
C      1  0.7027365061270  0.5469977771479  0.3020455604796 1.0
C      1  0.4925987263841  0.2765968608235  0.4838261878081 1.0
C      1  0.4745671307535  0.4523988401404  0.3123042139729 1.0
END
