TITL C-35313-7963-13 -3.728 3375.00 -636.78324007 0 0 79 (C1) n - 1
REM
REM Run started: at 2020.12.22 14:07:04 in /rds/project/t2_vol4/rds-t2-cs072/BORA/CARBON/AIRSS/Generating-Clusters/Str-Search/Only-C1/C10-100
REM VASP from code version vasp.5.4.4.18Apr17-6-g9f103f2a35 (build Oct 11 2019 16:45:47) gamma-only
REM
REM
REM
REM
REM ./C.cell (67c5d0192afd7a3ce4a0888e5fe73b87)
REM AIRSS Version 0.9.1 bugfix July 2018 build 013d7b7c2542+ Fri, 06 Jul 2018 19:26:36 +0100
REM compiler GCC version 4.8.5 20150623 (Red Hat 4.8.5-39)
REM options -cpp -mtune=generic -march=x86-64 -g -O0
REM seed 1108005971 -1841342890 -1340613256 -1581789644 1819917942 -1090101709 -597991034 1333874033 677842316 -1910099916 -742892564 -1440775813
REM
REM C.POTCAR (d86ddea03c3ceb6dc662c8ad6801f873)
REM 
CELL 1.54180   15.00000   15.00000   15.00000   90.00000   90.00000   90.00000
LATT -1
SFAC C  
C      1  0.6292979130497  0.6954705864609  0.3571658206001 1.0
C      1  0.6388765950230  0.4776872735544  0.2587942031304 1.0
C      1  0.5254733712808  0.7291876348469  0.7110630574406 1.0
C      1  0.7080699036417  0.3561943239735  0.3798305377507 1.0
C      1  0.4321095322216  0.6301868970713  0.2689145427711 1.0
C      1  0.6335576577227  0.4027176386702  0.5095838900146 1.0
C      1  0.4995435832324  0.7055645364002  0.6269029928779 1.0
C      1  0.6026235086123  0.5374904649436  0.3193707513451 1.0
C      1  0.4874181128159  0.6065994743984  0.5880708911695 1.0
C      1  0.7308943229645  0.4522685646424  0.2820383886064 1.0
C      1  0.5436921581856  0.3350451408222  0.3953963767831 1.0
C      1  0.2323690492948  0.4048397680706  0.5430050633592 1.0
C      1  0.5287036636281  0.5014096051061  0.7161349402407 1.0
C      1  0.5670263503385  0.4662336738764  0.5186806394151 1.0
C      1  0.4250738994490  0.3811816992971  0.3065083370406 1.0
C      1  0.2610136762996  0.5292747361121  0.6541396870783 1.0
C      1  0.4039627809073  0.6563330459725  0.5474002812996 1.0
C      1  0.2695506876677  0.6101980643015  0.4364564730749 1.0
C      1  0.3606968744957  0.3917846746977  0.6178338440590 1.0
C      1  0.3603436184116  0.6572220716987  0.4569865010954 1.0
C      1  0.4945442185819  0.3333897660518  0.7921047511726 1.0
C      1  0.5481899728045  0.7403187850036  0.3382452128719 1.0
C      1  0.5200157486802  0.4082339760377  0.7419054462879 1.0
C      1  0.7426936927581  0.5544883972128  0.6114766828177 1.0
C      1  0.3773408367621  0.5723285357853  0.4111366863020 1.0
C      1  0.4425037996567  0.5400942179802  0.2671135863648 1.0
C      1  0.7150507688577  0.4007908950173  0.5646710084618 1.0
C      1  0.4676597601912  0.7726003783805  0.4676233775083 1.0
C      1  0.6879129288189  0.3314399250104  0.6153701319024 1.0
C      1  0.4509667397288  0.5302443094784  0.6472570839715 1.0
C      1  0.2708775148432  0.4380248948903  0.6234276110612 1.0
C      1  0.4688949340962  0.1828903067783  0.5000867270672 1.0
C      1  0.6145046935244  0.2751805209424  0.5878772295137 1.0
C      1  0.2857273025500  0.3302103866143  0.5085457396198 1.0
C      1  0.4595886198592  0.7033757492139  0.3223873527812 1.0
C      1  0.6225008446533  0.2412917972007  0.4950602714780 1.0
C      1  0.5239625262637  0.3620458152269  0.3087645593118 1.0
C      1  0.5547365114030  0.7759969107124  0.4310341284026 1.0
C      1  0.5710199463480  0.5447462082099  0.5707329827729 1.0
C      1  0.6320486044790  0.3284353995573  0.4407710346704 1.0
C      1  0.4454657440878  0.7521430158687  0.5581661870233 1.0
C      1  0.5233154207617  0.2867203445171  0.6131402051161 1.0
C      1  0.6883112951332  0.3619176097134  0.2854245995276 1.0
C      1  0.3006152632840  0.3471782938841  0.4145550804765 1.0
C      1  0.7466986411215  0.4449369230328  0.3817647533273 1.0
C      1  0.6866520561946  0.6682807622490  0.5044146974355 1.0
C      1  0.7129145496093  0.5967858938555  0.4374153856771 1.0
C      1  0.7589372728024  0.4873072185100  0.5473220029368 1.0
C      1  0.4721452743441  0.4475995128898  0.4945568093750 1.0
C      1  0.6471334604356  0.6222050418825  0.6926572992345 1.0
C      1  0.3021835335250  0.5673382236715  0.3567658432462 1.0
C      1  0.3893149674438  0.3426754106472  0.3859812629363 1.0
C      1  0.2940616433503  0.4805566958635  0.3176107656917 1.0
C      1  0.7518424766157  0.5120026814723  0.4534988858260 1.0
C      1  0.4498483234673  0.2769901206211  0.5373605269734 1.0
C      1  0.6997539325153  0.5354307590858  0.6973014675897 1.0
C      1  0.3203138938598  0.5576332382148  0.7228615255183 1.0
C      1  0.3590630606413  0.3123157227735  0.5645434983964 1.0
C      1  0.6588434219483  0.6087169135720  0.3584662583618 1.0
C      1  0.6089781582417  0.5284029991352  0.6628120295307 1.0
C      1  0.3727575553668  0.7234570711777  0.6164836179068 1.0
C      1  0.5512987789814  0.1871110444466  0.4765795190876 1.0
C      1  0.5088106131996  0.5274112579282  0.3434644548192 1.0
C      1  0.2146538410295  0.4650349296594  0.4711732950446 1.0
C      1  0.5636238030278  0.6499686920093  0.7436132307499 1.0
C      1  0.2182109163405  0.5582925026095  0.4995016483529 1.0
C      1  0.4108254310627  0.7280263508961  0.4047549940635 1.0
C      1  0.2521975137452  0.4270031917092  0.3868342753900 1.0
C      1  0.4552631587260  0.5159268220869  0.4222847278527 1.0
C      1  0.4212716400526  0.4566377216609  0.5877958928179 1.0
C      1  0.4056532392775  0.5728947107741  0.7330403919915 1.0
C      1  0.5096192816433  0.3276592467607  0.6973308565616 1.0
C      1  0.6019743205012  0.3854822734145  0.2540984661924 1.0
C      1  0.2230329186862  0.5862391527320  0.5887877571096 1.0
C      1  0.3797332243667  0.4599123143894  0.2745420574258 1.0
C      1  0.5009463793815  0.5813127755485  0.7715248201873 1.0
C      1  0.4649684994960  0.3433375458974  0.4545063761066 1.0
C      1  0.6983176197943  0.6404779031090  0.5972029977200 1.0
C      1  0.6394117518357  0.7336600615094  0.4499925129277 1.0
END
