TITL C-35313-7963-16 -1.118 3375.00 -182.59079947 0 0 23 (C1) n - 1
REM
REM Run started: at 2020.12.22 14:48:10 in /rds/project/t2_vol4/rds-t2-cs072/BORA/CARBON/AIRSS/Generating-Clusters/Str-Search/Only-C1/C10-100
REM VASP from code version vasp.5.4.4.18Apr17-6-g9f103f2a35 (build Oct 11 2019 16:45:47) gamma-only
REM
REM
REM
REM
REM ./C.cell (67c5d0192afd7a3ce4a0888e5fe73b87)
REM AIRSS Version 0.9.1 bugfix July 2018 build 013d7b7c2542+ Fri, 06 Jul 2018 19:26:36 +0100
REM compiler GCC version 4.8.5 20150623 (Red Hat 4.8.5-39)
REM options -cpp -mtune=generic -march=x86-64 -g -O0
REM seed 1340675193 161964240 310965620 307952832 757007023 -1192637830 -434475023 -968910488 1234424263 841984681 -261672508 -615711614
REM
REM C.POTCAR (d86ddea03c3ceb6dc662c8ad6801f873)
REM 
CELL 1.54180   15.00000   15.00000   15.00000   90.00000   90.00000   90.00000
LATT -1
SFAC C  
C      1  0.5752338731710  0.4319379330928  0.6115828895492 1.0
C      1  0.5289892324640  0.5329829347517  0.3621048001717 1.0
C      1  0.4302798484858  0.4184941368548  0.5713322802203 1.0
C      1  0.5806812686807  0.6234008847321  0.5555741659340 1.0
C      1  0.4998296360300  0.6600596845184  0.5285357209551 1.0
C      1  0.4091314248023  0.6316213379305  0.5441996156999 1.0
C      1  0.6383460672043  0.5002808375066  0.5854004390500 1.0
C      1  0.6056207815042  0.5147661236915  0.4219822656634 1.0
C      1  0.5185485703628  0.3831371524663  0.5539560248880 1.0
C      1  0.4422899102633  0.6373690043082  0.4550189806007 1.0
C      1  0.5228935068851  0.5022819313959  0.6619447319017 1.0
C      1  0.6299981241730  0.5527130708474  0.5018757442334 1.0
C      1  0.5311378194906  0.3584373304587  0.4610260285466 1.0
C      1  0.4338502928278  0.4919645862535  0.6398058788440 1.0
C      1  0.5168647327082  0.4440620118200  0.3293995226481 1.0
C      1  0.5775346050657  0.4199081280342  0.4037152226126 1.0
C      1  0.5900079564756  0.5693830702256  0.6355880533553 1.0
C      1  0.4274470885008  0.4105214484755  0.3617083149253 1.0
C      1  0.3779639668424  0.4756149371376  0.5104550759849 1.0
C      1  0.4448193417774  0.5680728222918  0.3947052785840 1.0
C      1  0.3922428461433  0.4849503797630  0.4125047129059 1.0
C      1  0.4439026811437  0.3404480693765  0.4221189508352 1.0
C      1  0.3823864249982  0.5475919840676  0.5754654018907 1.0
END
