TITL C-35313-7963-5 -2.421 3375.00 -409.71501181 0 0 51 (C1) n - 1
REM
REM Run started: at 2020.12.22 11:56:37 in /rds/project/t2_vol4/rds-t2-cs072/BORA/CARBON/AIRSS/Generating-Clusters/Str-Search/Only-C1/C10-100
REM VASP from code version vasp.5.4.4.18Apr17-6-g9f103f2a35 (build Oct 11 2019 16:45:47) gamma-only
REM
REM
REM
REM
REM ./C.cell (67c5d0192afd7a3ce4a0888e5fe73b87)
REM AIRSS Version 0.9.1 bugfix July 2018 build 013d7b7c2542+ Fri, 06 Jul 2018 19:26:36 +0100
REM compiler GCC version 4.8.5 20150623 (Red Hat 4.8.5-39)
REM options -cpp -mtune=generic -march=x86-64 -g -O0
REM seed -2007074103 1739411118 -1136475615 347375649 -295775824 2043888954 -869847148 919698662 364671027 -1045891833 1755021216 711615101
REM
REM C.POTCAR (d86ddea03c3ceb6dc662c8ad6801f873)
REM 
CELL 1.54180   15.00000   15.00000   15.00000   90.00000   90.00000   90.00000
LATT -1
SFAC C  
C      1  0.5892030512363  0.7159514057106  0.4763602754470 1.0
C      1  0.5939807998811  0.2831155245856  0.5367432296537 1.0
C      1  0.4250672042570  0.4985840149517  0.4745835082868 1.0
C      1  0.4707441782012  0.6918617734891  0.6143740476034 1.0
C      1  0.5750913858551  0.2152455074523  0.4800114304474 1.0
C      1  0.6887860273233  0.3985428838076  0.4084723156967 1.0
C      1  0.4911784122863  0.3840730771222  0.6466901267146 1.0
C      1  0.3995126355675  0.4206162006791  0.6644859826061 1.0
C      1  0.3907357283814  0.6508060746019  0.5728715399502 1.0
C      1  0.5188037309574  0.4824737296456  0.4762958354847 1.0
C      1  0.5320317593210  0.5332395329557  0.5543819992438 1.0
C      1  0.5882420616324  0.5899541507222  0.6921617529770 1.0
C      1  0.5886840331512  0.5621624348504  0.2787027092530 1.0
C      1  0.4298438465385  0.2975485829277  0.5190585670484 1.0
C      1  0.5381151311939  0.4003834757771  0.4481660590408 1.0
C      1  0.5434496002702  0.5161775494511  0.7364100481317 1.0
C      1  0.6653034172072  0.6675962958424  0.4586374248786 1.0
C      1  0.3494018782976  0.5071376295448  0.4043480935946 1.0
C      1  0.5155873368499  0.2100950805690  0.4175317396692 1.0
C      1  0.5327643777516  0.6338816860479  0.2913637407524 1.0
C      1  0.6555438276415  0.4517660194782  0.3375109392041 1.0
C      1  0.5198884881211  0.7279340723346  0.5421390413372 1.0
C      1  0.4546950140695  0.2776535227192  0.4229947258025 1.0
C      1  0.3300467397046  0.3984702925446  0.6037721416762 1.0
C      1  0.3887061181004  0.5174912484478  0.6940302119241 1.0
C      1  0.4742363499986  0.4471268731316  0.3153017475011 1.0
C      1  0.4150152670645  0.5246549180252  0.3305459333790 1.0
C      1  0.3600847549218  0.6510730370177  0.4760778787227 1.0
C      1  0.4262488450966  0.6742638253441  0.4091960004944 1.0
C      1  0.6737641947129  0.5479249493818  0.3255155962359 1.0
C      1  0.7002122701161  0.6011806569240  0.3979560476480 1.0
C      1  0.5653534567537  0.4675346335592  0.2931015562700 1.0
C      1  0.6871985148185  0.5133163207596  0.5457278009451 1.0
C      1  0.5045839617790  0.3132824348507  0.5810733972724 1.0
C      1  0.6095771926616  0.5229595983993  0.6131541996814 1.0
C      1  0.3001173159043  0.5757360400372  0.4637849747306 1.0
C      1  0.7074038982492  0.5888371573575  0.4909694747264 1.0
C      1  0.4548167640726  0.3750256984512  0.3890170755193 1.0
C      1  0.6239055126093  0.3613425745374  0.4772126031811 1.0
C      1  0.4500912295011  0.6156759047058  0.3318130827898 1.0
C      1  0.4573726911934  0.5629759104926  0.7351530563378 1.0
C      1  0.3546843301316  0.5675610509631  0.6136880020033 1.0
C      1  0.5050560602866  0.6408473014262  0.6885525122107 1.0
C      1  0.6893205584024  0.4354424373442  0.4961929880403 1.0
C      1  0.4380466330907  0.5526561692289  0.5541171360201 1.0
C      1  0.3740390078560  0.4161789990641  0.4427965516064 1.0
C      1  0.2536310978409  0.4523964367583  0.5791877639250 1.0
C      1  0.4976981351160  0.7210040108080  0.4507781328965 1.0
C      1  0.2821198191496  0.5345389373095  0.5507198969541 1.0
C      1  0.5622817402984  0.4467323608497  0.6746178825736 1.0
C      1  0.3577334145779  0.3569698970148  0.5216515219108 1.0
END
