TITL C-368229-50-25 -5.265 3375.00 0 0 0 109 (C1) n - 1
REM
REM Run started: at 2020.03.16 12:21:56 in /rds/user/bk393/hpc-work/AIRSS.pl-DENE/CARBON/New-Try
REM VASP from code version vasp.5.4.4.18Apr17-6-g9f103f2a35 (build Oct 11 2019 16:45:47) gamma-only
REM
REM
REM
REM
REM ./C.cell (9f5935e56d41cf50cb14479ce98dda23)
REM AIRSS Version 0.9.1 bugfix July 2018 build 013d7b7c2542+ Fri, 06 Jul 2018 19:26:36 +0100
REM compiler GCC version 4.8.5 20150623 (Red Hat 4.8.5-39)
REM options -cpp -mtune=generic -march=x86-64 -g -O0
REM seed 1197304602 -375079000 723719883 -533763451 608091550 2036094896 -1819095404 2140243326 -597079306 -602053558 -401487957 1341899925
REM
REM C.POTCAR (d86ddea03c3ceb6dc662c8ad6801f873)
REM 
CELL 1.54180   15.00000   15.00000   15.00000   90.00000   90.00000   90.00000
LATT -1
SFAC C  
C      1  0.3510125378430  0.2254257673159  0.6577865426886 1.0
C      1  0.7810363114472  0.4496359099445  0.7389022182250 1.0
C      1  0.6713210091886  0.3634563914890  0.2061256163787 1.0
C      1  0.4791237815990  0.2238722284792  0.3122696442965 1.0
C      1  0.7575193716771  0.3191048975610  0.5008696589735 1.0
C      1  0.7737980912556  0.5779640925153  0.3590440033725 1.0
C      1  0.6054775418898  0.2437614444398  0.5427578088830 1.0
C      1  0.7573850705421  0.5008604733086  0.5876365549332 1.0
C      1  0.6028279833569  0.4819536368162  0.7363002360736 1.0
C      1  0.2834578577600  0.5840575453473  0.3972951261829 1.0
C      1  0.5921724189029  0.7077963126557  0.4620892682393 1.0
C      1  0.5551182698699  0.2515774326028  0.4639475318864 1.0
C      1  0.6260363269256  0.6083016558036  0.2447681213201 1.0
C      1  0.5220884884409  0.2669998617571  0.2413704927030 1.0
C      1  0.5320893109324  0.6000547313455  0.2198089549492 1.0
C      1  0.3036268668445  0.5696714322633  0.2967583462032 1.0
C      1  0.6260333746577  0.7784993517664  0.6847758858861 1.0
C      1  0.4067930091617  0.3585738088565  0.3868374437581 1.0
C      1  0.3590902328491  0.2882306200987  0.7207783139678 1.0
C      1  0.6891013877260  0.3636336630546  0.6466171347673 1.0
C      1  0.6759697352056  0.5351712036471  0.7835879020280 1.0
C      1  0.1724042221075  0.3831511340836  0.6718010387764 1.0
C      1  0.2085700760418  0.4426647630862  0.2452334164083 1.0
C      1  0.2493676393799  0.7321835801758  0.4681248471287 1.0
C      1  0.1852156401830  0.5992911235178  0.5267173711885 1.0
C      1  0.1869859083215  0.3660967278179  0.2793051561110 1.0
C      1  0.6242869340483  0.4842586160221  0.4812956550708 1.0
C      1  0.5296141947766  0.4414834457277  0.1988990427502 1.0
C      1  0.6231569236814  0.3815996264565  0.7145828362084 1.0
C      1  0.5803598612277  0.2105483216557  0.6259379368710 1.0
C      1  0.3195454582654  0.5695564177301  0.6128072794151 1.0
C      1  0.1930739817200  0.3428289796536  0.5038902252076 1.0
C      1  0.3589251795231  0.6391905947024  0.4391366431420 1.0
C      1  0.8092340443130  0.5885674219750  0.5861519016419 1.0
C      1  0.7530893103141  0.4842011473932  0.8114742331391 1.0
C      1  0.1769631545356  0.3557637500083  0.5938166786236 1.0
C      1  0.4739935152640  0.3877766075334  0.7713079277401 1.0
C      1  0.3367979086397  0.6421267195029  0.6942852510695 1.0
C      1  0.4523239229728  0.5519821184019  0.7798366486305 1.0
C      1  0.3418238788945  0.4129828473464  0.4232128299558 1.0
C      1  0.3506681256849  0.4799797160558  0.6524712125487 1.0
C      1  0.6414749527725  0.6639016622884  0.3177529818683 1.0
C      1  0.6596235264102  0.7841807586140  0.5942803499260 1.0
C      1  0.3903729388359  0.2953591015365  0.6116341616036 1.0
C      1  0.4872961345309  0.5151750140482  0.2585844800610 1.0
C      1  0.2196633033561  0.5790663505787  0.6040374615784 1.0
C      1  0.5072243885369  0.4767523020398  0.7770625716450 1.0
C      1  0.2145641700564  0.6366814914661  0.4501551351678 1.0
C      1  0.5281674121797  0.6483523595064  0.5022393267994 1.0
C      1  0.2154152254285  0.4415460316661  0.7332281624188 1.0
C      1  0.8215525678256  0.4308022752630  0.3897975324079 1.0
C      1  0.4924327661418  0.6725551243670  0.1699266627177 1.0
C      1  0.4339984099672  0.3643143961240  0.5838033284906 1.0
C      1  0.3741766958220  0.5814204626565  0.5248322465279 1.0
C      1  0.5932874011157  0.5152333867304  0.6369049015409 1.0
C      1  0.3550915473202  0.5130529350814  0.4401800489312 1.0
C      1  0.1932132516194  0.3371769974415  0.3633578625095 1.0
C      1  0.1759021364045  0.2758897911526  0.4357423945882 1.0
C      1  0.5261418950045  0.4724830859567  0.3459169914639 1.0
C      1  0.5514556227921  0.2455146827828  0.6959725698593 1.0
C      1  0.6204555601939  0.8589036268720  0.6359270168943 1.0
C      1  0.7634512061395  0.4248233122084  0.6526626581220 1.0
C      1  0.4136495565038  0.2613647337693  0.3736182773614 1.0
C      1  0.6895285319987  0.6268795468401  0.7673530178584 1.0
C      1  0.7445081140969  0.6749525387750  0.7057368885326 1.0
C      1  0.8199824210686  0.5201454424204  0.4225189595567 1.0
C      1  0.4495363040573  0.6671197913321  0.2542481934384 1.0
C      1  0.6281939978567  0.4511604274319  0.1987114566613 1.0
C      1  0.6608327388376  0.7109427082065  0.7353043446044 1.0
C      1  0.4709354268132  0.5935054159994  0.5579898562496 1.0
C      1  0.1955172788098  0.6032110680864  0.7007908667431 1.0
C      1  0.7534285264399  0.5199709534406  0.2837072707168 1.0
C      1  0.6760424160648  0.5292736698325  0.2303712290502 1.0
C      1  0.3156068860691  0.4331178708724  0.7246204314091 1.0
C      1  0.6712261519690  0.3256128361720  0.5503745726944 1.0
C      1  0.5985346451812  0.3003905489988  0.1970226823799 1.0
C      1  0.7501589809274  0.3587032880068  0.2537670982003 1.0
C      1  0.4353737921025  0.4507556720876  0.6158033114322 1.0
C      1  0.8179708142455  0.5364587718938  0.5155708060423 1.0
C      1  0.7147721075620  0.6514577261870  0.3806215847463 1.0
C      1  0.5016691274606  0.5219944615887  0.6057696167567 1.0
C      1  0.5749232651692  0.5229174742139  0.4103190356306 1.0
C      1  0.4867627121283  0.2122478630539  0.4071460645324 1.0
C      1  0.2305948608907  0.7663133637488  0.5509673850421 1.0
C      1  0.7198799510257  0.7230641467656  0.5532976803254 1.0
C      1  0.2521725264021  0.5160114105319  0.2475396519360 1.0
C      1  0.2318939105458  0.7488009490506  0.6335733062804 1.0
C      1  0.6252949707929  0.3904849795366  0.4841531582680 1.0
C      1  0.3990955934424  0.6119183546400  0.7545170405125 1.0
C      1  0.5599721123076  0.6945133401860  0.3678233836112 1.0
C      1  0.6894669427075  0.6981453656063  0.4659019156555 1.0
C      1  0.5630851019939  0.3437921864207  0.4336870393045 1.0
C      1  0.4045185183427  0.5789637255620  0.2906845719226 1.0
C      1  0.7748253573295  0.6721347040043  0.6175496489111 1.0
C      1  0.5469938682757  0.3303934562554  0.7362651573226 1.0
C      1  0.1884714899590  0.5267814718456  0.7461847480367 1.0
C      1  0.4731633553446  0.7320349638047  0.3291122924485 1.0
C      1  0.2481563660523  0.6892285003957  0.7017911784287 1.0
C      1  0.5154338994959  0.3494430335465  0.1935720819317 1.0
C      1  0.2486079740626  0.3801740875721  0.4355821376801 1.0
C      1  0.4055407255534  0.7674746156284  0.3758410999496 1.0
C      1  0.7857963629081  0.4303480759733  0.3000097465219 1.0
C      1  0.6576640308542  0.5151072297640  0.5709947599882 1.0
C      1  0.5006825474458  0.3887377660796  0.3783321399070 1.0
C      1  0.5172135915406  0.6054198920715  0.4139149490826 1.0
C      1  0.3785802517165  0.3656649359752  0.7658139557264 1.0
C      1  0.3408401118349  0.7353475357457  0.4281225235396 1.0
C      1  0.4226838471926  0.5807751156085  0.3896732679772 1.0
C      1  0.8077780661970  0.3587223161773  0.4491156326277 1.0
END
