TITL C-368229-50-2 -5.106 3375.00 0 0 0 106 (C1) n - 1
REM
REM Run started: at 2020.03.16 00:24:31 in /rds/user/bk393/hpc-work/AIRSS.pl-DENE/CARBON/New-Try
REM VASP from code version vasp.5.4.4.18Apr17-6-g9f103f2a35 (build Oct 11 2019 16:45:47) gamma-only
REM
REM
REM
REM
REM ./C.cell (9f5935e56d41cf50cb14479ce98dda23)
REM AIRSS Version 0.9.1 bugfix July 2018 build 013d7b7c2542+ Fri, 06 Jul 2018 19:26:36 +0100
REM compiler GCC version 4.8.5 20150623 (Red Hat 4.8.5-39)
REM options -cpp -mtune=generic -march=x86-64 -g -O0
REM seed -1738531047 -613003385 -709922767 -584356584 153286614 793933948 272590324 656277542 -554277737 722973219 613747539 1790877274
REM
REM C.POTCAR (d86ddea03c3ceb6dc662c8ad6801f873)
REM 
CELL 1.54180   15.00000   15.00000   15.00000   90.00000   90.00000   90.00000
LATT -1
SFAC C  
C      1  0.4911030375646  0.5840448106748  0.4721897721416 1.0
C      1  0.4713558267970  0.4036278154221  0.8257303463689 1.0
C      1  0.6238544019198  0.4480850941700  0.2672925982729 1.0
C      1  0.5666144852335  0.7906840749523  0.4323998965023 1.0
C      1  0.6393299176009  0.6461147792358  0.4200523123256 1.0
C      1  0.5008903745302  0.1988184412535  0.4885428278633 1.0
C      1  0.2551141400670  0.5629948340287  0.6851142736488 1.0
C      1  0.5284009768875  0.6556002659097  0.2593571261267 1.0
C      1  0.6862553432235  0.7309154547731  0.5462542712670 1.0
C      1  0.5347453408374  0.2036571791069  0.4011731750993 1.0
C      1  0.4128826656670  0.7081328538459  0.6741356914606 1.0
C      1  0.5571198941661  0.5276436636613  0.6331406667779 1.0
C      1  0.6236295054966  0.2284104957694  0.3710917793904 1.0
C      1  0.2351646948736  0.6029883046597  0.5991649039694 1.0
C      1  0.4441296232532  0.4552955171801  0.5017999509193 1.0
C      1  0.2758569702692  0.3905925466460  0.6720189786891 1.0
C      1  0.2341426982472  0.4048547355019  0.3667841091903 1.0
C      1  0.3391897238705  0.6184316935416  0.3157587364260 1.0
C      1  0.6565707500331  0.5662311615338  0.7404118908903 1.0
C      1  0.2058659415497  0.5519379024365  0.5211956356318 1.0
C      1  0.5486552134846  0.4832503859065  0.2180869482610 1.0
C      1  0.7010100460454  0.2681249802215  0.4095765573314 1.0
C      1  0.3880414829810  0.2648400842178  0.7025391702587 1.0
C      1  0.4659896055597  0.5023910768443  0.4212917540320 1.0
C      1  0.5884355670869  0.2751844244136  0.2953466932119 1.0
C      1  0.4102249332855  0.2244202848989  0.5149357406618 1.0
C      1  0.3151904270732  0.4712055531517  0.2500749944710 1.0
C      1  0.6564612026746  0.4974430788051  0.6166605594237 1.0
C      1  0.4217872542210  0.5985099868894  0.5429895717686 1.0
C      1  0.7139714291833  0.6967975838518  0.4583122993834 1.0
C      1  0.5580444169171  0.6494540163786  0.4671019885606 1.0
C      1  0.4874357714857  0.5927902866152  0.7694476164005 1.0
C      1  0.4978791776543  0.2393460905603  0.3172106734088 1.0
C      1  0.2513845266218  0.4890643047240  0.3206375406822 1.0
C      1  0.4746691492637  0.7208505435756  0.2985808028589 1.0
C      1  0.7871647412059  0.4675264698607  0.4576900137695 1.0
C      1  0.2822011459113  0.3372223385858  0.3197788909640 1.0
C      1  0.7939546967888  0.6985756861031  0.3917032392935 1.0
C      1  0.7788499855690  0.7088336275826  0.2996648131722 1.0
C      1  0.5310173451541  0.3374891220583  0.7753382325790 1.0
C      1  0.6567658177341  0.6488834921700  0.7004620576050 1.0
C      1  0.7006526261903  0.7042250649594  0.2647134155126 1.0
C      1  0.4861611450277  0.5308033635945  0.5626642930293 1.0
C      1  0.2340123706789  0.3978219416511  0.4601262332092 1.0
C      1  0.6501450297824  0.5880580192587  0.3421381683550 1.0
C      1  0.7169811290660  0.5674113226352  0.5758717037583 1.0
C      1  0.3285093997708  0.3278694804012  0.7358796908077 1.0
C      1  0.3735974840423  0.4018626719311  0.5388559412903 1.0
C      1  0.7323459739720  0.4405380574576  0.3855822850263 1.0
C      1  0.4077991768889  0.7510426225332  0.4173683906957 1.0
C      1  0.4609915643421  0.3558247554045  0.1619905901791 1.0
C      1  0.5194219516382  0.4623785160259  0.6979622613969 1.0
C      1  0.3857973272088  0.5429223594671  0.2633036055508 1.0
C      1  0.5678993617247  0.6030268329562  0.7066689556689 1.0
C      1  0.3271321484012  0.5849806985021  0.7391174596460 1.0
C      1  0.3867230188672  0.6958401394010  0.3371222770259 1.0
C      1  0.3965010379852  0.3211312861520  0.2175122606831 1.0
C      1  0.3468827857314  0.2675213121679  0.4531311762535 1.0
C      1  0.4953130620248  0.4991751623211  0.7901080037568 1.0
C      1  0.2283191088520  0.6087969656359  0.4411436279388 1.0
C      1  0.5275087843357  0.7337306679998  0.5094136482126 1.0
C      1  0.6396333131639  0.3556336415590  0.2890126546680 1.0
C      1  0.4118464058551  0.2269692839732  0.6123732597646 1.0
C      1  0.2565670956492  0.6937160084363  0.4734331709074 1.0
C      1  0.6500251124226  0.2139505990348  0.5625715570846 1.0
C      1  0.3383814180380  0.2690966138970  0.3564245977999 1.0
C      1  0.6042560005161  0.7931490402978  0.5317053703427 1.0
C      1  0.4518981265882  0.5117231743256  0.3313145276893 1.0
C      1  0.5091349783598  0.4233963643230  0.1603257460647 1.0
C      1  0.6811499857696  0.4111960733652  0.6680409815093 1.0
C      1  0.5036137840540  0.2200796092458  0.6417927653355 1.0
C      1  0.5964273398036  0.4013542930300  0.7279654524631 1.0
C      1  0.3592324261639  0.4206948457499  0.6262993324185 1.0
C      1  0.2205303379632  0.4729881762096  0.6915431727553 1.0
C      1  0.7488902724218  0.3454436754025  0.6358718288834 1.0
C      1  0.8377034206032  0.4134470395764  0.5131443962209 1.0
C      1  0.3921111676150  0.3975796086655  0.7718287959884 1.0
C      1  0.3236858219067  0.3761958882274  0.2422073310751 1.0
C      1  0.4063500916564  0.6338298963700  0.7382850897219 1.0
C      1  0.7204666300581  0.2685072388779  0.5898619860918 1.0
C      1  0.6702255224490  0.4699090035199  0.7479849860394 1.0
C      1  0.5771045169351  0.8630496810996  0.5937242851896 1.0
C      1  0.4273262858515  0.7410689195822  0.5084848346858 1.0
C      1  0.1991709834366  0.4584330983672  0.5276739490035 1.0
C      1  0.7947950701060  0.6378091035279  0.4571107623539 1.0
C      1  0.4211575799633  0.4416488150938  0.6913557514604 1.0
C      1  0.4902661746701  0.5603028655451  0.2528438984128 1.0
C      1  0.4882070737623  0.2669653861989  0.7259966688816 1.0
C      1  0.5584387453487  0.2005554996021  0.5679207476640 1.0
C      1  0.4112523714818  0.2575488003389  0.2906371334746 1.0
C      1  0.1974011488463  0.4247929825499  0.6179916284568 1.0
C      1  0.5043452534512  0.8537184231076  0.6629862271383 1.0
C      1  0.2818847507444  0.6771629806262  0.5607708911620 1.0
C      1  0.6745488745822  0.4999249045047  0.3318366616980 1.0
C      1  0.5550328401662  0.9356506094982  0.6402511009073 1.0
C      1  0.6946108575621  0.6616019481269  0.6100034821868 1.0
C      1  0.2611381449768  0.5766175226721  0.3581919392648 1.0
C      1  0.3075833473255  0.3447781788884  0.4918822203232 1.0
C      1  0.4934975170219  0.7844681219449  0.3726164073222 1.0
C      1  0.7730536559404  0.5556186454184  0.5013714185877 1.0
C      1  0.4576552790771  0.7862375678083  0.6874874487588 1.0
C      1  0.6239978969041  0.6527554427916  0.2698206274968 1.0
C      1  0.8179739267419  0.3823438049117  0.5880985852822 1.0
C      1  0.7086979504861  0.3513203728969  0.3601424907442 1.0
C      1  0.3814976991842  0.6870457231882  0.5775612665168 1.0
C      1  0.7131879698574  0.2434944454500  0.4995394811478 1.0
END
