TITL C-368229-50-6 -1.869 3375.00 0 0 0 38 (C1) n - 1
REM
REM Run started: at 2020.03.16 02:34:12 in /rds/user/bk393/hpc-work/AIRSS.pl-DENE/CARBON/New-Try
REM VASP from code version vasp.5.4.4.18Apr17-6-g9f103f2a35 (build Oct 11 2019 16:45:47) gamma-only
REM
REM
REM
REM
REM ./C.cell (9f5935e56d41cf50cb14479ce98dda23)
REM AIRSS Version 0.9.1 bugfix July 2018 build 013d7b7c2542+ Fri, 06 Jul 2018 19:26:36 +0100
REM compiler GCC version 4.8.5 20150623 (Red Hat 4.8.5-39)
REM options -cpp -mtune=generic -march=x86-64 -g -O0
REM seed -419474215 348517462 -1411259374 -844718583 -381555968 -1527498401 -343674603 722836399 398623661 -1086565165 669440359 -53763623
REM
REM C.POTCAR (d86ddea03c3ceb6dc662c8ad6801f873)
REM 
CELL 1.54180   15.00000   15.00000   15.00000   90.00000   90.00000   90.00000
LATT -1
SFAC C  
C      1  0.5481623183824  0.4315091726448  0.6213417729733 1.0
C      1  0.5819564244691  0.5823385470689  0.6557053549192 1.0
C      1  0.6767353895488  0.5115406164765  0.5467824245690 1.0
C      1  0.4054830454119  0.4606160080161  0.5145346634684 1.0
C      1  0.4521137200773  0.2711301435894  0.5362878900601 1.0
C      1  0.6658958540305  0.6218038121688  0.4183795337579 1.0
C      1  0.4899121721318  0.6930736996138  0.4327144377603 1.0
C      1  0.4028475608459  0.6908625576348  0.3984896941882 1.0
C      1  0.3622252378834  0.6014454274586  0.5792779464251 1.0
C      1  0.3985188889897  0.5120799773764  0.3327144504843 1.0
C      1  0.6863686034408  0.5985393716408  0.5076605690564 1.0
C      1  0.6572998826054  0.3687672014215  0.4605826573949 1.0
C      1  0.4962714355066  0.4854044589891  0.3032672208454 1.0
C      1  0.3867259556096  0.5502811226433  0.4970585862877 1.0
C      1  0.4310529101059  0.3096964434579  0.4539606584600 1.0
C      1  0.3104278291398  0.4580820304927  0.6587034855920 1.0
C      1  0.3114953127649  0.5401467898578  0.6357705284400 1.0
C      1  0.6113996246345  0.5022251648479  0.6198278480259 1.0
C      1  0.4515079938755  0.4365367097273  0.6025428147816 1.0
C      1  0.3921215053460  0.4255346533318  0.3618533034830 1.0
C      1  0.5479797026228  0.7168367020984  0.5065617257267 1.0
C      1  0.5485686646161  0.2805158213329  0.5388819621163 1.0
C      1  0.5543213535531  0.5562027798092  0.3326728479090 1.0
C      1  0.5091109334245  0.3253149638234  0.3927845878221 1.0
C      1  0.4950382951852  0.6102106540543  0.3884223274429 1.0
C      1  0.5849919372758  0.3122155989933  0.4528474865602 1.0
C      1  0.4980018741018  0.7013465568347  0.5899716131962 1.0
C      1  0.6452785974981  0.5746875052824  0.3433300989319 1.0
C      1  0.4092951019629  0.6776492045176  0.5938436406449 1.0
C      1  0.4824371007870  0.3929290876980  0.3298000370851 1.0
C      1  0.3997411260226  0.5837441587943  0.4018237723443 1.0
C      1  0.5473759884703  0.6575370153306  0.6590618789845 1.0
C      1  0.3843883772843  0.3934250462914  0.4518736540434 1.0
C      1  0.4330456347959  0.3239013383354  0.6204192164184 1.0
C      1  0.6926077197537  0.4355344228296  0.4956694515275 1.0
C      1  0.3802473514304  0.3942789494222  0.6548843283201 1.0
C      1  0.6309782956476  0.6749016637731  0.4932438297473 1.0
C      1  0.5380702807679  0.3371547223212  0.6164517002063 1.0
END
