TITL C-36692-9277-15 -8.588 3375.00 -1578.68370298 0 0 190 (C1) n - 1
REM
REM Run started: at 2021.01.21 04:02:39 in /rds/project/t2_vol4/rds-t2-cs072/BORA/CARBON/AIRSS/Generating-Clusters/Str-Search/Only-C1/C100-200
REM VASP from code version vasp.5.4.4.18Apr17-6-g9f103f2a35 (build Oct 11 2019 16:45:47) gamma-only
REM
REM
REM
REM
REM ./C.cell (efaf0b2bf1589a83377268d7ebe2c73f)
REM AIRSS Version 0.9.1 bugfix July 2018 build 013d7b7c2542+ Fri, 06 Jul 2018 19:26:36 +0100
REM compiler GCC version 4.8.5 20150623 (Red Hat 4.8.5-39)
REM options -cpp -mtune=generic -march=x86-64 -g -O0
REM seed -1154454423 -2074468056 -1429549 -1807229214 307820688 -966369722 -751329681 908495565 650179178 1203438823 1774415491 -1269794005
REM
REM C.POTCAR (d86ddea03c3ceb6dc662c8ad6801f873)
REM 
CELL 1.54180   15.00000   15.00000   15.00000   90.00000   90.00000   90.00000
LATT -1
SFAC C  
C      1  0.2481460639461  0.2832361157377  0.3297934096755 1.0
C      1  0.5973295959389  0.2782888620747  0.7855683019261 1.0
C      1  0.2831959816231  0.8708284882352  0.6671967913545 1.0
C      1  0.2877318114842  0.5698097226583  0.8055154982710 1.0
C      1  0.4629278618434  0.7220708846112  0.4199405212800 1.0
C      1  0.5909177466181  0.6378273071645  0.7319373366459 1.0
C      1  0.2760992639654  0.5995114426706  0.4234456403577 1.0
C      1  0.7615181364675  0.5070003222496  0.7193166502738 1.0
C      1  0.4801109972548  0.5852357751198  0.5017443394251 1.0
C      1  0.5197670860952  0.4706811923032  0.9646657997386 1.0
C      1  0.8173879344291  0.5753286509617  0.5651045306246 1.0
C      1  0.3062363447840  0.3835090910416  0.2159637365719 1.0
C      1  0.7789889992490  0.2015763540962  0.4054392631300 1.0
C      1  0.0897929663114  0.5383152798208  0.5367911459295 1.0
C      1  0.4034350337893  0.8885942829827  0.4500485684916 1.0
C      1  0.5333708820540  0.4825493941033  0.0644655774603 1.0
C      1  0.7429730039583  0.2293632034960  0.6021922996440 1.0
C      1  0.8394940407688  0.3278427304934  0.4965820157674 1.0
C      1  0.5203262304991  0.5820836788825  0.0923876073469 1.0
C      1  0.2048663667356  0.3495873141725  0.6312275422086 1.0
C      1  0.8421824991748  0.5029986304841  0.5048742087288 1.0
C      1  0.5608800734137  0.1925922510803  0.7527911315828 1.0
C      1  0.4472205220456  0.4772277186307  0.2086880739890 1.0
C      1  0.2398389562350  0.3726299854363  0.2857722139959 1.0
C      1  0.2785062243786  0.8112329690946  0.7270122702304 1.0
C      1  0.3466016465781  0.7670871602562  0.2671020495328 1.0
C      1  0.6251340391963  0.4553448778344  0.1099101971080 1.0
C      1  0.0427995092051  0.6166295168003  0.5306447748609 1.0
C      1  0.2591584136830  0.5659287116937  0.7038402890210 1.0
C      1  0.3845877841691  0.8861075401661  0.3573384160412 1.0
C      1  0.6321846032969  0.1701240206325  0.3693156605737 1.0
C      1  0.7594433872475  0.7187274734732  0.5972944801312 1.0
C      1  0.7089414679593  0.2837123059185  0.2810497978849 1.0
C      1  0.2967604097906  0.6632430331486  0.5797169198486 1.0
C      1  0.4631984631025  0.3457763254393  0.4013976170926 1.0
C      1  0.4244932628845  0.3531835735046  0.4975418365998 1.0
C      1  0.5410044559445  0.1476284279121  0.4054397495718 1.0
C      1  0.3614674987144  0.1566433262622  0.5983323494884 1.0
C      1  0.4028956358418  0.7984223720250  0.5470981813159 1.0
C      1  0.3881629995714  0.1992550739107  0.3863897619329 1.0
C      1  0.4677470359760  0.8083171317850  0.4716288626635 1.0
C      1  0.3864267915956  0.3212638094309  0.1935309869697 1.0
C      1  0.5775861131193  0.8922146442996  0.4246995005559 1.0
C      1  0.8962234691938  0.6953973010190  0.4851172079019 1.0
C      1  0.4686304245861  0.3424177792737  0.1381466627283 1.0
C      1  0.2436732947761  0.4873372836445  0.8474308143647 1.0
C      1  0.8090477765749  0.2926958278737  0.5823089735421 1.0
C      1  0.5569453659711  0.3574220906504  0.3723029445915 1.0
C      1  0.5800930287778  0.5775947040169  0.6681317775063 1.0
C      1  0.6980744650450  0.7845465135921  0.3713697102792 1.0
C      1  0.6913446108187  0.2881246450021  0.7568158205390 1.0
C      1  0.2813573816404  0.3297658156893  0.8515535725826 1.0
C      1  0.4315780596393  0.5102758319782  0.5388833917258 1.0
C      1  0.5581722266459  0.6103246249595  0.3614679852474 1.0
C      1  0.4012597943160  0.4005820000603  0.3485993227030 1.0
C      1  0.6345720472664  0.3730542479479  0.1555662326672 1.0
C      1  0.4745157148818  0.1966847162266  0.2584457569836 1.0
C      1  0.5690040516903  0.5734148151804  0.4591087493540 1.0
C      1  0.7130556997728  0.6008244799410  0.3749863433835 1.0
C      1  0.7842056215627  0.7652348148643  0.3750242126076 1.0
C      1  0.5277478023214  0.5525208483646  0.9073502388052 1.0
C      1  0.3797033967957  0.6602574788653  0.0615198276987 1.0
C      1  0.5854705956384  0.5412257694171  0.2993251378184 1.0
C      1  0.7521982814330  0.5727218895064  0.6420884846582 1.0
C      1  0.8092083577997  0.4527830206937  0.3468908433307 1.0
C      1  0.3598313178798  0.8857466548236  0.5362603545688 1.0
C      1  0.1103475525572  0.5881987394299  0.3445615820235 1.0
C      1  0.2532249149755  0.4085120033647  0.8885536521196 1.0
C      1  0.4467168679899  0.1496219093091  0.6384929052960 1.0
C      1  0.7719512719437  0.6668540597896  0.7725770142738 1.0
C      1  0.6987850278693  0.1673707597749  0.4375665822114 1.0
C      1  0.7818824365181  0.2639985385819  0.3348485989155 1.0
C      1  0.1133695094799  0.3906407722986  0.4973954909277 1.0
C      1  0.6942505721384  0.5864407218668  0.2108550183722 1.0
C      1  0.8335257686892  0.5196671065540  0.4080408097329 1.0
C      1  0.7958838584026  0.4145990109501  0.7053168820080 1.0
C      1  0.6012811807958  0.6138532759249  0.1179581744142 1.0
C      1  0.6064152246394  0.1422996207062  0.5997702907126 1.0
C      1  0.5375705679619  0.4757570048155  0.2582760380058 1.0
C      1  0.1868752475284  0.5011197267606  0.6850077633834 1.0
C      1  0.1994022450996  0.2515909434379  0.5045054095707 1.0
C      1  0.3310060610372  0.5076191287802  0.5583769301462 1.0
C      1  0.5477028554765  0.3574960327161  0.7796159378021 1.0
C      1  0.2759741565411  0.6832893382453  0.3758777392113 1.0
C      1  0.6641831640983  0.5398108532637  0.1326971484199 1.0
C      1  0.6139774467582  0.4862916698246  0.4823748128360 1.0
C      1  0.3924715406987  0.4383276849696  0.7930903044077 1.0
C      1  0.3905451512954  0.4103058953752  0.2532906310570 1.0
C      1  0.8406552589316  0.7002119313298  0.4037992231435 1.0
C      1  0.3539258725905  0.4593116689043  0.3963265405990 1.0
C      1  0.5465580474303  0.0567184990394  0.4298267555825 1.0
C      1  0.2994431025341  0.9214338690401  0.5956326815761 1.0
C      1  0.2862190834244  0.5866089861566  0.5161119539421 1.0
C      1  0.1378135695603  0.3989006173682  0.5880956486008 1.0
C      1  0.4918742143001  0.4027998524191  0.9155107994103 1.0
C      1  0.3724700433923  0.7127241577522  0.5487126369868 1.0
C      1  0.1008719360824  0.4770117522560  0.4600357517685 1.0
C      1  0.4688526376041  0.3847336670470  0.8304025582369 1.0
C      1  0.8507595627894  0.4159133609262  0.5382716497075 1.0
C      1  0.5118423784796  0.7324806527355  0.8125094651097 1.0
C      1  0.6019315146281  0.7386681992756  0.2370805865214 1.0
C      1  0.6855573510628  0.5389796959544  0.3018699744325 1.0
C      1  0.7311509589353  0.3721252792944  0.7618791509179 1.0
C      1  0.6066539402442  0.8045618931495  0.5836640138936 1.0
C      1  0.8049565633915  0.6118492357381  0.3843692152242 1.0
C      1  0.4367674276942  0.6647573229954  0.4897137621003 1.0
C      1  0.3170694513862  0.2502867473700  0.8194742261160 1.0
C      1  0.1421994855038  0.3112876071771  0.4616327628841 1.0
C      1  0.8279523460466  0.6659087901177  0.5489314437131 1.0
C      1  0.4647640599707  0.8649497581266  0.3013119098266 1.0
C      1  0.4332141141214  0.2597075505061  0.4531543002680 1.0
C      1  0.5655212670674  0.8086400509334  0.6664948360491 1.0
C      1  0.2385250571506  0.7764206890930  0.3776373461825 1.0
C      1  0.5566171643816  0.3091896630040  0.1671672573456 1.0
C      1  0.1275989125450  0.4909100237701  0.6154064320361 1.0
C      1  0.3385794421736  0.5868049792778  0.2706637748640 1.0
C      1  0.5281569928642  0.7913551959146  0.7403073293903 1.0
C      1  0.1163638454521  0.6723973142497  0.3530243067173 1.0
C      1  0.3477564366992  0.6999824692335  0.8959192364679 1.0
C      1  0.6235252914960  0.3229506757288  0.4372936478540 1.0
C      1  0.1522567666650  0.7533614332269  0.3595098456300 1.0
C      1  0.2871266376946  0.6710741980097  0.8243881424279 1.0
C      1  0.4871049843133  0.3673415747902  0.5723072963582 1.0
C      1  0.5711133329690  0.8151812952805  0.4887280319094 1.0
C      1  0.7619289587824  0.6695682188532  0.6830941181716 1.0
C      1  0.7534368074084  0.5770494963834  0.7974120636917 1.0
C      1  0.6059816509651  0.5891148505581  0.8738128004462 1.0
C      1  0.3907382492847  0.2011522197704  0.7782863154679 1.0
C      1  0.5641265008056  0.9789056755218  0.4449711059715 1.0
C      1  0.6581065526109  0.5514924331871  0.6205796539851 1.0
C      1  0.6752238850210  0.4589217139841  0.7723861263812 1.0
C      1  0.3096820149758  0.8301489350461  0.3293241439705 1.0
C      1  0.3683761672215  0.4412931181016  0.4911175840938 1.0
C      1  0.4989657941164  0.6832448760688  0.3420538838777 1.0
C      1  0.6269131857397  0.8028995710381  0.3039513305047 1.0
C      1  0.2321696664354  0.2651443288510  0.5929591178311 1.0
C      1  0.5174185847225  0.1516527014348  0.5748124309037 1.0
C      1  0.6814742734562  0.5368489709779  0.8412427037309 1.0
C      1  0.6271863669220  0.1646181262344  0.6893098344293 1.0
C      1  0.4645882947015  0.1597906647542  0.3445815696575 1.0
C      1  0.3867065282160  0.5379878272893  0.8131401809848 1.0
C      1  0.5866558460673  0.6662315437918  0.8145706398544 1.0
C      1  0.4691486624114  0.1711297540307  0.7343267448208 1.0
C      1  0.6365041849399  0.6459542347408  0.4226613895194 1.0
C      1  0.6726704678654  0.1896694186725  0.5361639218206 1.0
C      1  0.5995765842045  0.2646091863466  0.5126675445550 1.0
C      1  0.5593521339776  0.2307948969176  0.2286088525333 1.0
C      1  0.5889515421932  0.4289064377978  0.7197605078661 1.0
C      1  0.2964755281062  0.5271023659463  0.3508030915254 1.0
C      1  0.3989105949250  0.5645247916939  0.2024644774881 1.0
C      1  0.4695684202472  0.4341313060957  0.1208018109069 1.0
C      1  0.2981672259718  0.2125385402552  0.6379312550958 1.0
C      1  0.7051651630885  0.2206450899183  0.6895410371144 1.0
C      1  0.4145484173218  0.4995926701458  0.7180899425177 1.0
C      1  0.5144901426564  0.4969425464362  0.6820152439294 1.0
C      1  0.6154430992752  0.4125948893804  0.4311936775944 1.0
C      1  0.2937430976415  0.4078995649522  0.7862853249051 1.0
C      1  0.6456794871997  0.4701846678036  0.5720954186720 1.0
C      1  0.4392822239074  0.6879384494590  0.8553449785303 1.0
C      1  0.6801651131564  0.3758679869619  0.2500182200737 1.0
C      1  0.7360126232680  0.4507878608422  0.2947200439895 1.0
C      1  0.4496160152523  0.5914198345764  0.8660800251242 1.0
C      1  0.1311838719526  0.5017249429565  0.3710310557212 1.0
C      1  0.3171918244431  0.6765927714948  0.2910168625409 1.0
C      1  0.4809309479383  0.4558192486518  0.5994214487395 1.0
C      1  0.6860984065993  0.7573063353374  0.5540635463487 1.0
C      1  0.2015464711222  0.2658328964509  0.4078982078599 1.0
C      1  0.2137597855224  0.4594823436274  0.3294238538916 1.0
C      1  0.2672474003592  0.6573685306639  0.6679692561428 1.0
C      1  0.5582662325870  0.8623453810701  0.3341559036253 1.0
C      1  0.5709270205031  0.3281693226697  0.5833482350002 1.0
C      1  0.3497062205295  0.6827670479642  0.9860546055584 1.0
C      1  0.2488456319705  0.4186460289634  0.6933983977858 1.0
C      1  0.5165031070377  0.2065266489678  0.4885428283753 1.0
C      1  0.6254608688740  0.3961201591769  0.6259401044064 1.0
C      1  0.3231766861090  0.4964826190015  0.6591596052759 1.0
C      1  0.3306410735650  0.2339699954223  0.3163617358458 1.0
C      1  0.5822892957971  0.3909416243512  0.2818588639059 1.0
C      1  0.6490011428920  0.7453121043667  0.4560205822533 1.0
C      1  0.8272750559967  0.2815974269919  0.4188332954626 1.0
C      1  0.6383152653075  0.2165923468103  0.2840397696709 1.0
C      1  0.5047362296439  0.7233831839827  0.2535947096239 1.0
C      1  0.3145741971790  0.2210273283817  0.7296758045761 1.0
C      1  0.9789466435376  0.6627130416051  0.5017146625584 1.0
C      1  0.2747878310542  0.7195655501244  0.7427443087294 1.0
C      1  0.8309829944417  0.3784152485021  0.6263577709861 1.0
C      1  0.3887760718281  0.2397936883049  0.2416959575717 1.0
C      1  0.4374351770366  0.7911182783486  0.2481096616203 1.0
C      1  0.4282938914202  0.6118568116929  0.1222332137821 1.0
C      1  0.6411080996548  0.6675398496839  0.1905119585349 1.0
END
