TITL C-36692-9277-10 -7.979 3375.00 -1410.73102447 0 0 172 (C1) n - 1
REM
REM Run started: at 2021.01.20 23:10:22 in /rds/project/t2_vol4/rds-t2-cs072/BORA/CARBON/AIRSS/Generating-Clusters/Str-Search/Only-C1/C100-200
REM VASP from code version vasp.5.4.4.18Apr17-6-g9f103f2a35 (build Oct 11 2019 16:45:47) gamma-only
REM
REM
REM
REM
REM ./C.cell (efaf0b2bf1589a83377268d7ebe2c73f)
REM AIRSS Version 0.9.1 bugfix July 2018 build 013d7b7c2542+ Fri, 06 Jul 2018 19:26:36 +0100
REM compiler GCC version 4.8.5 20150623 (Red Hat 4.8.5-39)
REM options -cpp -mtune=generic -march=x86-64 -g -O0
REM seed -388171399 993991792 -1025730556 631262569 1268624299 -1943770044 -1038272783 -1155695346 559560640 442933504 -1330882688 840331357
REM
REM C.POTCAR (d86ddea03c3ceb6dc662c8ad6801f873)
REM 
CELL 1.54180   15.00000   15.00000   15.00000   90.00000   90.00000   90.00000
LATT -1
SFAC C  
C      1  0.3261886569304  0.1994658679305  0.6759248624304 1.0
C      1  0.4712656996297  0.1306916777534  0.5278045298805 1.0
C      1  0.6023651739643  0.4586519284716  0.3596736575567 1.0
C      1  0.3503790991908  0.5163533642148  0.7090266930773 1.0
C      1  0.8427113057700  0.4948016267941  0.6682238012983 1.0
C      1  0.7716488470399  0.5806480941618  0.4946220576886 1.0
C      1  0.1232807574133  0.5017529311050  0.6752455851677 1.0
C      1  0.4890015299647  0.1723384064325  0.7055135193849 1.0
C      1  0.5091144069094  0.7295887731259  0.4835540318609 1.0
C      1  0.5325199028991  0.7672393659594  0.3079785501206 1.0
C      1  0.6110928522032  0.8284187196406  0.3162080922086 1.0
C      1  0.7893625344422  0.6074192934363  0.2914963895090 1.0
C      1  0.5889428501100  0.3247889995808  0.4595229348909 1.0
C      1  0.6790047277589  0.7995854263926  0.7052026933723 1.0
C      1  0.8437036611202  0.4553144603475  0.3560337858504 1.0
C      1  0.3800100824545  0.1455019171365  0.5215030044080 1.0
C      1  0.5939244407104  0.5048371749748  0.6181975422990 1.0
C      1  0.3538012274645  0.3340005842815  0.1845099367287 1.0
C      1  0.5303746419708  0.4867285656100  0.7909052301763 1.0
C      1  0.6270045063517  0.5579363358641  0.3852559281204 1.0
C      1  0.4588256024330  0.2988039403854  0.4080135851400 1.0
C      1  0.7092163358914  0.4315033235509  0.2490426918899 1.0
C      1  0.7247526374149  0.5328277448018  0.7839068625169 1.0
C      1  0.6425023576692  0.7469111199799  0.7729536812705 1.0
C      1  0.2778953423670  0.7591226204188  0.4582409695422 1.0
C      1  0.5519896670191  0.2704025894913  0.3975908354673 1.0
C      1  0.3751727236724  0.7522140769416  0.8006857598394 1.0
C      1  0.4245488135792  0.2142393089907  0.2436801781167 1.0
C      1  0.4537374945242  0.8748576268629  0.5327410656637 1.0
C      1  0.3035345350461  0.4074373136095  0.1630985863459 1.0
C      1  0.5130255032861  0.0929227393810  0.4459102641146 1.0
C      1  0.8732411297933  0.4234032378649  0.6138439393957 1.0
C      1  0.4675374987010  0.8222145622580  0.4579545701306 1.0
C      1  0.3948597392233  0.3093516978874  0.2671292946421 1.0
C      1  0.4947287169301  0.6506914912168  0.4115431135616 1.0
C      1  0.6718322186472  0.5924404632116  0.8073548775112 1.0
C      1  0.6112312678839  0.5630050891224  0.5297946758533 1.0
C      1  0.2765231024796  0.6291338080894  0.1887649719652 1.0
C      1  0.4355649368655  0.2738363451392  0.5879863721291 1.0
C      1  0.3882046499792  0.6847935747541  0.2902237373562 1.0
C      1  0.7001679694921  0.3092671070734  0.7414125577051 1.0
C      1  0.2525678369489  0.4682637051982  0.2212345766409 1.0
C      1  0.3265228773518  0.4853909214708  0.1025580467290 1.0
C      1  0.5701845460475  0.3852337627982  0.9068099848815 1.0
C      1  0.2195854058874  0.4636036400900  0.3122054139979 1.0
C      1  0.2812485312869  0.2800538089630  0.5099549361706 1.0
C      1  0.2702664131225  0.5417405019496  0.1618791088183 1.0
C      1  0.3675372440466  0.6025723541047  0.8629308961069 1.0
C      1  0.2251209526195  0.7553152267455  0.6026529875797 1.0
C      1  0.6567927620509  0.2396699242893  0.6810726766488 1.0
C      1  0.3692889697582  0.6540756320444  0.5389374084977 1.0
C      1  0.8331329727466  0.3422348651670  0.6411975879732 1.0
C      1  0.4360443317799  0.8851887308206  0.6125780308133 1.0
C      1  0.5602293805000  0.4055603151648  0.1902914185455 1.0
C      1  0.4991707208295  0.8245579679342  0.7516162337309 1.0
C      1  0.6189268236023  0.9625462436337  0.4178123715968 1.0
C      1  0.5608669801498  0.4139122989436  0.5815212148667 1.0
C      1  0.6924474291119  0.5288024728602  0.4595938859979 1.0
C      1  0.4036979811685  0.8229097760402  0.3838512022025 1.0
C      1  0.7449356162404  0.3030840221081  0.3164166759348 1.0
C      1  0.4335913600212  0.5158273118992  0.2837240656187 1.0
C      1  0.2721680707443  0.5728510362838  0.6909492598100 1.0
C      1  0.8848855675660  0.4714876847079  0.4393000757459 1.0
C      1  0.4692041717208  0.7580418961999  0.8136673177990 1.0
C      1  0.6288195818824  0.8738811938627  0.4050010677820 1.0
C      1  0.0594743586704  0.5435573743203  0.6335831833527 1.0
C      1  0.5719109954234  0.2024309915700  0.6776859696559 1.0
C      1  0.3363696839057  0.4335426143439  0.7595980844676 1.0
C      1  0.3381514493096  0.1713075968253  0.2847958447057 1.0
C      1  0.4207567995444  0.8546354612247  0.6983872593794 1.0
C      1  0.7058753903703  0.8344542599636  0.5535267141878 1.0
C      1  0.3182631677407  0.8257291852301  0.4192287955053 1.0
C      1  0.3316734855080  0.6703143798544  0.8041325597616 1.0
C      1  0.5785563699696  0.4055179230479  0.8126398380190 1.0
C      1  0.5012923812301  0.5204427438767  0.8708001439972 1.0
C      1  0.6903972754532  0.4320012057038  0.4161548485522 1.0
C      1  0.0810441555530  0.6204612500680  0.4959329293769 1.0
C      1  0.5141162063584  0.4658225950773  0.4179829058859 1.0
C      1  0.1880795770651  0.3779863232894  0.3444090516099 1.0
C      1  0.6686093996421  0.4432825604825  0.6634735849617 1.0
C      1  0.2783676788281  0.6607520108254  0.7245969688223 1.0
C      1  0.5544517516683  0.6801652848428  0.3328429627626 1.0
C      1  0.7876279934908  0.7086248185876  0.6125506175520 1.0
C      1  0.9092386550394  0.4586639821058  0.5316761818672 1.0
C      1  0.7573159337554  0.4019242586366  0.3373306513081 1.0
C      1  0.7615361296877  0.4655448563819  0.7194703678629 1.0
C      1  0.1347135966655  0.4603900125443  0.7591341784948 1.0
C      1  0.3029100168694  0.6872001836083  0.2418024996848 1.0
C      1  0.4812738520875  0.4634251744866  0.0305987022062 1.0
C      1  0.8514966071300  0.6638427565079  0.6575092665984 1.0
C      1  0.4219380976274  0.3547369889387  0.3416596907703 1.0
C      1  0.7132759117767  0.6606751131085  0.2818415723133 1.0
C      1  0.2178735705458  0.3008855419706  0.3017127507343 1.0
C      1  0.7531981806167  0.5303987322082  0.1173790769692 1.0
C      1  0.5014003672242  0.1917242300676  0.6045529581529 1.0
C      1  0.3439772944697  0.3611480339552  0.5044432268614 1.0
C      1  0.2788151074233  0.4596139721911  0.8378116567026 1.0
C      1  0.3426150252100  0.2206250146885  0.5791799809723 1.0
C      1  0.4349761733713  0.5973416106731  0.2666658250212 1.0
C      1  0.7360461630393  0.7935246706616  0.6280552718113 1.0
C      1  0.4321578450298  0.3457929875656  0.6596450038115 1.0
C      1  0.9290704703607  0.5609540031420  0.5549879754812 1.0
C      1  0.4027206092141  0.1845059058992  0.7345733110279 1.0
C      1  0.4377354350945  0.3306027137940  0.4998038330257 1.0
C      1  0.7865616462232  0.2889003083408  0.5810008976904 1.0
C      1  0.6534948494559  0.8175074196696  0.4834832939335 1.0
C      1  0.6363281612868  0.3820416989102  0.7476276864054 1.0
C      1  0.8629709522803  0.5548237681442  0.4832960064752 1.0
C      1  0.4377138411728  0.7745022900730  0.3084043535402 1.0
C      1  0.3965287186360  0.6555173523665  0.3868660631380 1.0
C      1  0.1604921360657  0.6539439093198  0.4739205739905 1.0
C      1  0.6757936365234  0.2396470896235  0.3014735054931 1.0
C      1  0.7780238404297  0.3581845309330  0.7205619733219 1.0
C      1  0.5133725546339  0.5010467324840  0.6930908160446 1.0
C      1  0.8779900328108  0.5783699949959  0.6412354688542 1.0
C      1  0.7426482304691  0.6529820194307  0.5449639644206 1.0
C      1  0.3433358926778  0.8057869452770  0.7272495748630 1.0
C      1  0.3423664681171  0.2578274382462  0.7467293072411 1.0
C      1  0.2038061872639  0.7353492439607  0.5181296810083 1.0
C      1  0.5185014606413  0.6792350477319  0.8434095734984 1.0
C      1  0.6791251161774  0.3564200595936  0.4814518829716 1.0
C      1  0.7455708122910  0.4660198109530  0.1699506223277 1.0
C      1  0.7371248640920  0.6978201146756  0.1332576762395 1.0
C      1  0.6171942065206  0.4305667978821  0.2643394332409 1.0
C      1  0.1878931043531  0.3194872229205  0.5055432628394 1.0
C      1  0.5854777106132  0.2244833346503  0.3217790505966 1.0
C      1  0.3160548539850  0.4525348205081  0.5011974675485 1.0
C      1  0.4324652053041  0.2764590882257  0.1600268855396 1.0
C      1  0.6701102372470  0.8082563213168  0.2523537630708 1.0
C      1  0.7614423164088  0.2313987865916  0.2587431765812 1.0
C      1  0.6054851580555  0.7329812058653  0.5035153240393 1.0
C      1  0.4209613392083  0.6183231957440  0.6086988043325 1.0
C      1  0.4222376146531  0.4555153178273  0.3619703598958 1.0
C      1  0.3218135893213  0.6608646041652  0.4513197340994 1.0
C      1  0.8282199615321  0.5391767810990  0.3156540353459 1.0
C      1  0.4963243634945  0.4083290691897  0.6538861041157 1.0
C      1  0.6554841444473  0.3739106284351  0.5850398052956 1.0
C      1  0.5056256639072  0.3371968182350  0.1501833972978 1.0
C      1  0.5810759577198  0.0340609283142  0.4398289961233 1.0
C      1  0.3387923191692  0.4889725317941  0.4136444216948 1.0
C      1  0.4290351961300  0.5492841626147  0.6721827316318 1.0
C      1  0.2678513907681  0.2311783320793  0.3311090618518 1.0
C      1  0.6468547502307  0.6579979510045  0.5344301857842 1.0
C      1  0.4635925528130  0.6085987446995  0.8753414758591 1.0
C      1  0.3646288703793  0.3513370862063  0.7303758027429 1.0
C      1  0.5233646527654  0.4170803141582  0.1061243747385 1.0
C      1  0.2836515939499  0.2190039673905  0.4273042779493 1.0
C      1  0.3345336164209  0.1431153875991  0.4389523494692 1.0
C      1  0.3731167858531  0.1187419379422  0.3539226334136 1.0
C      1  0.5210634469731  0.3917002333207  0.4926682804423 1.0
C      1  0.6364954569217  0.6353544332790  0.3278400376110 1.0
C      1  0.7091298448116  0.7356660779918  0.2165649125849 1.0
C      1  0.3163735528050  0.5284371378097  0.8813621437747 1.0
C      1  0.5917029397022  0.8184935385591  0.7366186438207 1.0
C      1  0.2723182346521  0.7510429089411  0.6807260744573 1.0
C      1  0.7379154342669  0.2756968237848  0.5045913799041 1.0
C      1  0.6881327132379  0.2775959141671  0.5965547773670 1.0
C      1  0.2564363664213  0.5316238771811  0.3777586459251 1.0
C      1  0.4688535913554  0.1162329200064  0.3582848051355 1.0
C      1  0.7510580478672  0.6196933035463  0.1066603873175 1.0
C      1  0.0257639455485  0.5825823363256  0.5545036482602 1.0
C      1  0.2520803562048  0.4837819468753  0.5586267047307 1.0
C      1  0.2363821107895  0.6089765432506  0.4275601893130 1.0
C      1  0.4527325335173  0.6872907628331  0.5532110809817 1.0
C      1  0.3992998069731  0.4942623691088  0.0519772536764 1.0
C      1  0.2162862436206  0.5205241381004  0.6301615808822 1.0
C      1  0.5438535204059  0.5629476451803  0.4458825039722 1.0
C      1  0.5037613399339  0.1726611379429  0.2923052651261 1.0
C      1  0.6143296494433  0.6696926657420  0.8170589319350 1.0
C      1  0.5200448665290  0.4546554714335  0.9422825768621 1.0
C      1  0.1868773286059  0.4427851148026  0.8206544061998 1.0
C      1  0.1627428765666  0.3567240788366  0.4343877282582 1.0
END
