TITL C-36692-9277-5 -5.274 3375.00 -921.00080460 0 0 112 (C1) n - 1
REM
REM Run started: at 2021.01.20 19:31:38 in /rds/project/t2_vol4/rds-t2-cs072/BORA/CARBON/AIRSS/Generating-Clusters/Str-Search/Only-C1/C100-200
REM VASP from code version vasp.5.4.4.18Apr17-6-g9f103f2a35 (build Oct 11 2019 16:45:47) gamma-only
REM
REM
REM
REM
REM ./C.cell (efaf0b2bf1589a83377268d7ebe2c73f)
REM AIRSS Version 0.9.1 bugfix July 2018 build 013d7b7c2542+ Fri, 06 Jul 2018 19:26:36 +0100
REM compiler GCC version 4.8.5 20150623 (Red Hat 4.8.5-39)
REM options -cpp -mtune=generic -march=x86-64 -g -O0
REM seed 1177469452 1580301238 917716322 -1374217830 1315755317 -914372581 1575477868 -1103377516 843159548 -1727806898 1582340180 1543382257
REM
REM C.POTCAR (d86ddea03c3ceb6dc662c8ad6801f873)
REM 
CELL 1.54180   15.00000   15.00000   15.00000   90.00000   90.00000   90.00000
LATT -1
SFAC C  
C      1  0.5807257619523  0.4592104942878  0.3502646374000 1.0
C      1  0.5487507204415  0.2174601193317  0.3689446768026 1.0
C      1  0.8678959290555  0.5136849594121  0.4877746282910 1.0
C      1  0.5557338270621  0.6005275860909  0.4390039991855 1.0
C      1  0.6020638449882  0.6879216633745  0.4153144906505 1.0
C      1  0.6011323165287  0.1964483944962  0.5323457817344 1.0
C      1  0.5974999092121  0.5819191000175  0.5894508635310 1.0
C      1  0.7417155843534  0.5306692799233  0.6260014808992 1.0
C      1  0.3195536039394  0.6362805454606  0.4631082762287 1.0
C      1  0.2743898313106  0.2464857214231  0.5241075017193 1.0
C      1  0.2838238312185  0.5983482084565  0.7420128986176 1.0
C      1  0.6512156201206  0.3031073086174  0.6377241476909 1.0
C      1  0.7036961508129  0.3267893869027  0.4834962067320 1.0
C      1  0.3508489135592  0.3637608596254  0.3260834301161 1.0
C      1  0.6108241790970  0.2798389846861  0.3288159285515 1.0
C      1  0.3428706912512  0.8026048959636  0.6285070343234 1.0
C      1  0.4857565677058  0.6806296760999  0.3070425286963 1.0
C      1  0.5974631309975  0.4373832016212  0.7186887030431 1.0
C      1  0.2146713629426  0.7379784166556  0.5891100709979 1.0
C      1  0.4420474246047  0.3502302055044  0.5067111962857 1.0
C      1  0.7775427160299  0.6186814355497  0.6025182525880 1.0
C      1  0.6603274673165  0.5765056623899  0.6681909860106 1.0
C      1  0.2441934843483  0.3100689249119  0.4578796058032 1.0
C      1  0.8439053502474  0.5958013124524  0.4527247606871 1.0
C      1  0.4366871662294  0.7314352987218  0.3717457893700 1.0
C      1  0.7569093136549  0.4888943719454  0.3759711632288 1.0
C      1  0.7677466700403  0.7374829410567  0.4939615408163 1.0
C      1  0.4881168300600  0.3556107252043  0.2321798329324 1.0
C      1  0.6041294716504  0.7585695540311  0.4869579337462 1.0
C      1  0.6673137110109  0.3925688097093  0.6622526594108 1.0
C      1  0.7385696701193  0.6485037895861  0.3206766521737 1.0
C      1  0.3935795811282  0.5140020321670  0.5633455027589 1.0
C      1  0.4528528312155  0.2523426139278  0.3602509865275 1.0
C      1  0.4233496374915  0.7798135066784  0.6635969043665 1.0
C      1  0.4178195207995  0.1498081805646  0.5331144724395 1.0
C      1  0.6718010998363  0.7502320929699  0.6337711853697 1.0
C      1  0.4794667317365  0.4463483141265  0.2011960403864 1.0
C      1  0.5189483977174  0.6277373033565  0.5903489531884 1.0
C      1  0.3629453374536  0.2256766693650  0.4002057194196 1.0
C      1  0.4133674259184  0.6958560475397  0.7105403668496 1.0
C      1  0.5102310401698  0.3945895007428  0.7209963375290 1.0
C      1  0.5943007444800  0.5327983114914  0.5078060600667 1.0
C      1  0.4275561719694  0.4832484354742  0.8098453708245 1.0
C      1  0.6825642010631  0.4350868595632  0.3410625306209 1.0
C      1  0.2923390276418  0.7796462593440  0.5566408556841 1.0
C      1  0.5143146196599  0.7942610833210  0.6226159085504 1.0
C      1  0.4241664849491  0.4534747601532  0.7155767407265 1.0
C      1  0.2801677735836  0.6454159334299  0.3751146435495 1.0
C      1  0.2435504370267  0.5244767908091  0.6933766334160 1.0
C      1  0.4014087869073  0.4148853282721  0.5722815968314 1.0
C      1  0.4340021225659  0.5753936239789  0.8080116541245 1.0
C      1  0.4485145935490  0.7330237383527  0.4752130754075 1.0
C      1  0.7341951469364  0.4383196704892  0.6069972603476 1.0
C      1  0.3445265574685  0.7313920588858  0.4850604472613 1.0
C      1  0.5212084445508  0.5375190264175  0.3660856798136 1.0
C      1  0.1892380780122  0.4607983477582  0.4456826480418 1.0
C      1  0.3649169351118  0.6372609580665  0.7759786527147 1.0
C      1  0.5662936283706  0.4434234068596  0.5042611364415 1.0
C      1  0.8130384111108  0.6567338430051  0.5201157000815 1.0
C      1  0.3958142606672  0.5702753979879  0.4790804940148 1.0
C      1  0.4831453280189  0.3304382010757  0.4254770145417 1.0
C      1  0.3432207862449  0.2984465307981  0.6671448005063 1.0
C      1  0.4769798978755  0.1174923686209  0.4658598519584 1.0
C      1  0.4219476737541  0.5373576392011  0.6473718909331 1.0
C      1  0.4563773798544  0.5824326807682  0.3047610358105 1.0
C      1  0.2612985618555  0.4393481561594  0.6575531010134 1.0
C      1  0.5913026532204  0.7769718289323  0.6715095153089 1.0
C      1  0.5564301454674  0.1677396105507  0.4519218510435 1.0
C      1  0.5803124858612  0.3346058990889  0.2590555568386 1.0
C      1  0.3651391609820  0.4618919808845  0.3246013368590 1.0
C      1  0.3425849146849  0.7193253578445  0.3834729034341 1.0
C      1  0.2689697917713  0.2898068455045  0.6075854471624 1.0
C      1  0.4230715994569  0.2513718754599  0.6745888505437 1.0
C      1  0.5666488500900  0.3889796883336  0.4202789129778 1.0
C      1  0.6214972591636  0.4239287069282  0.2603943943601 1.0
C      1  0.4764898124143  0.6343051023668  0.4978667005176 1.0
C      1  0.5206675101423  0.7792021879886  0.5263964679107 1.0
C      1  0.3539273129412  0.3977754264902  0.6683396124397 1.0
C      1  0.4715045525467  0.6236735869666  0.6748453467173 1.0
C      1  0.5196268812403  0.5847065338557  0.7581916313025 1.0
C      1  0.5017664505293  0.3002025583016  0.7073561568203 1.0
C      1  0.5508157286202  0.1865071074669  0.6141471778229 1.0
C      1  0.4264979320221  0.3170183728268  0.2902030189654 1.0
C      1  0.2580700231986  0.5670706287334  0.3261433562493 1.0
C      1  0.8014800391718  0.4551932160218  0.4560078349253 1.0
C      1  0.6848180325965  0.7647119878051  0.5390812855817 1.0
C      1  0.2055728103987  0.5108944726761  0.3822645790690 1.0
C      1  0.5907646725164  0.5631194309194  0.1670906634378 1.0
C      1  0.6641428004294  0.2684632592462  0.5464927128924 1.0
C      1  0.5972292689399  0.5321658508702  0.7336853686947 1.0
C      1  0.5897767029320  0.6443406352972  0.1871618947433 1.0
C      1  0.2035962429873  0.3862122822634  0.4998416334649 1.0
C      1  0.6484085193947  0.6953089489803  0.3289336936306 1.0
C      1  0.4203021059450  0.5253813355539  0.3882993089222 1.0
C      1  0.4553935626179  0.1794069448608  0.6155332551367 1.0
C      1  0.3445299489260  0.1927126655046  0.4882652929625 1.0
C      1  0.4103599246093  0.5109763390336  0.2431106074184 1.0
C      1  0.5708925249358  0.4795966522971  0.1928284123333 1.0
C      1  0.3107051303613  0.5167413723609  0.2605922132967 1.0
C      1  0.4987158850175  0.4030105177702  0.5582423668861 1.0
C      1  0.7132888703999  0.6650586742055  0.6550891061560 1.0
C      1  0.7815492605487  0.5802981056392  0.3680413613829 1.0
C      1  0.6598955868268  0.3439598711407  0.3930598139633 1.0
C      1  0.3043553151798  0.3030105118113  0.3831266585036 1.0
C      1  0.7750610727990  0.7640889035035  0.4076387173367 1.0
C      1  0.7552340703388  0.3981708509269  0.5186651975427 1.0
C      1  0.2236189958316  0.3774185608763  0.5948480540332 1.0
C      1  0.5785625855729  0.2547345901447  0.6747441166622 1.0
C      1  0.5748251376844  0.6920838933378  0.2637276193300 1.0
C      1  0.7400151083204  0.7446144005560  0.3282484784637 1.0
C      1  0.1734325131750  0.6762856300497  0.6280097072983 1.0
C      1  0.2105814386354  0.6121992925937  0.6845625982771 1.0
END
