TITL C-368229-50-10 -0.362 3375.00 0 0 0 7 (Cs) n - 1
REM
REM Run started: at 2020.03.16 04:20:52 in /rds/user/bk393/hpc-work/AIRSS.pl-DENE/CARBON/New-Try
REM VASP from code version vasp.5.4.4.18Apr17-6-g9f103f2a35 (build Oct 11 2019 16:45:47) gamma-only
REM
REM
REM
REM
REM ./C.cell (9f5935e56d41cf50cb14479ce98dda23)
REM AIRSS Version 0.9.1 bugfix July 2018 build 013d7b7c2542+ Fri, 06 Jul 2018 19:26:36 +0100
REM compiler GCC version 4.8.5 20150623 (Red Hat 4.8.5-39)
REM options -cpp -mtune=generic -march=x86-64 -g -O0
REM seed -35333805 -700648275 711784416 -1574532114 -1645941868 846966406 -51414189 -1313534875 611199099 -1168500101 -1230601542 -2053214097
REM
REM C.POTCAR (d86ddea03c3ceb6dc662c8ad6801f873)
REM 
CELL 1.54180   15.00000   15.00000   15.00000   90.00000   90.00000   90.00000
LATT -1
SFAC C  
C      1  0.4433659444765  0.4722450763198  0.6142361033996 1.0
C      1  0.5518053147627  0.5445201703146  0.4435682032740 1.0
C      1  0.4503057205434  0.4457789443332  0.5252792985217 1.0
C      1  0.5019797771002  0.5293065543920  0.5706499023477 1.0
C      1  0.5583030283176  0.5830680191569  0.5233093297862 1.0
C      1  0.4705333353896  0.4394918050774  0.4411953858937 1.0
C      1  0.5237068794099  0.4855895304061  0.3817617767771 1.0
END
