TITL C-37654-2908-8 -8.77 3375.00 -1578.53748493 0 0 192 (C1) n - 1
REM
REM Run started: at 2020.12.24 08:11:53 in /rds/project/t2_vol4/rds-t2-cs072/BORA/CARBON/AIRSS/Generating-Clusters/Str-Search/Only-C1/C100-200
REM VASP from code version vasp.5.4.4.18Apr17-6-g9f103f2a35 (build Oct 11 2019 16:45:47) gamma-only
REM
REM
REM
REM
REM ./C.cell (efaf0b2bf1589a83377268d7ebe2c73f)
REM AIRSS Version 0.9.1 bugfix July 2018 build 013d7b7c2542+ Fri, 06 Jul 2018 19:26:36 +0100
REM compiler GCC version 4.8.5 20150623 (Red Hat 4.8.5-39)
REM options -cpp -mtune=generic -march=x86-64 -g -O0
REM seed 415301398 -1249458880 -1697448642 -858259086 -1003095259 1655270146 -710420983 -795093554 -1935756850 368247782 -889425470 721040812
REM
REM C.POTCAR (d86ddea03c3ceb6dc662c8ad6801f873)
REM 
CELL 1.54180   15.00000   15.00000   15.00000   90.00000   90.00000   90.00000
LATT -1
SFAC C  
C      1  0.6154604714334  0.7819087435636  0.3403221135665 1.0
C      1  0.7335612899246  0.6106280323335  0.5524143157469 1.0
C      1  0.3616493942524  0.8575129051547  0.4703075534066 1.0
C      1  0.2441242422576  0.4043146696361  0.8099222535156 1.0
C      1  0.1506548654107  0.4652656248101  0.3470175520254 1.0
C      1  0.8156021791355  0.3166325250325  0.5286524131621 1.0
C      1  0.6591415893031  0.6913605826462  0.7427229177631 1.0
C      1  0.5875186611569  0.6994891875531  0.5656176193456 1.0
C      1  0.3595050878565  0.1405026389764  0.4589003043233 1.0
C      1  0.2760321664060  0.2194500311210  0.5673920374329 1.0
C      1  0.6477454845596  0.5496217488329  0.1526046032770 1.0
C      1  0.2513803715097  0.4654605471588  0.5108424561222 1.0
C      1  0.1715079887019  0.5375492463420  0.2834330196267 1.0
C      1  0.5045807784240  0.6273864815500  0.3375515382378 1.0
C      1  0.4476522840689  0.8616440043796  0.5030272301184 1.0
C      1  0.4237576239126  0.3869474377903  0.3552667489834 1.0
C      1  0.4242143446050  0.6866820872312  0.5411990854506 1.0
C      1  0.4260836406175  0.4466151665455  0.7180755910560 1.0
C      1  0.1833941702810  0.3776640527177  0.3505878648145 1.0
C      1  0.8957869943375  0.4365012443610  0.4031234450833 1.0
C      1  0.4710331232860  0.3270818746688  0.5797744192874 1.0
C      1  0.7768747234364  0.5485727413571  0.7598093246586 1.0
C      1  0.8651945337516  0.4694880810625  0.6235009208205 1.0
C      1  0.1261401690046  0.4850619460997  0.4375795169867 1.0
C      1  0.2818513479069  0.8229031698703  0.6726519903919 1.0
C      1  0.7433760039010  0.2743680892038  0.3068335883433 1.0
C      1  0.5805337422789  0.7601665768515  0.2511926395123 1.0
C      1  0.3658988569242  0.7812881062457  0.3108440573612 1.0
C      1  0.4084097256549  0.7316173060721  0.2318689952370 1.0
C      1  0.1713633552155  0.7086553756103  0.2593412912976 1.0
C      1  0.5139505699832  0.3253695878707  0.6757498170471 1.0
C      1  0.7454560905958  0.4021919259600  0.7148836123972 1.0
C      1  0.2941003108429  0.3077874358921  0.7920807844452 1.0
C      1  0.2433756468807  0.3091150991849  0.3144696859225 1.0
C      1  0.5763165475871  0.2613675316255  0.2393075820817 1.0
C      1  0.6594413429443  0.4366927028955  0.6604174287755 1.0
C      1  0.8163586272322  0.6715674845640  0.5536387561359 1.0
C      1  0.1328226336375  0.5793353117840  0.4646546093630 1.0
C      1  0.2835552611760  0.2031790106964  0.4699487400999 1.0
C      1  0.3908527073179  0.4046967200013  0.1105299549678 1.0
C      1  0.6350935122906  0.6145757446827  0.2917688605327 1.0
C      1  0.6245982388949  0.5190778858057  0.3194618296239 1.0
C      1  0.4418786598440  0.3514742905517  0.7423621450152 1.0
C      1  0.3626446264539  0.5450210444420  0.3769343271712 1.0
C      1  0.1918120281052  0.5360039180502  0.7251224165668 1.0
C      1  0.3146898060657  0.7342798731585  0.6481467730641 1.0
C      1  0.4823198010601  0.4355803574488  0.8969813354658 1.0
C      1  0.6535656545428  0.8494173563917  0.5326385341377 1.0
C      1  0.4309106250348  0.5176094222627  0.8860273158947 1.0
C      1  0.5888002579645  0.8227585973650  0.6860852183047 1.0
C      1  0.7058625190531  0.5913876282904  0.6374087745282 1.0
C      1  0.1999980021749  0.7226870483073  0.4129639540388 1.0
C      1  0.7567482227119  0.7818828233820  0.6482488616375 1.0
C      1  0.3880034434011  0.5305289769499  0.5433143540807 1.0
C      1  0.3876853070236  0.5065326719127  0.1466733372512 1.0
C      1  0.8171142633393  0.5231853949819  0.2859149181516 1.0
C      1  0.6368956514403  0.5233366852502  0.4201750330662 1.0
C      1  0.8118116389317  0.4771955707491  0.6984122382706 1.0
C      1  0.6107481536965  0.7604693576819  0.5059647268898 1.0
C      1  0.5452853189285  0.3684319606553  0.8620826392202 1.0
C      1  0.1385553866279  0.6286376132199  0.3005018469895 1.0
C      1  0.3302918471099  0.6788587266063  0.1900863822659 1.0
C      1  0.2991934061117  0.2943724956444  0.2417181402804 1.0
C      1  0.6741058629446  0.1857819350357  0.3991587346185 1.0
C      1  0.7896162559539  0.7513895913673  0.4989822042746 1.0
C      1  0.4947091068414  0.8917395508794  0.5840965842508 1.0
C      1  0.3404659610075  0.5232759212608  0.2826523715787 1.0
C      1  0.5467192878938  0.5689682811461  0.2670793590422 1.0
C      1  0.3569540281458  0.5402190069933  0.6287908413074 1.0
C      1  0.5483479888128  0.5791939410678  0.1585064167888 1.0
C      1  0.1631619236094  0.4138940759733  0.5097279845355 1.0
C      1  0.5065759666283  0.2556430663618  0.1848245271735 1.0
C      1  0.4544389773545  0.7417197706829  0.7662328154594 1.0
C      1  0.6162830248015  0.1522415148041  0.4679764369968 1.0
C      1  0.7688610088557  0.4426480195854  0.2687090842037 1.0
C      1  0.6678020004253  0.4269492136580  0.5616727586706 1.0
C      1  0.4421927310255  0.7669822558431  0.4782565804489 1.0
C      1  0.3634474590217  0.2953654245411  0.7185676858934 1.0
C      1  0.2528246893117  0.5302551130302  0.2375177522330 1.0
C      1  0.7817044388103  0.6132188305805  0.2746487226408 1.0
C      1  0.2003151479924  0.7700809640983  0.3314045372731 1.0
C      1  0.4386643814147  0.1444300601383  0.4023455896182 1.0
C      1  0.5259778993747  0.3024481037117  0.4237696631621 1.0
C      1  0.4891032042917  0.4330773238125  0.0896329589194 1.0
C      1  0.3539213663826  0.4407089309437  0.5041886833526 1.0
C      1  0.3673245396761  0.7715887929126  0.4120589313390 1.0
C      1  0.4917819564223  0.6729257998300  0.8223830014818 1.0
C      1  0.9149170074543  0.4458591213043  0.4950059547356 1.0
C      1  0.6413957497148  0.4535781643526  0.1633132545434 1.0
C      1  0.8128038614327  0.6617136751192  0.3555339690628 1.0
C      1  0.4847145226326  0.1102528462874  0.5455473424013 1.0
C      1  0.2922483384161  0.7042104220494  0.4576398148479 1.0
C      1  0.7779469536533  0.2639816444765  0.6042478841634 1.0
C      1  0.5680087944624  0.4051850705625  0.6757736591069 1.0
C      1  0.5395910003650  0.1408467687985  0.6147118344774 1.0
C      1  0.6778905745239  0.7841153630967  0.7087336721562 1.0
C      1  0.4950621516031  0.8190680331784  0.7257926201157 1.0
C      1  0.6376939332521  0.3532636469586  0.8282420598846 1.0
C      1  0.5195326257812  0.1277450500516  0.4563057151336 1.0
C      1  0.2970338232131  0.6008783829042  0.4342422926262 1.0
C      1  0.2419087578617  0.2674514897392  0.4121950109471 1.0
C      1  0.7625758023565  0.3075394233837  0.6860133778834 1.0
C      1  0.6189303441877  0.5049892497151  0.5167633041644 1.0
C      1  0.5187167796278  0.6280472885941  0.5605087377502 1.0
C      1  0.3563874435266  0.3263673430305  0.1515148833869 1.0
C      1  0.1388242509440  0.4134922281144  0.6191539216912 1.0
C      1  0.4789293346710  0.5237990620240  0.1114303036681 1.0
C      1  0.3267036971913  0.3544874896219  0.6405718236573 1.0
C      1  0.7313556542151  0.3712509843471  0.5045606215376 1.0
C      1  0.3283367929002  0.7045280758306  0.5612090267847 1.0
C      1  0.4438401576808  0.2941854038174  0.3762200867391 1.0
C      1  0.3508412910219  0.8712741615605  0.6728069417746 1.0
C      1  0.8748166547632  0.3919255269955  0.5601945740786 1.0
C      1  0.8768325231037  0.5192529048372  0.3610122690167 1.0
C      1  0.7049987808437  0.7901821487711  0.3754853129232 1.0
C      1  0.3140456375132  0.3729343325419  0.8670821363370 1.0
C      1  0.3974061268600  0.2024260904687  0.6851283592902 1.0
C      1  0.3481254861966  0.1715785519572  0.6105638928749 1.0
C      1  0.4463822895938  0.6009955093646  0.4955054206767 1.0
C      1  0.8781038071966  0.6062267469890  0.5062744691142 1.0
C      1  0.3437727907583  0.6215906302115  0.7835842672093 1.0
C      1  0.6662692919852  0.3539920137527  0.4389905205871 1.0
C      1  0.6942287099513  0.6270827327305  0.2124815684358 1.0
C      1  0.4475235245827  0.5935676657142  0.3982934069658 1.0
C      1  0.5353158981646  0.3201635569959  0.5136340923331 1.0
C      1  0.6841847742164  0.5699533302701  0.4816421484157 1.0
C      1  0.8050649485352  0.7023256208382  0.6543512298735 1.0
C      1  0.1845195273209  0.3406275029503  0.4392237406732 1.0
C      1  0.5533280906413  0.6785194199543  0.1497253948080 1.0
C      1  0.0835450439909  0.5668853790004  0.6123256219327 1.0
C      1  0.9025068906832  0.5263140203636  0.5479101772839 1.0
C      1  0.5038232802830  0.4726507118708  0.6496156148147 1.0
C      1  0.2793502346823  0.7937924087984  0.2830522600085 1.0
C      1  0.0757218824683  0.6060709170641  0.5398394750083 1.0
C      1  0.7072630847758  0.4159618865514  0.8099151483884 1.0
C      1  0.1746619281314  0.3404123155161  0.6660698473017 1.0
C      1  0.3682120545919  0.2271809095000  0.2528770023798 1.0
C      1  0.6211197230967  0.3544319324443  0.5209961574375 1.0
C      1  0.8572663484751  0.3535387773813  0.3737358528644 1.0
C      1  0.6963435291982  0.2435697600360  0.7120517527921 1.0
C      1  0.6296440076679  0.1613644812952  0.5716556411281 1.0
C      1  0.2335596388968  0.5513821433926  0.4808546935405 1.0
C      1  0.3791553375749  0.4472558579813  0.4086608238415 1.0
C      1  0.4621495365307  0.4062965548527  0.2690501877846 1.0
C      1  0.8324377363187  0.2822126552112  0.4343942740655 1.0
C      1  0.6319069033751  0.8180525684099  0.4350603430236 1.0
C      1  0.3873914954141  0.3624811844824  0.5642086196876 1.0
C      1  0.5728845630967  0.5611806591814  0.7506867747338 1.0
C      1  0.4220324579069  0.6059016493105  0.8503176304754 1.0
C      1  0.7445618677328  0.8120572633518  0.5558895640477 1.0
C      1  0.5576866886482  0.5389114317508  0.5925745697860 1.0
C      1  0.3324899680456  0.4553631172883  0.6816149800325 1.0
C      1  0.2541668019829  0.7281097444133  0.2133841129682 1.0
C      1  0.6738375616783  0.4583070858239  0.2542810729674 1.0
C      1  0.7640317785019  0.2295389217620  0.3883532973029 1.0
C      1  0.1417738023461  0.6470255387782  0.3937939080893 1.0
C      1  0.6304928866578  0.5377167290133  0.6674281631072 1.0
C      1  0.4131006853728  0.2460076409271  0.1721309357345 1.0
C      1  0.3755062213538  0.6950554871585  0.7208180686155 1.0
C      1  0.6992734286828  0.2016310805404  0.6205134621931 1.0
C      1  0.2652773504627  0.4792059719073  0.7526639615763 1.0
C      1  0.5843017742367  0.8755053294808  0.6001029312077 1.0
C      1  0.7757337012369  0.7389294339193  0.4028049291572 1.0
C      1  0.2018626404344  0.3316056574492  0.7633793399928 1.0
C      1  0.1277135135444  0.5049713465650  0.6622722621543 1.0
C      1  0.4194173721761  0.2166063235233  0.3366643896566 1.0
C      1  0.6092895032406  0.3135717962703  0.3786487669466 1.0
C      1  0.4084727491989  0.4723320672985  0.2367788637482 1.0
C      1  0.4428979172432  0.8740770617086  0.6672099037445 1.0
C      1  0.5312415711237  0.3495173537151  0.2152375882419 1.0
C      1  0.3884712524841  0.4292183888792  0.8897499917818 1.0
C      1  0.2579617734416  0.5734239695640  0.7771633304499 1.0
C      1  0.4000078816254  0.5962462735175  0.6991783749060 1.0
C      1  0.4792144213766  0.5322850553793  0.7276250633900 1.0
C      1  0.4918495811119  0.3070122062754  0.8144319526357 1.0
C      1  0.5829914088949  0.6431624842201  0.7926031621430 1.0
C      1  0.7944736378426  0.3557830316072  0.2992545963653 1.0
C      1  0.3208473468643  0.5806244446868  0.1876991644271 1.0
C      1  0.4956444897465  0.7379291778731  0.2037387762209 1.0
C      1  0.5670907614382  0.4037561222121  0.1408878048142 1.0
C      1  0.3908231478913  0.1178513664824  0.5460426393576 1.0
C      1  0.7255316273736  0.5077780048557  0.8274962126675 1.0
C      1  0.6441960156174  0.2490734385771  0.3118992341054 1.0
C      1  0.6367620432537  0.7094282714417  0.1815285434823 1.0
C      1  0.8692311876371  0.6025237376384  0.4087057202827 1.0
C      1  0.5838023129378  0.6872893547184  0.3338112189508 1.0
C      1  0.5400335370672  0.2491749671672  0.7480912202442 1.0
C      1  0.4920904437680  0.1804487478512  0.6918454483997 1.0
C      1  0.2463309137009  0.2999014036962  0.6134868940565 1.0
C      1  0.7489058758598  0.6372509111281  0.7125933303114 1.0
C      1  0.6334008377776  0.2679499744285  0.7723705006455 1.0
C      1  0.6090606107965  0.7257572709500  0.6585266678463 1.0
END
