TITL C-37654-2908-4 -6.96 3375.00 -1187.01799640 0 0 145 (C1) n - 1
REM
REM Run started: at 2020.12.24 01:34:07 in /rds/project/t2_vol4/rds-t2-cs072/BORA/CARBON/AIRSS/Generating-Clusters/Str-Search/Only-C1/C100-200
REM VASP from code version vasp.5.4.4.18Apr17-6-g9f103f2a35 (build Oct 11 2019 16:45:47) gamma-only
REM
REM
REM
REM
REM ./C.cell (efaf0b2bf1589a83377268d7ebe2c73f)
REM AIRSS Version 0.9.1 bugfix July 2018 build 013d7b7c2542+ Fri, 06 Jul 2018 19:26:36 +0100
REM compiler GCC version 4.8.5 20150623 (Red Hat 4.8.5-39)
REM options -cpp -mtune=generic -march=x86-64 -g -O0
REM seed 816693149 2140492888 2085413429 -1916401795 -29592725 -266438377 -1084010652 433618938 949939162 -1138406476 -257863157 342288495
REM
REM C.POTCAR (d86ddea03c3ceb6dc662c8ad6801f873)
REM 
CELL 1.54180   15.00000   15.00000   15.00000   90.00000   90.00000   90.00000
LATT -1
SFAC C  
C      1  0.6429112065820  0.2301157457742  0.2969148887978 1.0
C      1  0.5104807850185  0.3357177566694  0.4808886456429 1.0
C      1  0.4596572358634  0.1279856170380  0.4100468327243 1.0
C      1  0.4085678943006  0.5522952422364  0.3991291993511 1.0
C      1  0.2814579511930  0.7719935752125  0.6227956655346 1.0
C      1  0.5563340255558  0.3331001505116  0.2121298755225 1.0
C      1  0.3254334712251  0.5045991498303  0.5307554830788 1.0
C      1  0.2901382741480  0.4008465021972  0.1440858925066 1.0
C      1  0.6271890402656  0.4234721083022  0.6746103101184 1.0
C      1  0.6227615269238  0.7367795846198  0.7603196961670 1.0
C      1  0.4252471972890  0.2879931615212  0.4629435279486 1.0
C      1  0.2997507116084  0.3647941093722  0.2317918025470 1.0
C      1  0.2977500454321  0.4355621978963  0.3781529094292 1.0
C      1  0.4240475714983  0.3902469689721  0.4623556707286 1.0
C      1  0.6079143641960  0.7414181022505  0.2590907550793 1.0
C      1  0.6026365027598  0.1672033393942  0.4676301603408 1.0
C      1  0.3087496362588  0.3118542367411  0.6652439617334 1.0
C      1  0.6968639665817  0.7317846610428  0.7001826665680 1.0
C      1  0.2113694487254  0.6085267685550  0.5333731248672 1.0
C      1  0.7779239892527  0.3541845863859  0.2988292724954 1.0
C      1  0.4883676383481  0.8633504154132  0.5107113741201 1.0
C      1  0.2516704491659  0.4651512849189  0.4665421400391 1.0
C      1  0.4953250206845  0.2943024500028  0.7413821705220 1.0
C      1  0.1499448222374  0.5386165879137  0.3109096589951 1.0
C      1  0.9113596441744  0.4888404282221  0.5165650852515 1.0
C      1  0.6201052178217  0.5240853605064  0.2530099210210 1.0
C      1  0.5609227711852  0.4488823665137  0.8227645127970 1.0
C      1  0.5608307831222  0.2467692381745  0.2423371196083 1.0
C      1  0.6964639795102  0.4813515738042  0.6183090837048 1.0
C      1  0.3835005313464  0.3197645695174  0.2517380357327 1.0
C      1  0.7874314325252  0.6717608976055  0.4884728191984 1.0
C      1  0.6153078580665  0.6142784957346  0.2088271424408 1.0
C      1  0.4949529604595  0.6870320036797  0.5423063811474 1.0
C      1  0.4422590072402  0.3772321770097  0.6214355887760 1.0
C      1  0.7596504626295  0.3567173683274  0.5276406999033 1.0
C      1  0.9117600514576  0.5140921776147  0.4378368175479 1.0
C      1  0.2335098836387  0.4468036028605  0.8302898320308 1.0
C      1  0.3713532584844  0.4126822709057  0.1118651158403 1.0
C      1  0.7829621806737  0.4227198265572  0.6035761839104 1.0
C      1  0.6543731701358  0.4876980893404  0.5267240789531 1.0
C      1  0.6114185118860  0.8692257288257  0.3894695171716 1.0
C      1  0.5944725619973  0.6713044256913  0.8294098065198 1.0
C      1  0.5071663632702  0.3702974319949  0.7996847257545 1.0
C      1  0.3563071773085  0.6283845833179  0.6255827065078 1.0
C      1  0.1363897285786  0.2625534970038  0.5635273656677 1.0
C      1  0.1933424778269  0.6853031852861  0.3989508765379 1.0
C      1  0.4814750383344  0.1312483624164  0.5703875977782 1.0
C      1  0.2517315187159  0.4094467321232  0.3001954434417 1.0
C      1  0.6549951972898  0.5639999290149  0.3398850889165 1.0
C      1  0.4693379007884  0.4398709630738  0.3018274166986 1.0
C      1  0.6455325143939  0.7839868234268  0.6272331542333 1.0
C      1  0.4950164256892  0.7713911943772  0.3471854079627 1.0
C      1  0.5733526114100  0.7920685098963  0.6970126252971 1.0
C      1  0.6662199126624  0.6437145418776  0.8909626852045 1.0
C      1  0.3339999770665  0.7639653679437  0.3876302305584 1.0
C      1  0.7229599621650  0.6524095415695  0.6431076547765 1.0
C      1  0.2599385023517  0.7232665697051  0.3409838581418 1.0
C      1  0.2410777675660  0.2367607225162  0.6745352907624 1.0
C      1  0.4529142348476  0.4355865462940  0.1306885435177 1.0
C      1  0.8204366291762  0.3283695508837  0.4601596425784 1.0
C      1  0.7675078216441  0.4490022391201  0.2703570121165 1.0
C      1  0.6175694636130  0.2538830436952  0.6290369486229 1.0
C      1  0.7049802227768  0.5284131591626  0.7687932233521 1.0
C      1  0.4573972046303  0.2917576925762  0.5591958617536 1.0
C      1  0.2902415760126  0.7054630149524  0.2511561550930 1.0
C      1  0.5784587554589  0.8025294962224  0.3276707950088 1.0
C      1  0.4015028785327  0.4494208457213  0.3793245681620 1.0
C      1  0.5971363055858  0.5522906444447  0.4929731365664 1.0
C      1  0.4216085401473  0.7248848329169  0.3621873420789 1.0
C      1  0.6259786536799  0.2362550451819  0.5286939626869 1.0
C      1  0.8198610066844  0.3311353328473  0.3777886532225 1.0
C      1  0.3872063280004  0.2057176633050  0.4044584829124 1.0
C      1  0.3268605477974  0.8004385659609  0.4738104503679 1.0
C      1  0.2942217649145  0.3644841854126  0.5824760816022 1.0
C      1  0.5381900059968  0.6758725698245  0.2083637330873 1.0
C      1  0.5196613642958  0.1450119426317  0.3427302801716 1.0
C      1  0.7150366790059  0.7332965611529  0.5113330753711 1.0
C      1  0.8010729823411  0.5319133069845  0.3051287390431 1.0
C      1  0.6525252467008  0.8785108807828  0.4778985917359 1.0
C      1  0.5426545138641  0.4933776631144  0.3143504954454 1.0
C      1  0.8603970089181  0.4808668897202  0.5936637421262 1.0
C      1  0.4407868714856  0.6639412275837  0.1845432325346 1.0
C      1  0.4058309488530  0.4820087098265  0.8288203520113 1.0
C      1  0.8011737450630  0.6347168492998  0.4032566463678 1.0
C      1  0.6453386982114  0.3662798098165  0.2198391084204 1.0
C      1  0.5382432929166  0.2389703195627  0.6810029678210 1.0
C      1  0.4477036998047  0.6490541376832  0.7563073759755 1.0
C      1  0.2217845347305  0.3877568838359  0.5283951674194 1.0
C      1  0.4803797215695  0.5176852026542  0.6675572926149 1.0
C      1  0.5758903977139  0.6416047294753  0.5372213060091 1.0
C      1  0.2562778330935  0.1743528402935  0.5194475953936 1.0
C      1  0.4792229323018  0.2094481463420  0.6100885191114 1.0
C      1  0.6769102414804  0.6738019927155  0.2535577078464 1.0
C      1  0.6675688280034  0.3300618895410  0.6561966104896 1.0
C      1  0.4760132597389  0.7849104180958  0.5744507939067 1.0
C      1  0.2141208017599  0.3716808906551  0.7906120910376 1.0
C      1  0.5628357566321  0.8999639204409  0.4648481367224 1.0
C      1  0.6815007605534  0.4513910049269  0.2272251955812 1.0
C      1  0.4172697682012  0.3955029997230  0.7929603862246 1.0
C      1  0.7022452841841  0.5865823284992  0.8403945030979 1.0
C      1  0.3046183461158  0.1855852434322  0.4536082776938 1.0
C      1  0.5140968479123  0.6198566541442  0.8199069070734 1.0
C      1  0.7364870409004  0.6166158431711  0.3234924415239 1.0
C      1  0.4988359114778  0.5224342692598  0.8389456436432 1.0
C      1  0.2257096429909  0.3080598806267  0.7303984635071 1.0
C      1  0.5140979852181  0.1184423646280  0.4881320571139 1.0
C      1  0.1750283845357  0.4641759008739  0.2849879186161 1.0
C      1  0.8037085796536  0.6387157964027  0.5811384574492 1.0
C      1  0.1633809144172  0.5924298023291  0.3855589234915 1.0
C      1  0.3399725483478  0.7207618516305  0.6658172150800 1.0
C      1  0.4136881500369  0.6358473916768  0.5413122619432 1.0
C      1  0.2033229038367  0.6981561080364  0.4947111368025 1.0
C      1  0.8564730382422  0.5589753424097  0.3768120677577 1.0
C      1  0.7014359476404  0.3035621225603  0.2701095444455 1.0
C      1  0.6382756030571  0.4632162981182  0.7669479882686 1.0
C      1  0.5863185580090  0.5397976993638  0.3931720579512 1.0
C      1  0.4070587456917  0.8308740481711  0.5169827277488 1.0
C      1  0.1397917421703  0.3405649432328  0.5312988335460 1.0
C      1  0.5210616819640  0.4411982851605  0.6474227299405 1.0
C      1  0.4208265201324  0.5830278602154  0.6899087515437 1.0
C      1  0.6533492520155  0.6900977395121  0.5764974716604 1.0
C      1  0.7360819178206  0.5566041304754  0.6761423732009 1.0
C      1  0.4010455984834  0.3366874168945  0.7091637800163 1.0
C      1  0.3163328769984  0.5026509265612  0.8494919996940 1.0
C      1  0.6104774256975  0.1727623893945  0.3692366489615 1.0
C      1  0.2361888969422  0.5242321831427  0.8860895873474 1.0
C      1  0.8289440555614  0.5630129854172  0.6296777150106 1.0
C      1  0.6079376969557  0.3280643028450  0.4865593172063 1.0
C      1  0.7555729985051  0.3317811951162  0.6260659730235 1.0
C      1  0.3875739728028  0.5683609540524  0.4874028505348 1.0
C      1  0.4862346131590  0.2050944839090  0.2802664748313 1.0
C      1  0.4677592393686  0.6175678125189  0.2581457470421 1.0
C      1  0.4847709821442  0.7883521737651  0.6751396096192 1.0
C      1  0.2802035701177  0.5753546866175  0.5873262679094 1.0
C      1  0.3746176121459  0.4170366997755  0.5546590010805 1.0
C      1  0.4661208140473  0.3784906590542  0.2168949670326 1.0
C      1  0.2581806912787  0.7655430357084  0.5321128679692 1.0
C      1  0.4033172075283  0.2431597419580  0.3035911841282 1.0
C      1  0.2015605080706  0.2029036504252  0.5920616486563 1.0
C      1  0.6703390176137  0.3941850973668  0.4941741831665 1.0
C      1  0.3543926322477  0.7022042612794  0.1972900203206 1.0
C      1  0.4300273199749  0.6243318260464  0.3449692423372 1.0
C      1  0.1897828795978  0.5458979996541  0.4628451680859 1.0
C      1  0.6879116028156  0.8190741426977  0.5403076449517 1.0
C      1  0.4186007979503  0.7342527672847  0.7221737912132 1.0
END
