TITL C-37654-2908-1 -8.797 3375.00 -1572.65473717 0 0 191 (C1) n - 1
REM
REM Run started: at 2020.12.23 21:47:49 in /rds/project/t2_vol4/rds-t2-cs072/BORA/CARBON/AIRSS/Generating-Clusters/Str-Search/Only-C1/C100-200
REM VASP from code version vasp.5.4.4.18Apr17-6-g9f103f2a35 (build Oct 11 2019 16:45:47) gamma-only
REM
REM
REM
REM
REM ./C.cell (efaf0b2bf1589a83377268d7ebe2c73f)
REM AIRSS Version 0.9.1 bugfix July 2018 build 013d7b7c2542+ Fri, 06 Jul 2018 19:26:36 +0100
REM compiler GCC version 4.8.5 20150623 (Red Hat 4.8.5-39)
REM options -cpp -mtune=generic -march=x86-64 -g -O0
REM seed -1069842870 -1118502494 1778006904 39864138 -1963204131 -1461382141 -1525177953 857439258 -762338650 -44165104 -1001972487 -1855291575
REM
REM C.POTCAR (d86ddea03c3ceb6dc662c8ad6801f873)
REM 
CELL 1.54180   15.00000   15.00000   15.00000   90.00000   90.00000   90.00000
LATT -1
SFAC C  
C      1  0.3382467696168  0.5616225025076  0.3612878258001 1.0
C      1  0.1801363989696  0.2949395390435  0.6074980913568 1.0
C      1  0.3282239797371  0.7742406355542  0.7004756127678 1.0
C      1  0.2075317545322  0.6710281408712  0.4815628463990 1.0
C      1  0.0851799726602  0.6992314835301  0.6432860197913 1.0
C      1  0.6382928708956  0.1655897002891  0.3244775209160 1.0
C      1  0.4798751713261  0.8098167991302  0.6728396670255 1.0
C      1  0.4716003249730  0.2817955365693  0.2024670136596 1.0
C      1  0.0820001605546  0.5853426168243  0.5337742576267 1.0
C      1  0.6199924262317  0.5026150744155  0.2190087175178 1.0
C      1  0.4814182643185  0.2026570167415  0.7377554761182 1.0
C      1  0.3328495581693  0.4384703675030  0.2507854205545 1.0
C      1  0.5131299934813  0.6430901175963  0.3842513553849 1.0
C      1  0.7995079589826  0.5887607828733  0.7616914554685 1.0
C      1  0.7971982934550  0.6722641398036  0.5946325801298 1.0
C      1  0.1791675296129  0.4492234256525  0.6341114782903 1.0
C      1  0.8419340607097  0.2775365508962  0.4235337517730 1.0
C      1  0.5102874599450  0.6117212475965  0.4758600387059 1.0
C      1  0.6891234196979  0.3854313842411  0.5118148266387 1.0
C      1  0.1720459187988  0.3746043335698  0.3197910621268 1.0
C      1  0.6938955742388  0.4279559747506  0.5995677780003 1.0
C      1  0.6775587540823  0.5388680780086  0.8849775231607 1.0
C      1  0.3042303048420  0.5498534638537  0.6405441138905 1.0
C      1  0.2017577588386  0.2872196752665  0.4521582250351 1.0
C      1  0.5174144971154  0.6554308356402  0.2338066831825 1.0
C      1  0.2176699801692  0.2921283724825  0.3466654834683 1.0
C      1  0.7697179333209  0.5342920637846  0.2352082839637 1.0
C      1  0.3874872115069  0.1031513627696  0.4653441213529 1.0
C      1  0.8272433986949  0.6924864985000  0.4172173315485 1.0
C      1  0.3723767003975  0.8107883455951  0.5368902340524 1.0
C      1  0.7942314933140  0.3651638834820  0.2963244334661 1.0
C      1  0.3831478425724  0.7365708868672  0.7684722922580 1.0
C      1  0.5369720200348  0.5005223730453  0.2643998422825 1.0
C      1  0.6373642453645  0.5289687090850  0.4776872540986 1.0
C      1  0.3329776824905  0.5332770449042  0.2705107967615 1.0
C      1  0.3118718910710  0.4993503185933  0.4308597771263 1.0
C      1  0.4450412827183  0.3988302193628  0.7056684625822 1.0
C      1  0.5377697430867  0.5202869107251  0.4991207491846 1.0
C      1  0.5772613542995  0.7233793353702  0.5720301536685 1.0
C      1  0.2076119700566  0.2323194095162  0.5408488147134 1.0
C      1  0.6439629426230  0.6231728421241  0.8755863986799 1.0
C      1  0.5494541910987  0.6394856296392  0.8552940939738 1.0
C      1  0.6540369747138  0.4525971130881  0.8368431444126 1.0
C      1  0.1295212968129  0.4234838050991  0.3944648536978 1.0
C      1  0.4560555010816  0.6766318942299  0.1625965890484 1.0
C      1  0.2870727506658  0.1844164148317  0.5766179558972 1.0
C      1  0.4164170684540  0.2297194449146  0.2645938422721 1.0
C      1  0.5257949597400  0.4871059854150  0.6007145249398 1.0
C      1  0.5050110350697  0.2304652820952  0.4666137815240 1.0
C      1  0.4936015173956  0.6893499289171  0.5369340078608 1.0
C      1  0.8113975312307  0.6119811624019  0.2777314522083 1.0
C      1  0.3973062069076  0.7932085870105  0.2821045467332 1.0
C      1  0.7136856321234  0.7226230218414  0.6102867967312 1.0
C      1  0.3040399616792  0.7984019046234  0.3178153092972 1.0
C      1  0.6008149440813  0.6869100792109  0.2638963781661 1.0
C      1  0.8069986790622  0.2314975799660  0.5679936362497 1.0
C      1  0.1969264089605  0.5509923896139  0.2330015429167 1.0
C      1  0.4233291083991  0.6924492114931  0.4064610498119 1.0
C      1  0.3191433180360  0.4067095866501  0.4117925959350 1.0
C      1  0.3877728061817  0.2581319675745  0.4085961740985 1.0
C      1  0.1498520894466  0.5996920396210  0.3071152592467 1.0
C      1  0.3783053786144  0.3472984029462  0.7621793510298 1.0
C      1  0.5298890091639  0.3847406682822  0.0927435378622 1.0
C      1  0.5038417777443  0.2232492270024  0.8262217504936 1.0
C      1  0.4530257459985  0.6188192944918  0.0932307860681 1.0
C      1  0.2301858344900  0.4495279953639  0.7242981938092 1.0
C      1  0.6397179431613  0.7529183139422  0.7840830648675 1.0
C      1  0.8595049315845  0.2932304802421  0.5142437452388 1.0
C      1  0.6438493660292  0.2311554194101  0.7569159616207 1.0
C      1  0.6784934894363  0.6613272407434  0.2115435799639 1.0
C      1  0.3239700545496  0.2342863254359  0.6528516768805 1.0
C      1  0.6183608854810  0.3749614234051  0.3866085935410 1.0
C      1  0.4247786494791  0.2968182534217  0.4967334894129 1.0
C      1  0.8703283130795  0.4335182751840  0.4368437177535 1.0
C      1  0.8549675182993  0.5761083985891  0.5088746740225 1.0
C      1  0.7389112288189  0.4306288085645  0.7889160631011 1.0
C      1  0.6104981330465  0.1588167742815  0.6177902612618 1.0
C      1  0.0470652779414  0.6447026844570  0.5846655354765 1.0
C      1  0.5554924410933  0.3315526909222  0.2335287795220 1.0
C      1  0.2830413447275  0.5891997342930  0.2071754524442 1.0
C      1  0.2572597124829  0.4859103804198  0.5844598537058 1.0
C      1  0.7945022402459  0.2590112609548  0.6570882092093 1.0
C      1  0.5978465584054  0.4616111220162  0.7464424618775 1.0
C      1  0.4436512381757  0.7614963264312  0.4757129249877 1.0
C      1  0.3974685233241  0.3836765870102  0.5467489738971 1.0
C      1  0.4837195138200  0.4644553204930  0.4376024301142 1.0
C      1  0.6276941099945  0.6854617873654  0.6491941801613 1.0
C      1  0.5995038594280  0.6927373716854  0.3636976252045 1.0
C      1  0.3361680081680  0.2777231633840  0.3239228106163 1.0
C      1  0.4401878876433  0.6373889315331  0.6038106210246 1.0
C      1  0.7698040357275  0.3518642559382  0.7568314968238 1.0
C      1  0.1561803056088  0.7355830557760  0.6699011451075 1.0
C      1  0.3010323472386  0.3818853554251  0.5689553845424 1.0
C      1  0.1646938448758  0.4630775751879  0.2663482624802 1.0
C      1  0.5086656751262  0.4111995529005  0.2831316119930 1.0
C      1  0.8482660926682  0.4153703950352  0.6164296686962 1.0
C      1  0.6672897707431  0.4158510159247  0.2170096718173 1.0
C      1  0.1958039275626  0.7336702077885  0.4138443232716 1.0
C      1  0.7206357229920  0.2105379424843  0.3386143262400 1.0
C      1  0.4741235527108  0.2965261048834  0.8832746134015 1.0
C      1  0.5967877941642  0.2454219646804  0.8389805962329 1.0
C      1  0.2665085062638  0.3146253749325  0.6541114859042 1.0
C      1  0.3015158470728  0.8300148102724  0.4869213904569 1.0
C      1  0.7768459009206  0.5718264091830  0.5701714872535 1.0
C      1  0.8715186650914  0.3880113349342  0.5274079554076 1.0
C      1  0.3002569929903  0.6847725746768  0.2117685090543 1.0
C      1  0.5591221580303  0.1528001305353  0.3035450326567 1.0
C      1  0.7273331075062  0.2926344650164  0.2917631856958 1.0
C      1  0.4845346574792  0.5429331170958  0.0631164436689 1.0
C      1  0.5126723603740  0.4646920745515  0.0479968848107 1.0
C      1  0.8422705427802  0.6714490416492  0.5096766210467 1.0
C      1  0.7751349735477  0.2072753643704  0.4180955199321 1.0
C      1  0.2526781839301  0.6470264751371  0.7633710228314 1.0
C      1  0.8499514034437  0.6111653939585  0.3643311801949 1.0
C      1  0.6845813364034  0.5677312531766  0.2011079261083 1.0
C      1  0.8288558572293  0.3465712800646  0.6786502602088 1.0
C      1  0.4741924176832  0.7600455623256  0.7567441048778 1.0
C      1  0.5487850450955  0.8822667912065  0.4764920702592 1.0
C      1  0.2408526020077  0.7266505560291  0.7054126207714 1.0
C      1  0.2497133549011  0.5370541183948  0.4988746081323 1.0
C      1  0.1805381212021  0.6892398583561  0.3289495993253 1.0
C      1  0.3640516434673  0.3556929741232  0.1086215548080 1.0
C      1  0.5166957218200  0.3917731375220  0.3807244283670 1.0
C      1  0.5705694311935  0.3178168255798  0.8990578335066 1.0
C      1  0.3872700588375  0.7275177938654  0.2076806618896 1.0
C      1  0.4742309151426  0.3087873495629  0.4133856309970 1.0
C      1  0.2476716549080  0.7329911783107  0.2728372680451 1.0
C      1  0.5724626759041  0.8473810283391  0.2826509876103 1.0
C      1  0.5745801033206  0.1888163630878  0.6952623843405 1.0
C      1  0.7306357564115  0.2627428783636  0.7335486419210 1.0
C      1  0.6662642360318  0.7228918906891  0.4235820817414 1.0
C      1  0.2994726411126  0.6307887909222  0.5028864612814 1.0
C      1  0.2755647789267  0.5436224618817  0.7340015217718 1.0
C      1  0.7633261724230  0.4386187302525  0.2425354347769 1.0
C      1  0.5470504284514  0.7244390386161  0.8049671298185 1.0
C      1  0.1553601776372  0.3779876807170  0.4792052677247 1.0
C      1  0.6540151751332  0.8256981317885  0.2768972388727 1.0
C      1  0.4921934258152  0.5635369309849  0.8460928745923 1.0
C      1  0.6862901875063  0.5934547500836  0.5203803337845 1.0
C      1  0.6153197902573  0.4542350232975  0.6454404920091 1.0
C      1  0.5993547200232  0.3690885412723  0.1535575017726 1.0
C      1  0.7505217681044  0.5121296283440  0.7243693032512 1.0
C      1  0.3940583353899  0.4489458054615  0.4672987935872 1.0
C      1  0.8675800328325  0.5317971862742  0.4278717506449 1.0
C      1  0.3406677229271  0.6558203742559  0.7972733102772 1.0
C      1  0.3917338784852  0.8148553708188  0.6343611023544 1.0
C      1  0.4938828677797  0.8324453314186  0.4187099147093 1.0
C      1  0.1252832306888  0.5082328469876  0.3429895875568 1.0
C      1  0.4563165071416  0.4167393335696  0.6175986913095 1.0
C      1  0.6683712833005  0.4445297490551  0.4433644358210 1.0
C      1  0.7517043071239  0.7489272278682  0.3865352163681 1.0
C      1  0.6561062695411  0.1743513455070  0.5422142501506 1.0
C      1  0.6428433169070  0.3438248004613  0.2881101831906 1.0
C      1  0.6388102629414  0.3159853973312  0.4670524123894 1.0
C      1  0.1632054957762  0.5876878122263  0.4903820705993 1.0
C      1  0.3332207394629  0.3754613768563  0.3207883660675 1.0
C      1  0.3518401946794  0.6163110579444  0.5901502292857 1.0
C      1  0.2622299900699  0.3625615469116  0.4796638316537 1.0
C      1  0.5978858065473  0.2373011642496  0.4935199778874 1.0
C      1  0.3944532910650  0.2439545793274  0.7144678440821 1.0
C      1  0.8489499900842  0.3607052232125  0.3746460178902 1.0
C      1  0.3649056855591  0.5671647294936  0.7783328991849 1.0
C      1  0.2659470293961  0.8036835985938  0.4075400443477 1.0
C      1  0.1423518103539  0.3786584221125  0.5805736277217 1.0
C      1  0.4998655190674  0.4573265930198  0.7614522131835 1.0
C      1  0.6971669779339  0.6957189830484  0.8325248305782 1.0
C      1  0.6601916252664  0.6974931516112  0.5207714201248 1.0
C      1  0.4839193890565  0.8328827316464  0.3223342164516 1.0
C      1  0.6501320745064  0.7775443450896  0.6851867847605 1.0
C      1  0.4384380699939  0.1683513704636  0.4129054391124 1.0
C      1  0.4665469999143  0.1676184488514  0.3151680458996 1.0
C      1  0.2818619160195  0.3730665745790  0.7320552263500 1.0
C      1  0.7741073009484  0.4832604424609  0.6285232857163 1.0
C      1  0.7594828830857  0.6933025261821  0.2486259554936 1.0
C      1  0.7506147053001  0.1792216933063  0.5086610715948 1.0
C      1  0.5051610349590  0.5858240200071  0.2997846408946 1.0
C      1  0.5710579626909  0.8154958383309  0.6251531210623 1.0
C      1  0.5001652189217  0.5784642006103  0.6609521630448 1.0
C      1  0.4537812051218  0.3277612445060  0.1222551152345 1.0
C      1  0.3291957003732  0.4078719315258  0.1629489565423 1.0
C      1  0.5763240265260  0.8840422722314  0.5545888469231 1.0
C      1  0.6480856248179  0.5354743013714  0.7070291214849 1.0
C      1  0.3508439046299  0.6374828399300  0.4143007909170 1.0
C      1  0.4220813873141  0.3666084705082  0.8567195176243 1.0
C      1  0.7769306066702  0.6601871568090  0.7962681752083 1.0
C      1  0.4938609033190  0.4507651521799  0.8613383558186 1.0
C      1  0.3357796124906  0.1238363444818  0.5266533281014 1.0
C      1  0.7369938316053  0.7756088955644  0.2956769075608 1.0
C      1  0.5951513526110  0.6060823783158  0.6802030546540 1.0
C      1  0.5829944355678  0.4075095625759  0.8886390214752 1.0
C      1  0.4571038943656  0.5492864219181  0.7519319843072 1.0
END
