TITL C-39942-9805-2 -5.256 3375.00 -3721.82893692 0 0 450 (C1) n - 1
REM
REM Run started: at 2020.10.20 18:56:39 in /rds/project/t2_vol4/rds-t2-cs072/BORA/CARBON/AIRSS/Generating-Clusters/Str-Search
REM VASP from code version vasp.5.4.4.18Apr17-6-g9f103f2a35 (build Oct 11 2019 16:45:47) gamma-only
REM
REM
REM
REM
REM ./C.cell (8c8f32957ea4b25f9ffc41644e092d35)
REM AIRSS Version 0.9.1 bugfix July 2018 build 013d7b7c2542+ Fri, 06 Jul 2018 19:26:36 +0100
REM compiler GCC version 4.8.5 20150623 (Red Hat 4.8.5-39)
REM options -cpp -mtune=generic -march=x86-64 -g -O0
REM seed -1100234110 -1622192475 -615487215 69735793 1825071247 1486914988 -966393245 -1862430867 909805515 1643511031 -343714443 -1731947153
REM
REM C.POTCAR (d86ddea03c3ceb6dc662c8ad6801f873)
REM 
CELL 1.54180   15.00000   15.00000   15.00000   90.00000   90.00000   90.00000
LATT -1
SFAC C  
C      1  0.2084702646988  0.2802386353122  0.7426956585637 1.0
C      1  0.8760231960703  0.2842404647464  0.1366331283425 1.0
C      1  0.1915962785553  0.5687074329273  0.9137113913707 1.0
C      1  0.3658513842085  0.2326800521111  0.6040163786041 1.0
C      1  0.9055201112379  0.8548555318725  0.5210458572039 1.0
C      1  0.3112473592827  0.9001966261109  0.5317263214991 1.0
C      1  0.5680502371598  0.1468639758906  0.3161369381974 1.0
C      1  0.5263653007626  0.4038088161832  0.9843716502773 1.0
C      1  0.7256525443477  0.0375899208112  0.5550072504940 1.0
C      1  0.1807545231076  0.2853510694710  0.5389814429961 1.0
C      1  0.4141716337025  0.7014350798251  0.1076621895149 1.0
C      1  0.5313636554886  0.2474569078292  0.4533319593194 1.0
C      1  0.7857934780344  0.8185345229417  0.1202770923916 1.0
C      1  0.1940213147714  0.3624315086744  0.2432037449688 1.0
C      1  0.0997414514865  0.1454036424034  0.4993597657691 1.0
C      1  0.7944009683219  0.8118036378847  0.4067003559782 1.0
C      1  0.7025406630396  0.2711370175668  0.5158012192022 1.0
C      1  0.5848625234816  0.7314604260776  0.1838557255586 1.0
C      1  0.8037345547981  0.6617747171208  0.5982907464827 1.0
C      1  0.7053659287209  0.5971028882289  0.1991984711314 1.0
C      1  0.6729177396012  0.8772523757281  0.3101048194019 1.0
C      1  0.6341777095523  0.6100517735541  0.6425556918698 1.0
C      1  0.2335449281905  0.5670620427009  0.7240430754995 1.0
C      1  0.4336796245362  0.1797122737421  0.0714055580331 1.0
C      1  0.1914421217959  0.6067747411345  0.5590144576547 1.0
C      1  0.0077804095625  0.1735125126381  0.5340737488692 1.0
C      1  0.8975403379575  0.2826709015427  0.7003795436535 1.0
C      1  0.2639540368835  0.2387500828936  0.0840895294347 1.0
C      1  0.5298603855534  0.9503321210668  0.6927166674354 1.0
C      1  0.7799514129235  0.1206469872851  0.4462858965907 1.0
C      1  0.5987708332298  0.1724984182143  0.1402611823249 1.0
C      1  0.9659052293354  0.7306193787135  0.6924588994667 1.0
C      1  0.8295316930650  0.5728486673472  0.9503222026817 1.0
C      1  0.6478829171012  0.7500562803603  0.0106890922084 1.0
C      1  0.9895031642540  0.2824232398134  0.6648861259359 1.0
C      1  0.8320825119631  0.1363923400773  0.7700451396335 1.0
C      1  0.2735640703293  0.5188150385949  0.2340342594357 1.0
C      1  0.7631208114328  0.7815642032716  0.8858833344661 1.0
C      1  0.2980308733515  0.8008324438723  0.0810740203300 1.0
C      1  0.8338336874737  0.2408618564088  0.2077681302353 1.0
C      1  0.6533257420026  0.1124474002162  0.3544387101101 1.0
C      1  0.3916985635888  0.6871023861751  0.6288541953314 1.0
C      1  0.4476313211258  0.3441593694656  0.2482232811321 1.0
C      1  0.5523448720090  0.8825884974926  0.8367502754437 1.0
C      1  0.1301991507169  0.6661141041762  0.1663223826331 1.0
C      1  0.9502624729026  0.8354817960096  0.4447280418209 1.0
C      1  0.4878307630684  0.6793438671924  0.5960705197411 1.0
C      1  0.3588462530933  0.3982330516340  0.0303571407131 1.0
C      1  0.0761237964735  0.1752775205639  0.8228410752607 1.0
C      1  0.8033403591779  0.7358345574098  0.5366560154789 1.0
C      1  0.4517989808068  0.3729233815290  0.1576712209718 1.0
C      1  0.0546688161632  0.7141088923533  0.6536504456538 1.0
C      1  0.2394033902145  0.4318502890147  0.8151211456845 1.0
C      1  0.6753807853036  0.8132842441480  0.5919296886786 1.0
C      1  0.4111253646664  0.1914719383375  0.3717675886623 1.0
C      1  0.5249446993277  0.3244325921306  0.5829368005009 1.0
C      1  0.4327984708793  0.4490039283537  0.9783498500138 1.0
C      1  0.3252896379784  0.7770344358841  0.4384362384647 1.0
C      1  0.0961860838162  0.2537902975894  0.8727485305330 1.0
C      1  0.3107313033935  0.8852154548288  0.7843574988592 1.0
C      1  0.6441002510914  0.4968305166713  0.5272259669566 1.0
C      1  0.3744842559471  0.1361492970281  0.4602595236644 1.0
C      1  0.7964447989667  0.2810588641764  0.4734635211528 1.0
C      1  0.8103910924499  0.3848148344669  0.9336224594797 1.0
C      1  0.8664661580698  0.7838465410037  0.1613276346149 1.0
C      1  0.6251035892465  0.6501492636525  0.0127276122185 1.0
C      1  0.6383308566301  0.2469283341874  0.0738477252384 1.0
C      1  0.5787152420902  0.9582044381599  0.7780555108496 1.0
C      1  0.9882098219093  0.7642497405125  0.3822012365012 1.0
C      1  0.4555934481704  0.5269405441354  0.1152879056833 1.0
C      1  0.3470738492686  0.0405528466349  0.7325090439163 1.0
C      1  0.1323598482696  0.4244104754826  0.6837491477224 1.0
C      1  0.6757917044056  0.9737256348192  0.5062677756883 1.0
C      1  0.9023567491837  0.7072612394271  0.2168926758666 1.0
C      1  0.1124630766338  0.2700562806808  0.1151723201808 1.0
C      1  0.7829657376640  0.1891498330071  0.6296494352602 1.0
C      1  0.6269812069009  0.8415897022918  0.3952121360337 1.0
C      1  0.2979388469516  0.9929960368141  0.5310434957655 1.0
C      1  0.3979207928705  0.2882419708497  0.6824091619155 1.0
C      1  0.4580135534751  0.6906082670858  0.9602539930213 1.0
C      1  0.4861931151320  0.5452024182465  0.7020747082993 1.0
C      1  0.6544019478680  0.3865977347586  0.8860532417708 1.0
C      1  0.7464378343722  0.3877409597058  0.7807721610888 1.0
C      1  0.3218202183579  0.6871375710439  0.1554444462528 1.0
C      1  0.5791139838884  0.5376615162001  0.5899702432130 1.0
C      1  0.7123149699244  0.4081922748559  0.1021971187104 1.0
C      1  0.5756033150537  0.3355684892540  0.7433305936149 1.0
C      1  0.3029493161459  0.4517181984751  0.3024238113687 1.0
C      1  0.7227356658688  0.0415176447751  0.6600116150155 1.0
C      1  0.1508426995129  0.8734434406675  0.7067744107039 1.0
C      1  0.7730539538905  0.5178949511978  0.3278291719040 1.0
C      1  0.5946279935427  0.0964216124892  0.8565566164433 1.0
C      1  0.8907333765704  0.2126048963244  0.7804116203941 1.0
C      1  0.6934188301694  0.1465482602716  0.1749717991268 1.0
C      1  0.6190255131867  0.0207155983616  0.3374724119738 1.0
C      1  0.2035576948222  0.7824955596783  0.8219173395647 1.0
C      1  0.2919411367246  0.5705267850713  0.5561240735902 1.0
C      1  0.9329170659828  0.3373807308083  0.5157683387503 1.0
C      1  0.3193427336352  0.8734103766712  0.4476811983336 1.0
C      1  0.0951895851608  0.7665944128366  0.3910413658330 1.0
C      1  0.2645106943785  0.6972665893894  0.0689681276592 1.0
C      1  0.7421806416030  0.5149713470403  0.2318680227891 1.0
C      1  0.5075102197514  0.2099868641774  0.3613222203145 1.0
C      1  0.0211587939397  0.4888510006374  0.4878334904094 1.0
C      1  0.5000535395935  0.6490392382406  0.3916018561015 1.0
C      1  0.0625449911316  0.4239466640708  0.3007857069214 1.0
C      1  0.6315120187637  0.1789440441541  0.7137683265689 1.0
C      1  0.3982411167464  0.3478553270361  0.4953657720789 1.0
C      1  0.3808286629407  0.1873566281612  0.8309775838317 1.0
C      1  0.2376843670396  0.1789199409808  0.1551971950325 1.0
C      1  0.1935903287786  0.4049293193918  0.4502492029288 1.0
C      1  0.1892803316125  0.4914195445368  0.4073943924527 1.0
C      1  0.4295539123296  0.9386352868821  0.6865930153996 1.0
C      1  0.5048965625083  0.9209839985684  0.5145289545456 1.0
C      1  0.0814790318443  0.4140332351355  0.8587356452647 1.0
C      1  0.7424775662562  0.2420473608225  0.9495313693980 1.0
C      1  0.8121389939475  0.2991997636710  0.0732190706479 1.0
C      1  0.5006097985909  0.3880451536759  0.3851767410375 1.0
C      1  0.8162535164298  0.6847438609280  0.8824043354081 1.0
C      1  0.9732077372969  0.4699546575721  0.2683410125566 1.0
C      1  0.4649734041340  0.5453234324837  0.7932874911611 1.0
C      1  0.1977328416182  0.7272961064185  0.7369604732188 1.0
C      1  0.5302751867896  0.8442201995413  0.6824231481592 1.0
C      1  0.1368632929956  0.8593353388876  0.3761665454721 1.0
C      1  0.4203234453824  0.5573918060425  0.2086684975083 1.0
C      1  0.2704440150806  0.4392933036427  0.0040130391019 1.0
C      1  0.6851822295629  0.9725455398290  0.7491335366545 1.0
C      1  0.1571972842925  0.1954473929123  0.5735021790432 1.0
C      1  0.9023060352823  0.8391896024354  0.2349933965732 1.0
C      1  0.7467368097107  0.4320353313996  0.8743638034373 1.0
C      1  0.7219166207066  0.5566586387589  0.4056464599587 1.0
C      1  0.4449240964050  0.7953641893168  0.3774700738294 1.0
C      1  0.1854633357927  0.8187665775421  0.2119053260589 1.0
C      1  0.9451788416992  0.5299161459930  0.3402048213935 1.0
C      1  0.1386069112196  0.7347954587513  0.2270335423848 1.0
C      1  0.1420801077878  0.1947071249357  0.1648282984244 1.0
C      1  0.7018462388209  0.1961514299877  0.5753828505554 1.0
C      1  0.2292689327588  0.4274939321796  0.5403503805817 1.0
C      1  0.8955668353328  0.6014688401993  0.5710153684310 1.0
C      1  0.0413393555269  0.4787274500652  0.8006440969949 1.0
C      1  0.4267586575340  0.3944778043992  0.6922393160480 1.0
C      1  0.2490757232717  0.3452727792652  0.5867455471184 1.0
C      1  0.1114788216886  0.7497388870000  0.4956459701995 1.0
C      1  0.4051649923870  0.7974734081291  0.0697140557838 1.0
C      1  0.2775160396775  0.4129901916985  0.2193157696245 1.0
C      1  0.5169490033087  0.5570191328274  0.3421485444419 1.0
C      1  0.9713545311618  0.5396621797764  0.8282611725047 1.0
C      1  0.7409366477917  0.2396824814303  0.0490147937532 1.0
C      1  0.2662525020059  0.3927343603245  0.6731130225031 1.0
C      1  0.7032144931583  0.8909270295333  0.5387816872190 1.0
C      1  0.7899040664671  0.8359953822420  0.8064885214920 1.0
C      1  0.7944666556058  0.3907873542824  0.0369313192782 1.0
C      1  0.1299000835466  0.5926096283533  0.8662147561394 1.0
C      1  0.9102301615370  0.3870734476836  0.4265113808078 1.0
C      1  0.3813397308227  0.4082860142669  0.8912337023450 1.0
C      1  0.8713810372625  0.5580020707785  0.4799347223595 1.0
C      1  0.7839546116124  0.5171960322700  0.4861586751548 1.0
C      1  0.5585055296495  0.8113911754752  0.9869213842691 1.0
C      1  0.3659464512674  0.6825072485753  0.7278964440656 1.0
C      1  0.4377324310191  0.6912178756268  0.7933883913728 1.0
C      1  0.6991877452401  0.7901965490612  0.0847494502599 1.0
C      1  0.6095348372507  0.9855387384527  0.4305948275155 1.0
C      1  0.7430128659452  0.5331760376185  0.8951288595587 1.0
C      1  0.3062786497695  0.6413457262273  0.9945536716109 1.0
C      1  0.8831845005928  0.3835338109662  0.7018274782461 1.0
C      1  0.7701777613127  0.4155077444804  0.3499887713065 1.0
C      1  0.7086450431597  0.2162834793320  0.7745612705410 1.0
C      1  0.4951417123306  0.3961921309452  0.7698686838897 1.0
C      1  0.1334720602904  0.6979125767344  0.3210666991733 1.0
C      1  0.7071494880633  0.6231270011659  0.5754388750436 1.0
C      1  0.3309215500501  0.8303714664288  0.6950312119876 1.0
C      1  0.2730952567693  0.7663892781227  0.8787991135231 1.0
C      1  0.0357631282402  0.4288972469766  0.7169679753678 1.0
C      1  0.9154954458245  0.5356608859688  0.6514781346575 1.0
C      1  0.3449205713800  0.8239094260454  0.2599371879290 1.0
C      1  0.8430122760056  0.1912413741190  0.4623936593603 1.0
C      1  0.3347397737785  0.6079345382485  0.2163577364501 1.0
C      1  0.9842849792307  0.5015917388151  0.1715501475539 1.0
C      1  0.8303046775905  0.9885089708034  0.3169401001687 1.0
C      1  0.3026759079797  0.1304903565790  0.7111640637237 1.0
C      1  0.1325234464170  0.1577477768223  0.7506171201214 1.0
C      1  0.1347433862298  0.3256717831126  0.7113494167733 1.0
C      1  0.3164519240403  0.6847358774579  0.9048657968486 1.0
C      1  0.4588640666480  0.9346043691191  0.8550808869828 1.0
C      1  0.7319016884092  0.2316926408198  0.2167523455727 1.0
C      1  0.5947461463616  0.4016466404745  0.3408041299596 1.0
C      1  0.1615783642449  0.0690093588655  0.5280492814447 1.0
C      1  0.2635618388322  0.2759271900302  0.9112095205523 1.0
C      1  0.3274123010393  0.4704105967954  0.8398980722325 1.0
C      1  0.4949586771388  0.0134994906021  0.5210872441960 1.0
C      1  0.1057790417662  0.1691204407805  0.6586005052822 1.0
C      1  0.4110318697111  0.4478303227878  0.6071981643660 1.0
C      1  0.5606627840335  0.1653692012784  0.7826340687115 1.0
C      1  0.4068422268346  0.6835423906770  0.8796897684901 1.0
C      1  0.4660201705920  0.8960864949743  0.3666011686554 1.0
C      1  0.3815253842186  0.9528154715366  0.7754896347109 1.0
C      1  0.3818380618341  0.1496418952135  0.2695558306492 1.0
C      1  0.2332566297592  0.9563092507835  0.2944100328092 1.0
C      1  0.3403500319082  0.0337363871202  0.4383670856995 1.0
C      1  0.7091476535974  0.8292250029572  0.4574284622849 1.0
C      1  0.5183408783077  0.2724872866263  0.2766315607436 1.0
C      1  0.9105435075838  0.5139471364083  0.9065765505631 1.0
C      1  0.8536450844315  0.8244948846807  0.6005625207870 1.0
C      1  0.1124792482109  0.5589831394276  0.5963866255487 1.0
C      1  0.4413093964829  0.0611260305563  0.2746918054883 1.0
C      1  0.6135280999785  0.2206630310284  0.6245606710290 1.0
C      1  0.6408946421366  0.4865135055650  0.0985231693061 1.0
C      1  0.9842678790238  0.2587122822025  0.4819341680478 1.0
C      1  0.3145257541835  0.3602486889249  0.9479814267223 1.0
C      1  0.5643888075650  0.4801306677506  0.2844005598577 1.0
C      1  0.8632017723549  0.6241397956971  0.2282410840621 1.0
C      1  0.4389896941765  0.2341769718690  0.9946901583739 1.0
C      1  0.4703686267033  0.3964325760105  0.5454151322314 1.0
C      1  0.1764849837592  0.6526920497262  0.0865337014783 1.0
C      1  0.9447639585245  0.3389139202742  0.8732785684055 1.0
C      1  0.1399466433064  0.4886861747118  0.3325359427145 1.0
C      1  0.2333811590572  0.1363441028833  0.5536970998398 1.0
C      1  0.1099774871544  0.5821508251812  0.2154991572211 1.0
C      1  0.8024122669989  0.4338416732566  0.7115846835827 1.0
C      1  0.9041491117941  0.8009115256572  0.6852420802595 1.0
C      1  0.1414686550713  0.4833627542195  0.0828554976954 1.0
C      1  0.2613183314229  0.2625366765418  0.4692259149962 1.0
C      1  0.2572073201801  0.3312334509779  0.3936117043620 1.0
C      1  0.3626660329875  0.5727064811865  0.3653462031381 1.0
C      1  0.8410626223207  0.3229444315519  0.5516553376450 1.0
C      1  0.2608502685927  0.5729337049865  0.4047091961867 1.0
C      1  0.7008175960619  0.1224690713701  0.5121386295909 1.0
C      1  0.5002252179258  0.6826356519807  0.1622075287879 1.0
C      1  0.0286399180752  0.3225415157093  0.3355747510563 1.0
C      1  0.7683699676749  0.5889177793249  0.7379465612089 1.0
C      1  0.2509941786378  0.5495593866610  0.9876043739986 1.0
C      1  0.4370604792493  0.2062286511739  0.9064598569398 1.0
C      1  0.7505278767981  0.1345359393833  0.3480698000962 1.0
C      1  0.0643626949811  0.5764086777082  0.7994398865303 1.0
C      1  0.3837973111668  0.0128906009591  0.6399035616745 1.0
C      1  0.3265059868381  0.5880871084976  0.7282708202966 1.0
C      1  0.0399112783156  0.7171972854692  0.5568756707551 1.0
C      1  0.4316647835153  0.5419063965083  0.6215385959783 1.0
C      1  0.8048516643731  0.2891143393139  0.8938965032413 1.0
C      1  0.8722436902482  0.6381781359952  0.4094995282852 1.0
C      1  0.6266788811340  0.8152571212956  0.1479798997207 1.0
C      1  0.4267392025211  0.2627969941215  0.7728863198781 1.0
C      1  0.6784563672543  0.4082669744673  0.4986634098474 1.0
C      1  0.2068159764879  0.2998823776702  0.3152763150092 1.0
C      1  0.2839815604275  0.8415050184770  0.6047688550027 1.0
C      1  0.2686735054431  0.3480864636566  0.7675277688462 1.0
C      1  0.5967157914528  0.7502395170422  0.3775626545002 1.0
C      1  0.6403313623492  0.0847898045313  0.6956970765238 1.0
C      1  0.8877211096402  0.7177717251761  0.8230436486816 1.0
C      1  0.6153547245450  0.4842010661192  0.7547979727128 1.0
C      1  0.7165098661623  0.1544572026987  0.9178896547250 1.0
C      1  0.3699468267808  0.4372593514207  0.4574323903043 1.0
C      1  0.6026425187800  0.8509178530489  0.9177246507316 1.0
C      1  0.7308586395095  0.4715722813331  0.6452145436708 1.0
C      1  0.4122876609123  0.8646220319298  0.9142855037140 1.0
C      1  0.2743710734716  0.1613809953121  0.4632542283166 1.0
C      1  0.5597794234875  0.8079381332042  0.7730872612442 1.0
C      1  0.6702517139507  0.7018778453611  0.3328512755049 1.0
C      1  0.3107331008873  0.7425305531540  0.5942401799875 1.0
C      1  0.6048235269355  0.7871793581395  0.6502192848751 1.0
C      1  0.6262652510801  0.1337378116494  0.4492814820979 1.0
C      1  0.1380275025776  0.4580497965879  0.5901923388103 1.0
C      1  0.7974431073322  0.5548073681387  0.0562750414765 1.0
C      1  0.7483916298185  0.2319020748324  0.3192419608261 1.0
C      1  0.1667766475655  0.3963725714381  0.8752297454187 1.0
C      1  0.3179554325240  0.4738049477988  0.5392858884856 1.0
C      1  0.5849892724322  0.4517255219021  0.9138648939811 1.0
C      1  0.4292320886019  0.5212548947058  0.3040755733611 1.0
C      1  0.2910425676661  0.7401808135373  0.7001060871134 1.0
C      1  0.7296993973924  0.5301973864444  0.5640351479064 1.0
C      1  0.7746079412941  0.6761663383743  0.6926785914138 1.0
C      1  0.5327949336647  0.2379220732574  0.5550379271136 1.0
C      1  0.6835368067777  0.5427597847120  0.7070817361544 1.0
C      1  0.0346815193603  0.3283849631143  0.8417071223122 1.0
C      1  0.0176121398950  0.1930992063066  0.6318556440413 1.0
C      1  0.6646336164539  0.6756788216325  0.2343236263137 1.0
C      1  0.4766101458327  0.9107284811030  0.2691792303715 1.0
C      1  0.1818566387685  0.5641823000215  0.0563725087394 1.0
C      1  0.8090865015848  0.7101527135467  0.4348548338057 1.0
C      1  0.1320381185206  0.7784587815312  0.6820211747403 1.0
C      1  0.2227683765283  0.6321738423461  0.3309172192210 1.0
C      1  0.0404868759944  0.5651330232868  0.5298543155441 1.0
C      1  0.1729366342969  0.8719657095209  0.1272666962308 1.0
C      1  0.9241803917841  0.4474272724864  0.1166705192654 1.0
C      1  0.4506811301400  0.5527631373352  0.0207582271286 1.0
C      1  0.4319961882604  0.8455821515383  0.6517337295035 1.0
C      1  0.3816400926835  0.3350628177004  0.1038229031679 1.0
C      1  0.6760899676340  0.0620846059311  0.7982661026473 1.0
C      1  0.5084702952098  0.5860695093180  0.1744558984759 1.0
C      1  0.1928466588588  0.4068521872814  0.0557498914664 1.0
C      1  0.4627655139237  0.1337163392341  0.2114551840871 1.0
C      1  0.4467466133683  0.8656997648957  0.1318814740726 1.0
C      1  0.0063299962401  0.6038917591194  0.3543477378219 1.0
C      1  0.2298322302299  0.1286435927569  0.3063896466384 1.0
C      1  0.5717425163509  0.4156791620516  0.0720536607490 1.0
C      1  0.3673970574622  0.9387535666512  0.3883068784815 1.0
C      1  0.5304197317498  0.2553390558409  0.7929434815759 1.0
C      1  0.7953911186595  0.5844984831143  0.1652799204590 1.0
C      1  0.5059127532723  0.4465313768875  0.1349644800608 1.0
C      1  0.1179924002664  0.3449734250556  0.4824348748405 1.0
C      1  0.0662627116309  0.4118447531081  0.5359981128838 1.0
C      1  0.4584304393335  0.7977750656554  0.9816331424270 1.0
C      1  0.3585243903238  0.3608688457482  0.1953005265728 1.0
C      1  0.8681645335931  0.8022271056475  0.7756773900921 1.0
C      1  0.5964808525455  0.6129903034394  0.9207693032243 1.0
C      1  0.3216886276348  0.4061068904826  0.3769712516819 1.0
C      1  0.6777551947680  0.3837146936498  0.3905402086610 1.0
C      1  0.0434662968879  0.2685844489198  0.2550945222485 1.0
C      1  0.7066591248828  0.7572118276548  0.5220069350790 1.0
C      1  0.9009129740372  0.4199831362321  0.9094102500814 1.0
C      1  0.7206413072312  0.6579767328893  0.4112317027751 1.0
C      1  0.5703531251320  0.6976760125423  0.4592505984160 1.0
C      1  0.8340498322979  0.2659269224498  0.6303838318986 1.0
C      1  0.3101655626102  0.1495897740953  0.6152918236495 1.0
C      1  0.2079776636151  0.8728210586365  0.7797031597441 1.0
C      1  0.8292555569611  0.9007090707828  0.2624601455386 1.0
C      1  0.2318977100320  0.8734737175637  0.0682853869065 1.0
C      1  0.4131466472193  0.6146956999098  0.4407715540116 1.0
C      1  0.2795610583850  0.7140529011441  0.5015348509242 1.0
C      1  0.7716753576829  0.8361885529561  0.3169039491724 1.0
C      1  0.5237580276658  0.0277644522081  0.8299377386621 1.0
C      1  0.3273536153220  0.2972808583092  0.5397546524885 1.0
C      1  0.4551726380347  0.3067154997794  0.4257438947510 1.0
C      1  0.5232486007663  0.0616066853225  0.3404158568373 1.0
C      1  0.6070865470368  0.3179355597317  0.2875005745400 1.0
C      1  0.9841666500349  0.6472138963349  0.5214307823911 1.0
C      1  0.8144662898314  0.3731047607234  0.4261599719130 1.0
C      1  0.6842755533930  0.8318248391173  0.2250094658798 1.0
C      1  0.2868920972519  0.2055191369643  0.8543693935965 1.0
C      1  0.0426248232747  0.3235047648132  0.1715482547412 1.0
C      1  0.4945591728147  0.2818343187949  0.8810067312785 1.0
C      1  0.5381782854845  0.0529267725701  0.6706259509746 1.0
C      1  0.9416473639386  0.3552101390843  0.1607210098800 1.0
C      1  0.1900662013929  0.3097991805023  0.0754641503282 1.0
C      1  0.5170947721516  0.2989872504294  0.9731153594563 1.0
C      1  0.4943136698635  0.0954595217171  0.7530884194029 1.0
C      1  0.7081045025206  0.9806249450275  0.1902685405129 1.0
C      1  0.8409063175129  0.5286643637553  0.7211391985649 1.0
C      1  0.6656509034419  0.6732832822599  0.4950138676037 1.0
C      1  0.3965178747152  0.1195494520176  0.7587282458460 1.0
C      1  0.6792029177331  0.6675292601427  0.8097656095649 1.0
C      1  0.2634387506267  0.0849443610045  0.3938446117582 1.0
C      1  0.3285565779795  0.9275744233851  0.2893819066562 1.0
C      1  0.3525975427958  0.5939914253145  0.6295179680530 1.0
C      1  0.5520020273190  0.8869050575469  0.1378858611601 1.0
C      1  0.1098150342900  0.1948139427084  0.4113480934683 1.0
C      1  0.5024223935573  0.7417623587074  0.5218839645907 1.0
C      1  0.6475838759525  0.3921301713700  0.7808399078907 1.0
C      1  0.5514765918048  0.9051995762359  0.4270052294798 1.0
C      1  0.5422522509336  0.5186950575959  0.4267231838072 1.0
C      1  0.4258254193115  0.7802107099502  0.4744090802442 1.0
C      1  0.9291316414136  0.3355917433882  0.3381291338639 1.0
C      1  0.1773960701544  0.6341283251522  0.7209551990965 1.0
C      1  0.5283327821717  0.6211421764393  0.9863257481938 1.0
C      1  0.6313750794811  0.2418979008487  0.4438976671101 1.0
C      1  0.1881146315556  0.5541448430843  0.2701165237630 1.0
C      1  0.6005055448500  0.3207397596129  0.6421372903604 1.0
C      1  0.0418477890291  0.3275676688948  0.7372658961254 1.0
C      1  0.1511904476372  0.9046987531068  0.4659742705093 1.0
C      1  0.8626474633165  0.8786443471506  0.4363404068109 1.0
C      1  0.9474616328190  0.7708745385340  0.2833525089903 1.0
C      1  0.5579212879147  0.9311702798494  0.2188742675679 1.0
C      1  0.8015654791765  0.0295174506141  0.4765687963608 1.0
C      1  0.3426746828971  0.3605298242848  0.7135365547718 1.0
C      1  0.7536091653059  0.2911523392553  0.8032096102256 1.0
C      1  0.9542570485538  0.4382739513161  0.6561959892629 1.0
C      1  0.7378781270300  0.4078802895635  0.2023903419416 1.0
C      1  0.5954224132415  0.6610177298237  0.8361747549005 1.0
C      1  0.5369170844239  0.4803498504599  0.8228790816555 1.0
C      1  0.1642803311228  0.2024160350299  0.3287192813463 1.0
C      1  0.8374493516024  0.9707423554107  0.4110705509260 1.0
C      1  0.4917800300843  0.5846679958649  0.5576919162467 1.0
C      1  0.9241851653258  0.5721239354886  0.7482520283044 1.0
C      1  0.4020718154358  0.1463165674698  0.5622944871887 1.0
C      1  0.2897408800398  0.7837535532196  0.1868701550176 1.0
C      1  0.9288058105638  0.6697503072542  0.7582514080831 1.0
C      1  0.5996119959259  0.2447332139833  0.9819778517203 1.0
C      1  0.1720067905351  0.3009402365990  0.9007125829749 1.0
C      1  0.9318082623964  0.1805378190227  0.4686778982876 1.0
C      1  0.6297382698396  0.5318933046934  0.4404401345264 1.0
C      1  0.0882847388968  0.6154671974867  0.6912828400006 1.0
C      1  0.7923500122441  0.0685384312117  0.2814577427634 1.0
C      1  0.0616452281778  0.2823029161993  0.4230304058780 1.0
C      1  0.8482980332991  0.4656233172009  0.0708526339228 1.0
C      1  0.9380891609584  0.4860378668310  0.4333670965045 1.0
C      1  0.1020178514816  0.2010262194845  0.2506956874736 1.0
C      1  0.7814717167816  0.4191608858358  0.5012295350929 1.0
C      1  0.8381559078588  0.2804635083408  0.2970286687478 1.0
C      1  0.4384535076103  0.3465035405389  0.8346491604241 1.0
C      1  0.5440741672256  0.1878942931105  0.2290310906953 1.0
C      1  0.6629986662629  0.2990497594193  0.9320236277578 1.0
C      1  0.4685630588255  0.4284748572856  0.3008135499058 1.0
C      1  0.1789907689468  0.8443017324479  0.6168973537632 1.0
C      1  0.3599204085022  0.2426394576339  0.0743678663350 1.0
C      1  0.2876107499466  0.1481555108535  0.2313749639910 1.0
C      1  0.1773494478614  0.8794271310874  0.2949217390370 1.0
C      1  0.3337629890609  0.8415205820012  0.8723572294535 1.0
C      1  0.6847836440250  0.7971688483177  0.9287801236060 1.0
C      1  0.4061946249335  0.9753350663635  0.2360837241911 1.0
C      1  0.7536951181308  0.6126648234106  0.8339793155920 1.0
C      1  0.7265939768970  0.8789365178402  0.7363198449791 1.0
C      1  0.6742763923511  0.3507780866354  0.5761542711249 1.0
C      1  0.6779632391668  0.5580595074693  0.0378300805970 1.0
C      1  0.6353394283597  0.3404349140649  0.1111905131171 1.0
C      1  0.1367954865884  0.8415308541783  0.5292231177575 1.0
C      1  0.9117557643729  0.3923653158932  0.2575299779289 1.0
C      1  0.6564715573814  0.8034282117110  0.7348976734829 1.0
C      1  0.0832500662031  0.4934457710968  0.1621245719893 1.0
C      1  0.6266130185129  0.1461714137638  0.9350701994751 1.0
C      1  0.4800353713366  0.4501003474859  0.4594253969527 1.0
C      1  0.8592868708190  0.5800817002203  0.3222340130623 1.0
C      1  0.6499697996394  0.5322035447930  0.9403317244075 1.0
C      1  0.9671504797093  0.6677064472502  0.4189454251568 1.0
C      1  0.4006564310452  0.9575910658656  0.1374711545651 1.0
C      1  0.3518415201664  0.7580065541042  0.3400165411355 1.0
C      1  0.8922379309287  0.2645847906000  0.8628526473869 1.0
C      1  0.2018505313390  0.0382128028532  0.3353930699884 1.0
C      1  0.4424158942091  0.8281165929655  0.2244761116926 1.0
C      1  0.5009952169098  0.7464574784105  0.2399324253892 1.0
C      1  0.8106041984414  0.3786888999270  0.2656547656116 1.0
C      1  0.3253911617615  0.6544156982311  0.3090817482519 1.0
C      1  0.7597427346987  0.8953469980221  0.1851173164269 1.0
C      1  0.4605968241825  0.8403201924674  0.5483709495386 1.0
C      1  0.1860730473889  0.6862267447431  0.5143725520117 1.0
C      1  0.7594126573865  0.8636361767614  0.6259802207795 1.0
C      1  0.5085544811029  0.7340081863039  0.3369801144432 1.0
C      1  0.4938570363901  0.1344063857350  0.1186383354242 1.0
C      1  0.1921068519989  0.9876840925120  0.5101833357707 1.0
C      1  0.6411044933737  0.9616033749337  0.2638995262081 1.0
C      1  0.9894139094134  0.3728566481290  0.5875517498205 1.0
C      1  0.5332753996551  0.7093549573971  0.7731177913456 1.0
C      1  0.5574331887377  0.4980248668549  0.6765110070213 1.0
C      1  0.4000575702784  0.6410322510745  0.0240992585852 1.0
C      1  0.0690495956001  0.6248133261689  0.2980147397474 1.0
C      1  0.5471999117537  0.0615580073235  0.4503758611819 1.0
C      1  0.5664169773064  0.6901524396877  0.6655897756447 1.0
C      1  0.4577472856718  0.0656181842111  0.5953867204750 1.0
C      1  0.6677081313542  0.3278386143452  0.2085802671964 1.0
C      1  0.7965520032366  0.1122887202190  0.6833333097482 1.0
C      1  0.3707791932455  0.5322267720061  0.7933862877134 1.0
C      1  0.2135804657518  0.4697694615309  0.7229774766059 1.0
C      1  0.7411232559543  0.0708549980615  0.1969735772887 1.0
C      1  0.6701544216394  0.2832008994616  0.3617834220132 1.0
C      1  0.2319984746043  0.1852756610932  0.7674862879783 1.0
C      1  0.7252298553511  0.7540071988689  0.2663607832104 1.0
C      1  0.5728439122640  0.5043230112424  0.1878789498211 1.0
C      1  0.7105123704344  0.7223025083217  0.7399146754240 1.0
C      1  0.3166069328325  0.6255499365908  0.4782112148234 1.0
C      1  0.7450920392161  0.1301733410166  0.8245703947552 1.0
C      1  0.1011406345926  0.3990475831842  0.2124582555495 1.0
END
