TITL C-40364-2808-33 -2.221 3375.00 -354.68677641 0 0 44 (C1) n - 1
REM
REM Run started: at 2020.12.22 22:35:52 in /rds/project/t2_vol4/rds-t2-cs072/BORA/CARBON/AIRSS/Generating-Clusters/Str-Search/Only-C1/C10-100
REM VASP from code version vasp.5.4.4.18Apr17-6-g9f103f2a35 (build Oct 11 2019 16:45:47) gamma-only
REM
REM
REM
REM
REM ./C.cell (67c5d0192afd7a3ce4a0888e5fe73b87)
REM AIRSS Version 0.9.1 bugfix July 2018 build 013d7b7c2542+ Fri, 06 Jul 2018 19:26:36 +0100
REM compiler GCC version 4.8.5 20150623 (Red Hat 4.8.5-39)
REM options -cpp -mtune=generic -march=x86-64 -g -O0
REM seed 1367298005 1088559729 -689705461 1771836904 -1839479513 1019770851 -602214709 -1318957787 -714422535 652414326 -980225069 -353182990
REM
REM C.POTCAR (d86ddea03c3ceb6dc662c8ad6801f873)
REM 
CELL 1.54180   15.00000   15.00000   15.00000   90.00000   90.00000   90.00000
LATT -1
SFAC C  
C      1  0.5530250299746  0.3666483421356  0.5570712835883 1.0
C      1  0.7595851853238  0.4559138774516  0.5216577617870 1.0
C      1  0.3187554185285  0.4389981351166  0.5117908455505 1.0
C      1  0.6708933946123  0.6607478336841  0.5501257264099 1.0
C      1  0.5919821577415  0.4808890257555  0.6590799633444 1.0
C      1  0.4676367455784  0.6656394251345  0.4050169663661 1.0
C      1  0.6285123615193  0.6850246545970  0.4684217057488 1.0
C      1  0.5757580879911  0.3835153966154  0.6508010875193 1.0
C      1  0.2791104131219  0.3287689316881  0.7086190251554 1.0
C      1  0.4165023137111  0.6280601460265  0.3326805475181 1.0
C      1  0.4226137658900  0.4268331947702  0.3803688248036 1.0
C      1  0.3591928978482  0.3173089049087  0.7355734734228 1.0
C      1  0.4029253626038  0.4486752386295  0.5638158342346 1.0
C      1  0.7363703365219  0.4871440067238  0.5962244521250 1.0
C      1  0.2776814739359  0.6117694303108  0.4306826310159 1.0
C      1  0.3235664743228  0.6089358981730  0.3470641265466 1.0
C      1  0.2442838812525  0.4135715535655  0.5620455185504 1.0
C      1  0.5186772270739  0.5431142992519  0.6476357456781 1.0
C      1  0.2894970108240  0.5272549738199  0.3843583529508 1.0
C      1  0.3982812034598  0.6105620788947  0.5635851473002 1.0
C      1  0.5530716908105  0.5231957321441  0.2969653495588 1.0
C      1  0.4469001209067  0.3136344230647  0.7455975017928 1.0
C      1  0.6871450666366  0.5509834034346  0.4120807493731 1.0
C      1  0.4792706244814  0.3785166774451  0.4379657131778 1.0
C      1  0.6509511620046  0.3922235269451  0.4060284723635 1.0
C      1  0.5158694749162  0.3454502714537  0.7083802252350 1.0
C      1  0.6449687873913  0.6245684039576  0.6326870878937 1.0
C      1  0.4627649104998  0.5628310528380  0.2773973353223 1.0
C      1  0.6036133176715  0.5736014271551  0.3668542718413 1.0
C      1  0.5635797167897  0.6507469484708  0.4076076585860 1.0
C      1  0.4615828595885  0.3815288211690  0.5336915760671 1.0
C      1  0.2517777063273  0.3751888712271  0.6379958849989 1.0
C      1  0.3298316739685  0.6390187851572  0.5031682928041 1.0
C      1  0.4183034614736  0.6648762482019  0.4872623621073 1.0
C      1  0.3333004395786  0.4515287015255  0.4164842909208 1.0
C      1  0.6085335774890  0.4513058523278  0.2547928303326 1.0
C      1  0.6731315550093  0.5291886776384  0.6474990384050 1.0
C      1  0.7037393196298  0.6273417509360  0.4681648701781 1.0
C      1  0.6400322382948  0.4011531480800  0.3139134369502 1.0
C      1  0.5526694002599  0.6324497542424  0.6475597547353 1.0
C      1  0.5771100210166  0.3695355620210  0.4607649519276 1.0
C      1  0.4615177224412  0.4794907657350  0.3132997881446 1.0
C      1  0.7118958310176  0.4627787242992  0.4420126687331 1.0
C      1  0.4335887799618  0.5294871232783  0.6052066689352 1.0
END
