TITL C-40364-2808-16 -0.628 3375.00 -90.48350902 0 0 12 (Cs) n - 1
REM
REM Run started: at 2020.12.22 15:19:50 in /rds/project/t2_vol4/rds-t2-cs072/BORA/CARBON/AIRSS/Generating-Clusters/Str-Search/Only-C1/C10-100
REM VASP from code version vasp.5.4.4.18Apr17-6-g9f103f2a35 (build Oct 11 2019 16:45:47) gamma-only
REM
REM
REM
REM
REM ./C.cell (67c5d0192afd7a3ce4a0888e5fe73b87)
REM AIRSS Version 0.9.1 bugfix July 2018 build 013d7b7c2542+ Fri, 06 Jul 2018 19:26:36 +0100
REM compiler GCC version 4.8.5 20150623 (Red Hat 4.8.5-39)
REM options -cpp -mtune=generic -march=x86-64 -g -O0
REM seed 484017106 -43122439 90897920 -2011611687 -175819091 -390093187 1747090757 -1317853322 2027871863 355578083 -1059139727 -892830961
REM
REM C.POTCAR (d86ddea03c3ceb6dc662c8ad6801f873)
REM 
CELL 1.54180   15.00000   15.00000   15.00000   90.00000   90.00000   90.00000
LATT -1
SFAC C  
C      1  0.7153408756136  0.4276340385493  0.4381272946447 1.0
C      1  0.5473796728140  0.2771436729988  0.5786075873062 1.0
C      1  0.6375020700135  0.4774067904155  0.4523752345326 1.0
C      1  0.2027644046158  0.7412502129274  0.5145058949717 1.0
C      1  0.5749605918642  0.5390117453724  0.4539041250517 1.0
C      1  0.4337814919901  0.6340303642604  0.4712831882669 1.0
C      1  0.2811179636448  0.7078075435899  0.4985758286696 1.0
C      1  0.4909363672417  0.2303822108533  0.6261544467719 1.0
C      1  0.3586847705598  0.6714534444445  0.4844591983850 1.0
C      1  0.6022445036517  0.3249273780749  0.5326805133486 1.0
C      1  0.6496182224700  0.3819274802909  0.4868039683418 1.0
C      1  0.5056690655207  0.5870251182228  0.4625225197093 1.0
END
