TITL C-40364-2808-5 -1.714 3375.00 -292.93126844 0 0 36 (C1) n - 1
REM
REM Run started: at 2020.12.22 12:27:41 in /rds/project/t2_vol4/rds-t2-cs072/BORA/CARBON/AIRSS/Generating-Clusters/Str-Search/Only-C1/C10-100
REM VASP from code version vasp.5.4.4.18Apr17-6-g9f103f2a35 (build Oct 11 2019 16:45:47) gamma-only
REM
REM
REM
REM
REM ./C.cell (67c5d0192afd7a3ce4a0888e5fe73b87)
REM AIRSS Version 0.9.1 bugfix July 2018 build 013d7b7c2542+ Fri, 06 Jul 2018 19:26:36 +0100
REM compiler GCC version 4.8.5 20150623 (Red Hat 4.8.5-39)
REM options -cpp -mtune=generic -march=x86-64 -g -O0
REM seed 861219059 -1490153234 905856862 1657554404 -542215746 1326686823 -359721277 2022816470 1485933079 -1051989100 1567617651 -2101921989
REM
REM C.POTCAR (d86ddea03c3ceb6dc662c8ad6801f873)
REM 
CELL 1.54180   15.00000   15.00000   15.00000   90.00000   90.00000   90.00000
LATT -1
SFAC C  
C      1  0.3467602523501  0.3805564101688  0.4236781257956 1.0
C      1  0.4879771638542  0.6480010164894  0.4518179162183 1.0
C      1  0.6656947899789  0.4210029849144  0.4954234468138 1.0
C      1  0.6949349397480  0.5346394185499  0.6128349958628 1.0
C      1  0.3914065354317  0.4505017064990  0.5859808306993 1.0
C      1  0.5972548453572  0.4212554365618  0.6492741079845 1.0
C      1  0.4311503350340  0.5151176422388  0.5133668664920 1.0
C      1  0.5675302306645  0.3804990949548  0.3834715800548 1.0
C      1  0.4446739959109  0.4575076542119  0.6660654885364 1.0
C      1  0.5697446724621  0.6168648439650  0.4158707683768 1.0
C      1  0.4443365366986  0.3676180644932  0.5569456403711 1.0
C      1  0.3838128826853  0.4927589354582  0.3193243501346 1.0
C      1  0.4531309934530  0.5591553523888  0.3247849208786 1.0
C      1  0.4963562444033  0.5338530109050  0.6857720291617 1.0
C      1  0.6589796533157  0.4948574912165  0.4345611496053 1.0
C      1  0.3362967536372  0.6061508519462  0.4202647084637 1.0
C      1  0.4002219923379  0.4023295500411  0.3436899606917 1.0
C      1  0.5041133999708  0.6121469381685  0.6270044954744 1.0
C      1  0.4770805996148  0.3575276906023  0.3815819635199 1.0
C      1  0.5853360035055  0.5015640310070  0.7073974589244 1.0
C      1  0.5051124970710  0.3877487111939  0.6306503869449 1.0
C      1  0.3245732904413  0.4993505049897  0.5342011976957 1.0
C      1  0.6623238922983  0.6041637853854  0.5551748649355 1.0
C      1  0.3101959965281  0.5241291094579  0.3789815737830 1.0
C      1  0.4206334544656  0.6292010005994  0.3860889976762 1.0
C      1  0.6425986131493  0.5840548513775  0.4649437150492 1.0
C      1  0.4255683583637  0.3418654759540  0.4667897765569 1.0
C      1  0.6485725499601  0.5683476001962  0.6914851299533 1.0
C      1  0.6697301256556  0.4426616793149  0.5899754567776 1.0
C      1  0.5968795155538  0.4723535149472  0.3617433425783 1.0
C      1  0.3498904798678  0.5937965602269  0.5187038809182 1.0
C      1  0.5995997789382  0.6276907794481  0.6268568317204 1.0
C      1  0.6134789714961  0.3494501783827  0.4621753749957 1.0
C      1  0.2979093153402  0.4581002249921  0.4480337087107 1.0
C      1  0.5461550279330  0.5494462418311  0.3431224342058 1.0
C      1  0.4499854125239  0.6137316569222  0.5419626234388 1.0
END
