TITL C-40364-2808-9 -0.643 3375.00 -94.83347472 0 0 13 (C1) n - 1
REM
REM Run started: at 2020.12.22 13:03:14 in /rds/project/t2_vol4/rds-t2-cs072/BORA/CARBON/AIRSS/Generating-Clusters/Str-Search/Only-C1/C10-100
REM VASP from code version vasp.5.4.4.18Apr17-6-g9f103f2a35 (build Oct 11 2019 16:45:47) gamma-only
REM
REM
REM
REM
REM ./C.cell (67c5d0192afd7a3ce4a0888e5fe73b87)
REM AIRSS Version 0.9.1 bugfix July 2018 build 013d7b7c2542+ Fri, 06 Jul 2018 19:26:36 +0100
REM compiler GCC version 4.8.5 20150623 (Red Hat 4.8.5-39)
REM options -cpp -mtune=generic -march=x86-64 -g -O0
REM seed -495759950 426012600 -1116580795 1106539036 -959821166 -363591444 -675279511 1559313108 588542782 1229057182 2137876784 -871702349
REM
REM C.POTCAR (d86ddea03c3ceb6dc662c8ad6801f873)
REM 
CELL 1.54180   15.00000   15.00000   15.00000   90.00000   90.00000   90.00000
LATT -1
SFAC C  
C      1  0.6458854669974  0.5157878238888  0.5337132100749 1.0
C      1  0.4751767563657  0.5002971184906  0.5223733809029 1.0
C      1  0.4921014002346  0.5295589358503  0.7352333861785 1.0
C      1  0.4666221521434  0.4749773140937  0.2946690612223 1.0
C      1  0.3753132001580  0.4805226895836  0.2772436707890 1.0
C      1  0.3920162628629  0.4722093192168  0.3668406770088 1.0
C      1  0.4034608053291  0.5027351000013  0.5863529180459 1.0
C      1  0.4708294298797  0.4830506662587  0.4318038656067 1.0
C      1  0.7224896066827  0.5270671448998  0.4966233468256 1.0
C      1  0.5280138374489  0.4655882190547  0.3599632228669 1.0
C      1  0.5370748556727  0.5204844214330  0.6601268488532 1.0
C      1  0.4294375193605  0.5143794392573  0.6666985951582 1.0
C      1  0.5615788068643  0.5133419079714  0.5683579164671 1.0
END
