TITL C-40364-2808-14 -2.626 3375.00 -430.58140481 0 0 54 (C1) n - 1
REM
REM Run started: at 2020.12.22 14:45:27 in /rds/project/t2_vol4/rds-t2-cs072/BORA/CARBON/AIRSS/Generating-Clusters/Str-Search/Only-C1/C10-100
REM VASP from code version vasp.5.4.4.18Apr17-6-g9f103f2a35 (build Oct 11 2019 16:45:47) gamma-only
REM
REM
REM
REM
REM ./C.cell (67c5d0192afd7a3ce4a0888e5fe73b87)
REM AIRSS Version 0.9.1 bugfix July 2018 build 013d7b7c2542+ Fri, 06 Jul 2018 19:26:36 +0100
REM compiler GCC version 4.8.5 20150623 (Red Hat 4.8.5-39)
REM options -cpp -mtune=generic -march=x86-64 -g -O0
REM seed -647726152 -231816558 -1005289157 868988175 -1607816455 1121170211 -1069911342 1952061763 18480214 -1138009576 -1951496422 -303794796
REM
REM C.POTCAR (d86ddea03c3ceb6dc662c8ad6801f873)
REM 
CELL 1.54180   15.00000   15.00000   15.00000   90.00000   90.00000   90.00000
LATT -1
SFAC C  
C      1  0.3462004282169  0.4042187765346  0.6367038537677 1.0
C      1  0.7287831048637  0.5521377947254  0.4956719965227 1.0
C      1  0.5133194687246  0.3303796041071  0.4169231081548 1.0
C      1  0.7218773940507  0.5331364626895  0.3122207904197 1.0
C      1  0.4875468361098  0.3607219199454  0.5911823375917 1.0
C      1  0.3123707332630  0.6106725594631  0.6067644973661 1.0
C      1  0.5382827074095  0.5011842338343  0.4135116528571 1.0
C      1  0.7327541363258  0.5345655234779  0.5836116365960 1.0
C      1  0.2790242951597  0.4064498532292  0.4164972504309 1.0
C      1  0.5356448103540  0.3798582903776  0.5083746739949 1.0
C      1  0.5711347628992  0.3563434396717  0.3489925036150 1.0
C      1  0.7053260442871  0.4551081493162  0.2654144687451 1.0
C      1  0.6457878047330  0.4071230720144  0.3161866230305 1.0
C      1  0.2718143203092  0.4430675566884  0.5947733070626 1.0
C      1  0.3744384078599  0.2998649093742  0.5029343579877 1.0
C      1  0.3571786985591  0.6331345117825  0.4418701202311 1.0
C      1  0.2891236475339  0.5636152476197  0.4282926330877 1.0
C      1  0.5149057285677  0.7024165123650  0.5781397966462 1.0
C      1  0.3951606201539  0.5885906689865  0.2902842036715 1.0
C      1  0.5862355107442  0.6480308225272  0.3424474835346 1.0
C      1  0.4125305148158  0.4520350695372  0.6904485885150 1.0
C      1  0.2573287047891  0.5409268281543  0.5909476329892 1.0
C      1  0.3345765136294  0.3315968290655  0.4240230206028 1.0
C      1  0.3526052557620  0.5168541815224  0.2967120612131 1.0
C      1  0.2990445279861  0.4875574161457  0.3669362114004 1.0
C      1  0.6349696630291  0.3102335908891  0.6838898359798 1.0
C      1  0.4238108240834  0.2975131989803  0.4230023510824 1.0
C      1  0.3961591400273  0.6172424085121  0.6554258459078 1.0
C      1  0.5674302833091  0.3471794875284  0.7165602039969 1.0
C      1  0.5015913547933  0.4830082864164  0.4996842932227 1.0
C      1  0.3548295972961  0.6649003728257  0.5327130723567 1.0
C      1  0.5419583470328  0.5140440931584  0.6677952326609 1.0
C      1  0.2379293709943  0.4351124736364  0.4998921208491 1.0
C      1  0.3973828929760  0.3343208110063  0.5876914052139 1.0
C      1  0.6918594701878  0.3335873316093  0.5334057999296 1.0
C      1  0.7053706516087  0.5435673398693  0.6735964319579 1.0
C      1  0.6537850091295  0.4955968140011  0.5372149911183 1.0
C      1  0.6880453448624  0.3037244848934  0.6112336741130 1.0
C      1  0.4436219173751  0.5423606714649  0.6876210644883 1.0
C      1  0.5223295915272  0.5812817122117  0.3739634136874 1.0
C      1  0.5681496432018  0.7226906574967  0.4107891893193 1.0
C      1  0.5056551351697  0.4136778729006  0.6755001834545 1.0
C      1  0.7333443931786  0.5752180268474  0.4014525618467 1.0
C      1  0.6364292986021  0.4053844540623  0.4959264104709 1.0
C      1  0.5652187128769  0.5354810380979  0.5662406988440 1.0
C      1  0.6788217922129  0.6141322317638  0.3359129979622 1.0
C      1  0.5687759864056  0.7053286782503  0.4991935895317 1.0
C      1  0.4262951909509  0.6875604720060  0.5961617960960 1.0
C      1  0.6298710136114  0.5389369374806  0.7096899387108 1.0
C      1  0.4346029709017  0.6381712654911  0.3657447546304 1.0
C      1  0.5747863639413  0.6345167380416  0.5602856019566 1.0
C      1  0.2346273690778  0.5306704582974  0.4981464467741 1.0
C      1  0.5064430283984  0.7185450770998  0.3407040303493 1.0
C      1  0.6129104661318  0.4364222820066  0.4006971534547 1.0
END
