TITL C-40364-2808-15 -2.013 3375.00 -320.36382726 0 0 40 (C1) n - 1
REM
REM Run started: at 2020.12.22 15:02:26 in /rds/project/t2_vol4/rds-t2-cs072/BORA/CARBON/AIRSS/Generating-Clusters/Str-Search/Only-C1/C10-100
REM VASP from code version vasp.5.4.4.18Apr17-6-g9f103f2a35 (build Oct 11 2019 16:45:47) gamma-only
REM
REM
REM
REM
REM ./C.cell (67c5d0192afd7a3ce4a0888e5fe73b87)
REM AIRSS Version 0.9.1 bugfix July 2018 build 013d7b7c2542+ Fri, 06 Jul 2018 19:26:36 +0100
REM compiler GCC version 4.8.5 20150623 (Red Hat 4.8.5-39)
REM options -cpp -mtune=generic -march=x86-64 -g -O0
REM seed 1342219994 472895437 -1161240837 -526400552 268829241 -53199392 705027730 1167430208 44621522 -503323953 1494498394 2038558984
REM
REM C.POTCAR (d86ddea03c3ceb6dc662c8ad6801f873)
REM 
CELL 1.54180   15.00000   15.00000   15.00000   90.00000   90.00000   90.00000
LATT -1
SFAC C  
C      1  0.4820325118940  0.7076276352094  0.4624026622547 1.0
C      1  0.3319833002868  0.2690799191058  0.4720011643190 1.0
C      1  0.5025376266015  0.4627296487164  0.3064250865993 1.0
C      1  0.6928268394292  0.5273986906448  0.4446403952509 1.0
C      1  0.6088825897636  0.5765880072000  0.6609368766881 1.0
C      1  0.4715503149827  0.3812836790982  0.6610086976207 1.0
C      1  0.5287199100768  0.5405454941702  0.4927405713240 1.0
C      1  0.4358368377972  0.3236388203363  0.3454790970895 1.0
C      1  0.3759235277343  0.4962400776434  0.6093808586956 1.0
C      1  0.5687304417780  0.3782660966171  0.4331567050477 1.0
C      1  0.3740337314095  0.5928571395690  0.4631866737334 1.0
C      1  0.5274970317554  0.5277216690132  0.6829734887065 1.0
C      1  0.6357621983715  0.4226801994770  0.6340536764683 1.0
C      1  0.6413510809723  0.3434984443365  0.4910370027508 1.0
C      1  0.6334003918366  0.5233947845754  0.3718128427888 1.0
C      1  0.4142634606993  0.2748264614340  0.4232232971249 1.0
C      1  0.3286581777405  0.4423883847639  0.4587817336658 1.0
C      1  0.5492716741319  0.4321325630809  0.6731206245988 1.0
C      1  0.3806380840248  0.6936370595311  0.5889102545207 1.0
C      1  0.4096033178474  0.6437919220824  0.6490472845096 1.0
C      1  0.4198745617238  0.4104803296338  0.3140867782745 1.0
C      1  0.3993222050380  0.6784390613616  0.4979757022630 1.0
C      1  0.3657335392001  0.4652228213002  0.3719703133419 1.0
C      1  0.6124949640809  0.6650948800908  0.6371589305662 1.0
C      1  0.6516167348050  0.3538932890441  0.5723943169455 1.0
C      1  0.6060130467603  0.7273199168278  0.5819060218869 1.0
C      1  0.5837799551070  0.4386371902155  0.3492973858229 1.0
C      1  0.4024316203588  0.5561394923914  0.3764364754638 1.0
C      1  0.5477013706416  0.6336557394818  0.4476230006168 1.0
C      1  0.5689804078311  0.5951100258402  0.3601866332470 1.0
C      1  0.4862834360592  0.5568463094068  0.3268399635694 1.0
C      1  0.4368440105910  0.5566169604008  0.6628253359868 1.0
C      1  0.5264490764991  0.4569706901630  0.4850169828811 1.0
C      1  0.7019355323554  0.5298772252394  0.5283178839715 1.0
C      1  0.3453979793889  0.5172952830219  0.5196980399458 1.0
C      1  0.3959254538939  0.4079678702802  0.6364070812693 1.0
C      1  0.5635486431264  0.7168921650360  0.5007463852126 1.0
C      1  0.6679642033246  0.5128494945273  0.6143079433053 1.0
C      1  0.3223736546538  0.3538426773589  0.4847870477007 1.0
C      1  0.5018265554279  0.3065217817738  0.4076987839718 1.0
END
