TITL C-425701-5682-1 -4.67 3375.00 -813.29573584 0 0 99 (C1) n - 1
REM
REM Run started: at 2020.10.17 00:59:03 in /rds/project/t2_vol4/rds-t2-cs072/BORA/CARBON/AIRSS/Generating-Clusters/Str-Search
REM VASP from code version vasp.5.4.4.18Apr17-6-g9f103f2a35 (build Oct 11 2019 16:45:47) gamma-only
REM
REM
REM
REM
REM ./C.cell (8c8f32957ea4b25f9ffc41644e092d35)
REM AIRSS Version 0.9.1 bugfix July 2018 build 013d7b7c2542+ Fri, 06 Jul 2018 19:26:36 +0100
REM compiler GCC version 4.8.5 20150623 (Red Hat 4.8.5-39)
REM options -cpp -mtune=generic -march=x86-64 -g -O0
REM seed 1811631454 1188413089 53245523 -1514486219 -105842735 -749983770 981860362 -281133787 838160033 -1656364131 840104648 116080767
REM
REM C.POTCAR (d86ddea03c3ceb6dc662c8ad6801f873)
REM 
CELL 1.54180   15.00000   15.00000   15.00000   90.00000   90.00000   90.00000
LATT -1
SFAC C  
C      1  0.4057486865242  0.5190150828641  0.4041910717813 1.0
C      1  0.5744220439591  0.6862356522568  0.6507572290186 1.0
C      1  0.6761093822004  0.4251289090271  0.2746040459594 1.0
C      1  0.4242761693252  0.7916089708717  0.5381347819076 1.0
C      1  0.2534149859784  0.6777321746732  0.5098906195794 1.0
C      1  0.5573148355127  0.4164621011398  0.6629357022960 1.0
C      1  0.4355435028095  0.2403697668577  0.5740841390514 1.0
C      1  0.5524078204227  0.5093358578661  0.2151462325964 1.0
C      1  0.6801642652745  0.2537047611311  0.4378058391023 1.0
C      1  0.1819709630399  0.6572935608408  0.2365404422784 1.0
C      1  0.4676832133308  0.5784850119832  0.5941575386978 1.0
C      1  0.6750546518077  0.6679084363415  0.3452448629722 1.0
C      1  0.4475096511414  0.7503369749825  0.3803182329871 1.0
C      1  0.4803569106985  0.4257311696903  0.8049790743776 1.0
C      1  0.4036106640229  0.3683631316485  0.7818287962029 1.0
C      1  0.3673398368622  0.2536267619716  0.5128658609039 1.0
C      1  0.6459093611731  0.3474566664144  0.7668631981273 1.0
C      1  0.6762851771156  0.3545150692099  0.4363918512749 1.0
C      1  0.2247381343252  0.5246142857711  0.5410089587236 1.0
C      1  0.4160585148304  0.7534200635868  0.6286914051939 1.0
C      1  0.2923156252294  0.5625679743251  0.5987880387227 1.0
C      1  0.5769830285305  0.4840193631755  0.4364526425871 1.0
C      1  0.2587668846193  0.3302666730885  0.3775287614939 1.0
C      1  0.6915955862960  0.4097216183291  0.5303057281727 1.0
C      1  0.5494371546273  0.6603772567343  0.2560391409187 1.0
C      1  0.6124647685450  0.2601419147669  0.5821359993591 1.0
C      1  0.3915301794653  0.4364629834648  0.6063259003384 1.0
C      1  0.3806262787217  0.5256031838195  0.6026137604053 1.0
C      1  0.2271048115781  0.4535339508317  0.4757341936207 1.0
C      1  0.7596073034879  0.4565861398863  0.6805450831364 1.0
C      1  0.2436942699178  0.6654716715847  0.2926845759300 1.0
C      1  0.4168355616327  0.4499387616830  0.2708388194272 1.0
C      1  0.7283731357599  0.5078388567066  0.2908489701642 1.0
C      1  0.5364278523679  0.3587032311945  0.5275228145467 1.0
C      1  0.4777736190085  0.3937747581527  0.6046491354599 1.0
C      1  0.3552366447770  0.3094849629340  0.2403492590497 1.0
C      1  0.5161587676705  0.7558863373746  0.6329290521879 1.0
C      1  0.2555634483099  0.3632343488660  0.4688114709904 1.0
C      1  0.3166762738571  0.6630846492413  0.3569048178989 1.0
C      1  0.4251507693171  0.3039465104611  0.6465164810853 1.0
C      1  0.7357575100554  0.5550799523313  0.6988814557385 1.0
C      1  0.5882848392182  0.4217498266122  0.2414296555169 1.0
C      1  0.3986912380699  0.4325028089269  0.3609039937790 1.0
C      1  0.5923951224745  0.7128479197669  0.3230091320640 1.0
C      1  0.6989097094827  0.4186293348778  0.7493412848722 1.0
C      1  0.3268512051497  0.5663328530791  0.3890991364001 1.0
C      1  0.4623880694473  0.5311950678854  0.2381358431473 1.0
C      1  0.2027937887624  0.5992850747665  0.4825463050080 1.0
C      1  0.6857850451545  0.5906867928116  0.2826645205825 1.0
C      1  0.8183288895833  0.5007748406540  0.5355268499421 1.0
C      1  0.4076535102228  0.6861980491770  0.3207919333805 1.0
C      1  0.7735742766692  0.4330941141379  0.5863200851137 1.0
C      1  0.5469139522045  0.3634859186465  0.7539634945654 1.0
C      1  0.2903238359214  0.4780831711814  0.7629313741769 1.0
C      1  0.4154106774402  0.2598047846714  0.4268557977154 1.0
C      1  0.6089201255500  0.1916074006649  0.4299694017084 1.0
C      1  0.6582172102137  0.2110054459380  0.5180139556195 1.0
C      1  0.7816049643811  0.4668094388079  0.3620111866453 1.0
C      1  0.5265245716301  0.3508527124240  0.2646298104959 1.0
C      1  0.2981317015379  0.3153995413710  0.5414374074809 1.0
C      1  0.4571881611039  0.5963380867665  0.7526380068322 1.0
C      1  0.2878813443363  0.6578084916677  0.5995949267573 1.0
C      1  0.6967502035271  0.6646492907642  0.4355745993146 1.0
C      1  0.6636693229354  0.5117507171208  0.7370187369790 1.0
C      1  0.4969097216040  0.5393176336379  0.4357954966141 1.0
C      1  0.3533109126704  0.6925995570815  0.6624687075032 1.0
C      1  0.6055424218215  0.5877786339759  0.2314993096811 1.0
C      1  0.5233360868347  0.2573276818420  0.5327652476078 1.0
C      1  0.4597418477735  0.3083269489042  0.7375151381478 1.0
C      1  0.5794322556336  0.7697057059158  0.4789218284893 1.0
C      1  0.5425313297956  0.7578999755936  0.3894662498576 1.0
C      1  0.7784290948982  0.5859515021478  0.5571534025052 1.0
C      1  0.3217674054755  0.3940774948027  0.7348394289674 1.0
C      1  0.6551090657452  0.5050337523334  0.4863561691635 1.0
C      1  0.2419025173640  0.5327273626688  0.4211591024376 1.0
C      1  0.7291874719250  0.6192456677932  0.6274682583300 1.0
C      1  0.3073518066660  0.5597609150181  0.7644296815939 1.0
C      1  0.4974462223306  0.5135484153894  0.7832517509534 1.0
C      1  0.6565840019940  0.6792230769874  0.5990068490040 1.0
C      1  0.6184105373788  0.3649757153567  0.5881755883973 1.0
C      1  0.3699580734908  0.6280674323033  0.7391023032818 1.0
C      1  0.5697928288499  0.5143604326944  0.7104381686745 1.0
C      1  0.7328915076900  0.5805062535053  0.4698648330338 1.0
C      1  0.4320605412193  0.3565938371134  0.2318862065317 1.0
C      1  0.3349232310187  0.3570114805238  0.6340880531856 1.0
C      1  0.5244024244592  0.3280945946022  0.3652576710182 1.0
C      1  0.5186803215888  0.2365930426956  0.4265429439048 1.0
C      1  0.2863175793245  0.3167806673490  0.2987789711714 1.0
C      1  0.5063891828588  0.5840570651236  0.5151661843729 1.0
C      1  0.8026650564623  0.5138306510924  0.4401456650792 1.0
C      1  0.3872354751078  0.7659066053315  0.4558726297428 1.0
C      1  0.4595870409278  0.6304109283601  0.2641428021552 1.0
C      1  0.5734081254095  0.3842040622360  0.4328659678760 1.0
C      1  0.6536433308665  0.7147833666557  0.5064818199254 1.0
C      1  0.3069830952228  0.7170774136046  0.4435799054249 1.0
C      1  0.7194957994347  0.3942328425302  0.3563037292123 1.0
C      1  0.5235177911060  0.6021001823231  0.6762765426726 1.0
C      1  0.4296805191061  0.3424825498949  0.3886932699735 1.0
C      1  0.5201853668013  0.7974455618128  0.5459869011479 1.0
END
