TITL C-436216-4994-2 10.963 3375.00 0 0 0 512 (C1) n - 1
REM
REM Run started: at 2020.03.13 13:30:20 in /rds/user/bk393/hpc-work/AIRSS.pl-DENE/CARBON/New-Try
REM VASP from code version vasp.5.4.4.18Apr17-6-g9f103f2a35 (build Oct 11 2019 16:45:47) gamma-only
REM
REM
REM
REM
REM ./C.cell (a79a4077332dcb654850026c449f6690)
REM AIRSS Version 0.9.1 bugfix July 2018 build 013d7b7c2542+ Fri, 06 Jul 2018 19:26:36 +0100
REM compiler GCC version 4.8.5 20150623 (Red Hat 4.8.5-39)
REM options -cpp -mtune=generic -march=x86-64 -g -O0
REM seed -1564835677 -1547763733 1435190241 654125847 204667029 -2135167105 1624822757 192438698 -207606418 -451597118 812786392 -1881518883
REM
REM C.POTCAR (d86ddea03c3ceb6dc662c8ad6801f873)
REM 
CELL 1.54180   15.00000   15.00000   15.00000   90.00000   90.00000   90.00000
LATT -1
SFAC C  
C      1  0.1080678715280  0.6124113370990  0.6483760520107 1.0
C      1  0.6318348121104  0.6775866831136  0.1379532151173 1.0
C      1  0.7865164069381  0.5818379606502  0.5410274311059 1.0
C      1  0.6331858579670  0.5086745520836  0.1934480539093 1.0
C      1  0.4336512041078  0.6532841059708  0.2789647041779 1.0
C      1  0.3408822606579  0.8476741753679  0.5763299051313 1.0
C      1  0.6973316380155  0.8364874216044  0.9438867323588 1.0
C      1  0.9646467084506  0.1657451607954  0.3414010875843 1.0
C      1  0.0755453059734  0.7689889534895  0.5187405756921 1.0
C      1  0.4353680614224  0.1908314473792  0.1304306108075 1.0
C      1  0.3766218224643  0.8590111206173  0.1285531818440 1.0
C      1  0.5495112771892  0.0860611276938  0.0932666133281 1.0
C      1  0.3692150047951  0.1284777809458  0.5807990660191 1.0
C      1  0.7654691222607  0.1385644501524  0.8436545523891 1.0
C      1  0.8049622580222  0.2700345127074  0.7389036391384 1.0
C      1  0.0983937962720  0.9651709273003  0.5286616135537 1.0
C      1  0.5718942689620  0.3918131072683  0.4928683777998 1.0
C      1  0.1892025923824  0.0166592544304  0.5031752026248 1.0
C      1  0.6812322537078  0.9090739179445  0.8078836139876 1.0
C      1  0.8880122597047  0.8741728829950  0.4113027334393 1.0
C      1  0.3077739461726  0.7777877645285  0.9726364815472 1.0
C      1  0.1786013213987  0.0345242617849  0.4041563465508 1.0
C      1  0.9375407795855  0.3403391054103  0.5425409315108 1.0
C      1  0.2137893565272  0.9377752417860  0.7320398525863 1.0
C      1  0.6211076186709  0.3182843738260  0.1705565881346 1.0
C      1  0.6289547586244  0.0792255557773  0.1679240252265 1.0
C      1  0.6238676400501  0.1424886129661  0.4974608380892 1.0
C      1  0.5863148258660  0.7183618264285  0.8499940262209 1.0
C      1  0.8986582670100  0.1961661654701  0.2793117508769 1.0
C      1  0.2538578894353  0.3878341289568  0.2175698999771 1.0
C      1  0.7112457307407  0.4142109947053  0.2866472623463 1.0
C      1  0.5976730818850  0.2827038142073  0.4031561944463 1.0
C      1  0.9104982775756  0.1063270074441  0.6553708329829 1.0
C      1  0.2431070226664  0.4272911075382  0.0682332570300 1.0
C      1  0.0185988672248  0.2251236460687  0.6648580825696 1.0
C      1  0.1664430578159  0.8712541906099  0.7915504808553 1.0
C      1  0.3811856717137  0.6151007735809  0.4080179580643 1.0
C      1  0.4077828063045  0.4115402584114  0.6332431092143 1.0
C      1  0.4472738154209  0.7269204174482  0.7440943685766 1.0
C      1  0.2486161624736  0.9781211741700  0.5757530887727 1.0
C      1  0.9177284819496  0.5493377104842  0.3305384852827 1.0
C      1  0.6575033161417  0.2823702554080  0.4831662477765 1.0
C      1  0.8133061418892  0.5361219154658  0.0283375078685 1.0
C      1  0.1292636768130  0.5103834209908  0.3323451494191 1.0
C      1  0.7914387882463  0.4461463249482  0.3284414527050 1.0
C      1  0.4595435283160  0.2092808818981  0.0380875546238 1.0
C      1  0.3156656322312  0.2081637379125  0.4241019533495 1.0
C      1  0.7463965681645  0.7541811619801  0.8203268004026 1.0
C      1  0.6895970656966  0.7547001842885  0.1478977500728 1.0
C      1  0.5283317483137  0.1864035456991  0.8187467889850 1.0
C      1  0.3823382381633  0.1086300001207  0.1397991651961 1.0
C      1  0.5009513737239  0.5219613839872  0.2343012558603 1.0
C      1  0.1714988364754  0.8033928118329  0.4921400715135 1.0
C      1  0.3194723366312  0.3587671742041  0.0554068176951 1.0
C      1  0.1824708013498  0.0881412303569  0.2059281936255 1.0
C      1  0.7026635740478  0.4800944454108  0.4734107706471 1.0
C      1  0.2755830966397  0.5445702259957  0.2173703366750 1.0
C      1  0.2631872866404  0.0616773603321  0.3538604477990 1.0
C      1  0.0237820005340  0.4892166559618  0.7116974951495 1.0
C      1  0.8287228288325  0.0971417415937  0.7007504867044 1.0
C      1  0.7986555842014  0.4737646810372  0.6598213509138 1.0
C      1  0.8929305056747  0.7274284962764  0.8439546951466 1.0
C      1  0.1730828799119  0.4063321095981  0.6659881454395 1.0
C      1  0.0473159914393  0.2632652561369  0.2135096497180 1.0
C      1  0.9096407394421  0.3985062058855  0.7709328468573 1.0
C      1  0.3760773623848  0.5330976188387  0.7752530992560 1.0
C      1  0.3700709481842  0.1366543859630  0.9050863532545 1.0
C      1  0.8563727468718  0.5754176852688  0.1105588168613 1.0
C      1  0.7357501333361  0.3240859881127  0.5984449092990 1.0
C      1  0.3694479318440  0.8166175728947  0.9176329632026 1.0
C      1  0.8455125650961  0.1178278627883  0.2753219687873 1.0
C      1  0.6451091371421  0.3927244812407  0.3428579238166 1.0
C      1  0.3222435504453  0.5945484202990  0.9164787774444 1.0
C      1  0.7794517919135  0.6110388520177  0.7811999948503 1.0
C      1  0.4883156908301  0.9936873108840  0.1932499205253 1.0
C      1  0.5929000072688  0.3205002617976  0.5541920430149 1.0
C      1  0.7558933944434  0.7712857891927  0.4610010801699 1.0
C      1  0.1038504687056  0.3604069822177  0.5363741177104 1.0
C      1  0.9620231602932  0.4799250823706  0.3922204266945 1.0
C      1  0.7086608158037  0.0627171368927  0.8472625626340 1.0
C      1  0.3422972048755  0.1125867022817  0.3955878411870 1.0
C      1  0.9777593000845  0.6260861341616  0.1960507755781 1.0
C      1  0.6951580387655  0.8724398537495  0.3735750199189 1.0
C      1  0.4448079791743  0.9804844315565  0.2797476236903 1.0
C      1  0.3073498598102  0.6287790187032  0.4711136922746 1.0
C      1  0.4747382005594  0.5913111469486  0.4074182262145 1.0
C      1  0.6154165566770  0.3093289424378  0.9943491844461 1.0
C      1  0.6149829881156  0.1720146608890  0.1924594593303 1.0
C      1  0.6520612223306  0.0758067932406  0.9214590651752 1.0
C      1  0.5062231014380  0.4524844627021  0.5256387036473 1.0
C      1  0.4489785760611  0.3139006004181  0.4750825595765 1.0
C      1  0.1771075480255  0.5915751862779  0.0371978365785 1.0
C      1  0.3487530120382  0.4066079743968  0.2249302964922 1.0
C      1  0.2798773469745  0.9565321393007  0.2288402674344 1.0
C      1  0.3617244025452  0.0243789240730  0.4425997477679 1.0
C      1  0.9564255927814  0.1674334247685  0.7096245398076 1.0
C      1  0.1398031622563  0.6260600450984  0.5503319465253 1.0
C      1  0.2299252603819  0.8606689962462  0.0985273892415 1.0
C      1  0.3613136763285  0.8490620274600  0.7531925670823 1.0
C      1  0.6759850249606  0.0893283139203  0.6357563048734 1.0
C      1  0.5229587626881  0.0489766093526  0.4092210433043 1.0
C      1  0.5508949211657  0.1759490134741  0.0527028112416 1.0
C      1  0.0508052934397  0.3621091035813  0.8870314104149 1.0
C      1  0.5284188626763  0.8867437233537  0.9096545794408 1.0
C      1  0.6408724118401  0.7144018634120  0.2871147640173 1.0
C      1  0.6221917785470  0.6764064460628  0.4572826701261 1.0
C      1  0.1133217511411  0.9078907914903  0.6072095774269 1.0
C      1  0.1743688227481  0.2375877944714  0.6282820548300 1.0
C      1  0.3763647170759  0.6234017473854  0.0027268649881 1.0
C      1  0.8472353218767  0.8408482967089  0.1613002554738 1.0
C      1  0.4837852646779  0.9916355531044  0.8852539608692 1.0
C      1  0.4384578910708  0.4627741159183  0.0070782020220 1.0
C      1  0.0220452248583  0.4614791981336  0.8812479766329 1.0
C      1  0.7628224049166  0.1844537704747  0.9337302087924 1.0
C      1  0.3378020456729  0.2190413875610  0.5900863260411 1.0
C      1  0.5297328583810  0.4464134284858  0.9697045332197 1.0
C      1  0.5603893073339  0.3860332812291  0.2899491678117 1.0
C      1  0.3204493367262  0.7222638857697  0.4891841444960 1.0
C      1  0.2636065717557  0.6257970994717  0.6478447833439 1.0
C      1  0.2396094642259  0.2405962634634  0.2800356203402 1.0
C      1  0.4995992798621  0.4200767243555  0.3652925348583 1.0
C      1  0.0649521517821  0.3051184028537  0.8146685980689 1.0
C      1  0.6890751005295  0.8485716680549  0.5606522365617 1.0
C      1  0.5300324209291  0.1713907634258  0.1464354647485 1.0
C      1  0.0941665333019  0.0916837087206  0.4048589502625 1.0
C      1  0.9435970497209  0.6934972407617  0.4554939758289 1.0
C      1  0.7802504431361  0.3459550766932  0.1364222325403 1.0
C      1  0.2843123602142  0.3592976945351  0.4720312980468 1.0
C      1  0.4433210152736  0.8240537908079  0.5647958480922 1.0
C      1  0.6646619781053  0.2357412808027  0.1297132388586 1.0
C      1  0.6432981538585  0.6897597011352  0.6200950489032 1.0
C      1  0.5424459819786  0.5848625995631  0.5465409886176 1.0
C      1  0.2059590342075  0.3149252460192  0.8791702010061 1.0
C      1  0.8879340581433  0.8907117223540  0.6162279545322 1.0
C      1  0.1989131016794  0.9204154265158  0.2722955117142 1.0
C      1  0.5595457928175  0.8623965723329  0.2570955258281 1.0
C      1  0.1857738012959  0.7325373541267  0.8735238723538 1.0
C      1  0.6776246041669  0.7707273441181  0.0115332450000 1.0
C      1  0.2205214387666  0.5243660534368  0.7557187934814 1.0
C      1  0.1617999832420  0.4926035276478  0.6222447363730 1.0
C      1  0.7276874601695  0.8448183161363  0.2777336650902 1.0
C      1  0.2446525690905  0.7643872765123  0.7138057516262 1.0
C      1  0.1086577987695  0.6841339502097  0.7217239668310 1.0
C      1  0.1004381879077  0.1677152975094  0.6525422849265 1.0
C      1  0.8956846949442  0.4965745742898  0.7874636620810 1.0
C      1  0.9628765263937  0.3963802222840  0.2522859129833 1.0
C      1  0.2906573725750  0.6803044549114  0.0935861462471 1.0
C      1  0.4681925753777  0.8127369922112  0.9543372598819 1.0
C      1  0.5825413742619  0.0192667518156  0.7900195800373 1.0
C      1  0.5515932983750  0.1373940092436  0.4333076860403 1.0
C      1  0.4068299820832  0.4047964346574  0.0773046002083 1.0
C      1  0.5923452291639  0.4795083944730  0.7853558745574 1.0
C      1  0.3356329051493  0.3620539385578  0.3780386895806 1.0
C      1  0.9287351395579  0.1643621249212  0.8044302650849 1.0
C      1  0.8474215801677  0.7139747525873  0.3266337278310 1.0
C      1  0.8335284467114  0.6803461935581  0.1310727712031 1.0
C      1  0.8347910595797  0.5207713011121  0.2742422595807 1.0
C      1  0.8427759992019  0.1185713984770  0.7904964476469 1.0
C      1  0.6503443662778  0.9011396820250  0.2273972507275 1.0
C      1  0.5946692294748  0.4021216763031  0.0343542826943 1.0
C      1  0.3209365993749  0.5826868713588  0.0768406777882 1.0
C      1  0.7786420819353  0.8763922896200  0.7923210486898 1.0
C      1  0.1317418460479  0.4867565888742  0.1507714071215 1.0
C      1  0.0528950209257  0.4506723603352  0.5476459726727 1.0
C      1  0.0457233386549  0.3135805185313  0.7099881276368 1.0
C      1  0.5193349278581  0.5831186950141  0.0868869862736 1.0
C      1  0.0651904735026  0.4756825133711  0.3962651859348 1.0
C      1  0.0569894389396  0.7463825223852  0.3551082358953 1.0
C      1  0.8139009377420  0.5623539837434  0.6336651442691 1.0
C      1  0.4167177563515  0.3426713056477  0.2082651590681 1.0
C      1  0.7380323202155  0.0253684572914  0.2767365695500 1.0
C      1  0.6444485447278  0.3272640021673  0.7174343210957 1.0
C      1  0.2974500062916  0.5046704636184  0.5513399777794 1.0
C      1  0.7621086582053  0.1405571597415  0.6378088658840 1.0
C      1  0.0689117308293  0.5153522206415  0.6324005583267 1.0
C      1  0.7753964789267  0.7057855527145  0.3966839769768 1.0
C      1  0.3014873833123  0.1696929551379  0.7623727728179 1.0
C      1  0.5550138786953  0.6814171275144  0.0784683264879 1.0
C      1  0.0723085632545  0.1838969886847  0.1695314968440 1.0
C      1  0.6775943844388  0.8252127837203  0.4593076353462 1.0
C      1  0.4368241079844  0.1860861788121  0.9497878298820 1.0
C      1  0.9699439755765  0.7284156799819  0.1984383913275 1.0
C      1  0.3775624324199  0.3365602336837  0.8204491957586 1.0
C      1  0.6060681952814  0.6043766346584  0.9416618915741 1.0
C      1  0.9329621847427  0.6381376958217  0.7089174727363 1.0
C      1  0.0172052487167  0.2090282261183  0.4932690763438 1.0
C      1  0.7087569267326  0.3583292703330  0.2082876608620 1.0
C      1  0.0981386967948  0.6587133208946  0.4119845867156 1.0
C      1  0.7910975779521  0.6774847240787  0.4930823624596 1.0
C      1  0.8291688069760  0.5129907879632  0.4785223877016 1.0
C      1  0.9648675139391  0.3131639169302  0.1927114500123 1.0
C      1  0.1611137710907  0.4426218369531  0.7646773022747 1.0
C      1  0.8084939439189  0.6388552797562  0.9409754734293 1.0
C      1  0.3140169502133  0.1949778713669  0.8628870156447 1.0
C      1  0.5124785359204  0.6008719752050  0.7252285093634 1.0
C      1  0.8095296670456  0.3821904576115  0.0505343032369 1.0
C      1  0.4649589079609  0.2751634047705  0.2569001830075 1.0
C      1  0.7615103562376  0.5137063015696  0.4023048677068 1.0
C      1  0.3472292568272  0.4392589484572  0.4903654264049 1.0
C      1  0.6736329780238  0.5432796386308  0.9680436266288 1.0
C      1  0.9854918068304  0.7749242057868  0.2822230720170 1.0
C      1  0.6986889311277  0.9938906330751  0.6649901856784 1.0
C      1  0.3966583968568  0.4433057442537  0.3956747717534 1.0
C      1  0.1980754769207  0.0453562711555  0.7239002959650 1.0
C      1  0.8317284298871  0.8261643817041  0.4834020802580 1.0
C      1  0.5048219242535  0.9568538649611  0.7884495805454 1.0
C      1  0.9567758018004  0.7034370762845  0.7836736986206 1.0
C      1  0.8979426068720  0.7560933811389  0.1497613883809 1.0
C      1  0.1299679753143  0.5739552998760  0.1102331295597 1.0
C      1  0.0847166017636  0.5197058147613  0.9324452810839 1.0
C      1  0.1395443081740  0.8011853864688  0.3331834905699 1.0
C      1  0.6395870468263  0.9167851515103  0.1302741338576 1.0
C      1  0.4879414926539  0.8604901775443  0.6595806628680 1.0
C      1  0.7420121863952  0.6004103921671  0.0096196964229 1.0
C      1  0.0701209229478  0.2894606376913  0.4640303059190 1.0
C      1  0.6623430336883  0.5116484711193  0.7223080031819 1.0
C      1  0.3987132738747  0.8185293270907  0.2179936874531 1.0
C      1  0.3269642892178  0.0159663075934  0.8163812064802 1.0
C      1  0.3941070328293  0.2506190144098  0.1928288985142 1.0
C      1  0.3316082608579  0.7951208046969  0.8300210814218 1.0
C      1  0.5182806745234  0.4226820349554  0.7462597350573 1.0
C      1  0.6400219139882  0.6847682608089  0.7185811994015 1.0
C      1  0.7316908869314  0.0592704429352  0.1832527391965 1.0
C      1  0.8660593101163  0.4080038933742  0.8911072999339 1.0
C      1  0.9184058499396  0.6515498209210  0.3624441437281 1.0
C      1  0.7962925080871  0.1654174555307  0.5453279172998 1.0
C      1  0.0630422562380  0.6009207594891  0.4902925812931 1.0
C      1  0.7064447992345  0.1943624038691  0.4825212342300 1.0
C      1  0.2017568244751  0.2152097547999  0.5311083013520 1.0
C      1  0.8183370138825  0.9619836529102  0.2969883507641 1.0
C      1  0.3107032644082  0.7627678503314  0.2387047517832 1.0
C      1  0.8857063232350  0.2736068489793  0.4729704524251 1.0
C      1  0.5497375517395  0.2040519660132  0.3644768658897 1.0
C      1  0.0961430828084  0.1170535411022  0.2352787604150 1.0
C      1  0.8965708183111  0.2456916051188  0.1952390622187 1.0
C      1  0.3487782862856  0.1144379431201  0.2363471105342 1.0
C      1  0.5443342402796  0.0830808398010  0.7243371509753 1.0
C      1  0.8510838333029  0.4206020135964  0.1365429899065 1.0
C      1  0.8066576255154  0.0393733090501  0.4331339357280 1.0
C      1  0.5861743955921  0.9734938183412  0.4339575998033 1.0
C      1  0.1427031413276  0.1657172027884  0.8092491935387 1.0
C      1  0.5613134239546  0.7740102767884  0.2911509311920 1.0
C      1  0.4345036513903  0.5599731260380  0.6956983392184 1.0
C      1  0.9401213171768  0.3860568491378  0.3540254846784 1.0
C      1  0.7603296245941  0.5911576549322  0.2659647659996 1.0
C      1  0.7325133042855  0.0135660100143  0.5065360587345 1.0
C      1  0.7951966441132  0.6840104633360  0.2422461772218 1.0
C      1  0.0943852069885  0.5092858449539  0.4819681887259 1.0
C      1  0.4128824648218  0.1280557339806  0.3174263742607 1.0
C      1  0.8701414228875  0.3294018218156  0.6110897738626 1.0
C      1  0.2412237000630  0.0648257649778  0.6319039602066 1.0
C      1  0.9408783793567  0.8192438618866  0.6126165963547 1.0
C      1  0.8108709663947  0.1106552046718  0.1833143814819 1.0
C      1  0.5543013667419  0.6441794239388  0.3927254279122 1.0
C      1  0.3067547849382  0.4807515990398  0.7329616187396 1.0
C      1  0.4678464889199  0.1285075839429  0.5752415078176 1.0
C      1  0.1398716013672  0.7294315045070  0.1220539490904 1.0
C      1  0.5010259074297  0.2680708620587  0.5440742280878 1.0
C      1  0.2552842127868  0.5226738693228  0.0298722573618 1.0
C      1  0.4577908542797  0.8232779327116  0.7486033531877 1.0
C      1  0.6372882284255  0.2186470345939  0.0346597466612 1.0
C      1  0.3003132145837  0.6807461799950  0.7195481276341 1.0
C      1  0.7054790352067  0.5816227405968  0.3502464300538 1.0
C      1  0.8944830293893  0.2393591380091  0.7526056732737 1.0
C      1  0.6333623546965  0.6235697892986  0.5416253567816 1.0
C      1  0.1422013464344  0.2505949092434  0.8349206607738 1.0
C      1  0.6494749894649  0.7584903416480  0.7865242422837 1.0
C      1  0.4643222707157  0.4011407466694  0.8276703069780 1.0
C      1  0.3067907911450  0.2894225856179  0.8920203795831 1.0
C      1  0.6882579546845  0.1529410467820  0.9759605955547 1.0
C      1  0.6940230922425  0.2331955662773  0.3179245442657 1.0
C      1  0.5419284400627  0.3852845608693  0.8913270139941 1.0
C      1  0.7608723922117  0.2487334941779  0.1477517524501 1.0
C      1  0.1478217602034  0.8509400810333  0.2447039479406 1.0
C      1  0.6378479124685  0.8923860198761  0.9059176491478 1.0
C      1  0.4714471177198  0.5596688300097  0.8661416076415 1.0
C      1  0.8702077054382  0.7344725159558  0.5081642282899 1.0
C      1  0.6406974031993  0.4821972637830  0.6249406309776 1.0
C      1  0.2479598199430  0.5883793966911  0.3894426733903 1.0
C      1  0.0528416102835  0.1264098102502  0.3239087433802 1.0
C      1  0.8018921909329  0.5168366911670  0.7986406638387 1.0
C      1  0.5134105790414  0.2635648729457  0.7638913054043 1.0
C      1  0.0589059667731  0.9201588903854  0.4493521918025 1.0
C      1  0.3818117785722  0.6092547914707  0.8431663900092 1.0
C      1  0.3848180224515  0.6907571457594  0.3399115435318 1.0
C      1  0.7461468018382  0.4595207613947  0.7426130759393 1.0
C      1  0.3800860773467  0.7129083132386  0.6698109146535 1.0
C      1  0.7236019113121  0.5473164680600  0.1835713774301 1.0
C      1  0.4517326880238  0.2227658140647  0.3373868106221 1.0
C      1  0.8538505708793  0.0957124663262  0.5016029987645 1.0
C      1  0.0774853483827  0.4951175213365  0.7975394875799 1.0
C      1  0.7799832962184  0.4266927861943  0.5083786285374 1.0
C      1  0.5142808551890  0.5313613088776  0.4694421737981 1.0
C      1  0.1932540053544  0.1068739651238  0.5525922642557 1.0
C      1  0.9921688684697  0.3967103779790  0.7192560154422 1.0
C      1  0.6238602583148  0.7836508199270  0.6052363428866 1.0
C      1  0.3896495412522  0.2731721773578  0.3995380872596 1.0
C      1  0.9367069767600  0.4587892289780  0.1738080746980 1.0
C      1  0.1968638691012  0.6902501077847  0.0432778650453 1.0
C      1  0.2256659571431  0.4633463177376  0.1647875366205 1.0
C      1  0.7795490944683  0.9716482965690  0.5838066328361 1.0
C      1  0.6878124292387  0.6040637901988  0.1058142380138 1.0
C      1  0.7998726809557  0.3999161400035  0.5998297913028 1.0
C      1  0.8285443102220  0.8717284409842  0.2563264264130 1.0
C      1  0.6157894711906  0.8486457632175  0.7617546354645 1.0
C      1  0.4237816385227  0.7293887364271  0.5130277853739 1.0
C      1  0.6469605304235  0.9835610508910  0.2827814861148 1.0
C      1  0.5088166571795  0.9124511438317  0.4177519210745 1.0
C      1  0.3671446483943  0.6975020569147  0.8014402395541 1.0
C      1  0.2763620243790  0.2643905256999  0.0757063716215 1.0
C      1  0.1234201955902  0.3538984859935  0.3015621024988 1.0
C      1  0.0481079325912  0.7357478065559  0.7816815292885 1.0
C      1  0.6485108348811  0.9467877953649  0.3689678806250 1.0
C      1  0.6128478123179  0.5389888906586  0.1023878490002 1.0
C      1  0.1488555844020  0.4574100667313  0.9379884796754 1.0
C      1  0.3518158901535  0.9423241298867  0.2995713718607 1.0
C      1  0.7467716810076  0.1944721040767  0.3900194845269 1.0
C      1  0.5602016375531  0.4428765765828  0.2090928617561 1.0
C      1  0.0041369667868  0.3064052111937  0.3821886233432 1.0
C      1  0.9262079244918  0.5107004439976  0.4862007071536 1.0
C      1  0.7625031661317  0.7399567599976  0.0779552407019 1.0
C      1  0.1409420551447  0.4126949804714  0.3785820335956 1.0
C      1  0.4630114200391  0.9541787970494  0.6943376077550 1.0
C      1  0.9730898335158  0.2431770733361  0.5747115195224 1.0
C      1  0.3974014019108  0.3228527366932  0.6752580206577 1.0
C      1  0.5385978562778  0.2988917476864  0.9372251179130 1.0
C      1  0.1227968848770  0.3278325409380  0.6362485908741 1.0
C      1  0.6091258603365  0.1473037010442  0.6852320885362 1.0
C      1  0.4027731957850  0.1760203410128  0.7397621471273 1.0
C      1  0.6571966055971  0.0682365492804  0.5424644237526 1.0
C      1  0.1856984686373  0.2719732895322  0.0715346872153 1.0
C      1  0.4263637682256  0.7889056340423  0.0657660239825 1.0
C      1  0.6762934779334  0.8368490531129  0.0957160010067 1.0
C      1  0.3269111221600  0.8029624108918  0.6668415754881 1.0
C      1  0.0618203332767  0.1247198822977  0.4875562783937 1.0
C      1  0.0933264959376  0.4070664249212  0.1006008490739 1.0
C      1  0.5260235088551  0.8646661190962  0.8082783733063 1.0
C      1  0.1649806380115  0.2632938587504  0.4440494330002 1.0
C      1  0.5720628331116  0.0332701668163  0.2387895741275 1.0
C      1  0.7452564228196  0.2374391594585  0.6664537283767 1.0
C      1  0.3000782769208  0.5037464206109  0.9452464364357 1.0
C      1  0.4045001670887  0.6270683805824  0.6193193786343 1.0
C      1  0.6559409743999  0.4772386111419  0.0427301745056 1.0
C      1  0.6872416196885  0.6744852191005  0.3759320049922 1.0
C      1  0.2644396917641  0.0571508960583  0.2522837313626 1.0
C      1  0.2941293752983  0.4158935784696  0.3058766514241 1.0
C      1  0.8120395389780  0.5077517424822  0.1731780871408 1.0
C      1  0.3603456199543  0.5443977536123  0.1592431778972 1.0
C      1  0.4506735392262  0.5602581675603  0.3090917097920 1.0
C      1  0.6292049113440  0.9799926813572  0.5231413372257 1.0
C      1  0.8467023674802  0.9615678557943  0.3832064572909 1.0
C      1  0.9119397242134  0.0644724140118  0.5671261983181 1.0
C      1  0.4910401634591  0.0608917935856  0.3138789561343 1.0
C      1  0.2292572368000  0.2274007052500  0.3729509125946 1.0
C      1  0.3211259476582  0.5977823678591  0.5683900832418 1.0
C      1  0.3165114770869  0.9403387772881  0.7510399797594 1.0
C      1  0.8471599429164  0.8960687754437  0.8581464531027 1.0
C      1  0.5596588905428  0.3826139343764  0.1267311024828 1.0
C      1  0.2017148979073  0.9387499382685  0.3715069899577 1.0
C      1  0.1610419600114  0.8157440321382  0.1521339096632 1.0
C      1  0.5242040583755  0.3471397003840  0.4245431892814 1.0
C      1  0.3111101484227  0.2046015676919  0.2193773663945 1.0
C      1  0.4622447994861  0.0406067201269  0.1200600250917 1.0
C      1  0.2915501800720  0.2525146022327  0.5116569926826 1.0
C      1  0.9621967654534  0.4345556893729  0.5394738200804 1.0
C      1  0.2312868536363  0.7969767639522  0.8138724866905 1.0
C      1  0.1437060780679  0.7055509263488  0.4883765022627 1.0
C      1  0.6330944653465  0.4347190672140  0.4318153397665 1.0
C      1  0.4776733551582  0.6657202629310  0.1978034532249 1.0
C      1  0.9632918258809  0.6736142346979  0.6161767153783 1.0
C      1  0.2973892176838  0.7835352270359  0.4138917884098 1.0
C      1  0.7515043413183  0.4539421755005  0.0228522992787 1.0
C      1  0.9713929872247  0.6171177280993  0.5203779054666 1.0
C      1  0.5046994569504  0.8366306882690  0.4799258052435 1.0
C      1  0.4091673164234  0.9914842724006  0.5269749228949 1.0
C      1  0.5202611027246  0.2089148060549  0.9030477887358 1.0
C      1  0.4798921972124  0.0372787046394  0.5754513304383 1.0
C      1  0.0978748489346  0.1052921720772  0.5731401259557 1.0
C      1  0.4762098270187  0.4720667951924  0.6707481795833 1.0
C      1  0.3038094050747  0.3844798605152  0.7724814081310 1.0
C      1  0.4633555484522  0.1815610204528  0.6583037437021 1.0
C      1  0.4189020960264  0.4794021860054  0.8503280180389 1.0
C      1  0.5437253862259  0.4989924307593  0.6038057208450 1.0
C      1  0.5627791546136  0.2939137609815  0.2484592389437 1.0
C      1  0.5240420068984  0.5500105510918  0.9455244048219 1.0
C      1  0.5927087470413  0.6980784037610  0.9906755672771 1.0
C      1  0.4586381225235  0.5732761569403  0.1642746164653 1.0
C      1  0.5367760365548  0.6885555615225  0.7078612753372 1.0
C      1  0.3175591545966  0.4548291401247  0.6357072249445 1.0
C      1  0.5921135184087  0.7764107700750  0.4560908623317 1.0
C      1  0.3829733864258  0.7859257546010  0.3703814703810 1.0
C      1  0.7182111055756  0.7519709412615  0.2409310537778 1.0
C      1  0.1264555973741  0.1144211129505  0.7367781362271 1.0
C      1  0.0594816104699  0.5987375139522  0.2392394044070 1.0
C      1  0.4917074228061  0.9015311214520  0.3189393708608 1.0
C      1  0.5895092744758  0.8578793803112  0.6632591722076 1.0
C      1  0.8780257917120  0.3278555732712  0.7113318814493 1.0
C      1  0.5143496763655  0.0203730004649  0.6537567509166 1.0
C      1  0.3569312925299  0.3416399319958  0.9618839275280 1.0
C      1  0.8556328751428  0.5483565932000  0.9393781619678 1.0
C      1  0.0893712882218  0.8246699086507  0.6595709532155 1.0
C      1  0.7806288613425  0.8338508727037  0.0998911687407 1.0
C      1  0.2145593371224  0.5615065694261  0.8466503681176 1.0
C      1  0.1562006212736  0.6000440248164  0.3645170026841 1.0
C      1  0.0127905929908  0.7737153864853  0.4406927029184 1.0
C      1  0.6383428675643  0.4196732994268  0.8558204456442 1.0
C      1  0.2991269584751  0.3210088771054  0.6924753969805 1.0
C      1  0.4655956979740  0.1172944028267  0.7870967221926 1.0
C      1  0.5458497798369  0.5655317593781  0.8048316902090 1.0
C      1  0.3666575817471  0.9785106306755  0.6726174398896 1.0
C      1  0.4913343274269  0.7405935936497  0.1275494265298 1.0
C      1  0.7802364595664  0.0999643199375  0.3511543574430 1.0
C      1  0.8677891431891  0.2358731931227  0.5619917557440 1.0
C      1  0.3365542734827  0.0706896793721  0.6419743245122 1.0
C      1  0.2191106036259  0.7390659877497  0.9583043883344 1.0
C      1  0.8876466691104  0.7400876486318  0.6040694872280 1.0
C      1  0.1158979292123  0.5801030725343  0.8552449617662 1.0
C      1  0.2727356528688  0.8048026529586  0.5109971659252 1.0
C      1  0.1345795683748  0.3619180186886  0.9452643629808 1.0
C      1  0.0911651488236  0.5016917426277  0.2403793620737 1.0
C      1  0.8019368600849  0.6777005531249  0.8518106954528 1.0
C      1  0.7914580906820  0.2770515056645  0.9183273920285 1.0
C      1  0.9450371189214  0.5490836463486  0.1446874634481 1.0
C      1  0.6896617182415  0.5440688322930  0.5463587563901 1.0
C      1  0.3750470032781  0.4447505845676  0.9362659930570 1.0
C      1  0.2707942905710  0.0776930814999  0.7808333338639 1.0
C      1  0.7781491810495  0.8248188801975  0.8911704753967 1.0
C      1  0.1958749753466  0.9248630695634  0.6364784718823 1.0
C      1  0.7026203733075  0.3731943065960  0.7890002873928 1.0
C      1  0.4657588322997  0.3662020581496  0.1291824426640 1.0
C      1  0.3011628730713  0.9709937073989  0.3802133896560 1.0
C      1  0.5669388819771  0.4939238087602  0.3972066954396 1.0
C      1  0.1172483082627  0.6773099028562  0.8278425787120 1.0
C      1  0.3417719654573  0.9434905097121  0.5813430389715 1.0
C      1  0.4569101717779  0.7691727283362  0.4290313648441 1.0
C      1  0.9790836522431  0.6124266589970  0.2947071575795 1.0
C      1  0.5327220738583  0.7383248742628  0.9239807243146 1.0
C      1  0.4796078700027  0.6603747377364  0.5635169846942 1.0
C      1  0.7098091394104  0.4654707305296  0.9214600191413 1.0
C      1  0.6148659714902  0.6238522033468  0.8456192831308 1.0
C      1  0.2285122576231  0.4743493564094  0.8906093802544 1.0
C      1  0.5286387604050  0.1771908796372  0.5198330638516 1.0
C      1  0.1602010048624  0.7517808429363  0.6738669100613 1.0
C      1  0.7492096906152  0.2713197201851  0.2512672953478 1.0
C      1  0.2002230363120  0.3193109290942  0.2510571229479 1.0
C      1  0.9829770386162  0.8685245011365  0.4392606786579 1.0
C      1  0.8403256130982  0.3416407083264  0.9616266252412 1.0
C      1  0.8160473960633  0.7324547868989  0.6731587602237 1.0
C      1  0.2862120672719  0.5166999422745  0.3168421928085 1.0
C      1  0.5883194564664  0.6567632139610  0.2231427476546 1.0
C      1  0.2025289696850  0.1290679263150  0.1230326496032 1.0
C      1  0.5014876816258  0.7972771040048  0.2085401547122 1.0
C      1  0.2680104591045  0.2291957806440  0.6783332719053 1.0
C      1  0.3578044144539  0.7224591292493  0.0356614260338 1.0
C      1  0.9548735513395  0.2256878304923  0.4200913923027 1.0
C      1  0.8417571607853  0.2830524003667  0.2764306394959 1.0
C      1  0.0250199103099  0.7724111165588  0.6053377730420 1.0
C      1  0.0644860905155  0.2770793775472  0.3095168243969 1.0
C      1  0.7954472890501  0.4818616645681  0.8854057958902 1.0
C      1  0.1452013157750  0.8667789078149  0.4137073481910 1.0
C      1  0.8265879157246  0.6367803589478  0.6983353016200 1.0
C      1  0.8368627181884  0.1910255683902  0.1371574327930 1.0
C      1  0.5707906084700  0.0427288156357  0.8853319052001 1.0
C      1  0.2235511970921  0.6562931714560  0.3199959342835 1.0
C      1  0.4420458293097  0.2854229462834  0.9763631810951 1.0
C      1  0.5861021690787  0.5672740706115  0.2515015963499 1.0
C      1  0.6983283702457  0.2127770330619  0.8113025640398 1.0
C      1  0.9271694247577  0.4878117816780  0.8873680148995 1.0
C      1  0.7934664623890  0.8723333683304  0.5688899645391 1.0
C      1  0.6496822258628  0.3657516135710  0.6245887512717 1.0
C      1  0.2357139765713  0.7540012381218  0.3358568092424 1.0
C      1  0.9489310684783  0.5460479535756  0.7278542608372 1.0
C      1  0.4194281438264  0.2750882695782  0.7594332659930 1.0
C      1  0.6062545937398  0.5647924879678  0.3443165449409 1.0
C      1  0.8069741618416  0.2929416196246  0.4220300897579 1.0
C      1  0.2903565694935  0.1716211580148  0.1186066788353 1.0
C      1  0.4301587890126  0.2578260979579  0.6132876518080 1.0
C      1  0.1370905164803  0.1922296026981  0.0998647957962 1.0
C      1  0.4505966460570  0.9875052318625  0.4406976533506 1.0
C      1  0.2947159436298  0.9114482694110  0.1379073799328 1.0
C      1  0.8450776917183  0.3566105644053  0.3478241219637 1.0
C      1  0.8778025861911  0.8101415955570  0.8892471134191 1.0
C      1  0.5551241602778  0.3347245086374  0.7354446133240 1.0
C      1  0.6793983939302  0.6073032169056  0.7655558423821 1.0
C      1  0.1315218665648  0.6438191969501  0.1804280993817 1.0
C      1  0.8770576458126  0.9796760308968  0.5953912220045 1.0
C      1  0.0854565476378  0.8310818267439  0.7597288493079 1.0
C      1  0.2233653191108  0.3966077465426  0.8262143338853 1.0
C      1  0.2582276559953  0.3802825881405  0.6329479305175 1.0
C      1  0.4587249012512  0.5636441861729  0.0136426839545 1.0
C      1  0.7871662540239  0.7905635707562  0.7371452652291 1.0
C      1  0.4068335749033  0.0558803618973  0.8586080947955 1.0
C      1  0.5351470133428  0.7420120242788  0.3774987841350 1.0
C      1  0.6624999620422  0.2255927133135  0.7191057036064 1.0
C      1  0.8903342072936  0.8116888176349  0.3188921242334 1.0
C      1  0.5451653430945  0.7156447843663  0.6142119064225 1.0
C      1  0.1848353739281  0.3649690730037  0.4614136140009 1.0
C      1  0.0578682046805  0.4087240854591  0.2456860948349 1.0
C      1  0.4240786877529  0.4000088875265  0.5346141462178 1.0
C      1  0.2261168114292  0.6336251993360  0.2245945591552 1.0
C      1  0.3730314429527  0.5290417737616  0.3527579805924 1.0
C      1  0.2814735356733  0.7008741080790  0.1846321830064 1.0
C      1  0.6075457435699  0.2104262582390  0.2830595507733 1.0
C      1  0.0541303946648  0.3527420835614  0.1633813526559 1.0
C      1  0.6792634910939  0.9997396587164  0.7720919416103 1.0
C      1  0.7555284739996  0.2936372972832  0.8235990616150 1.0
C      1  0.7451735837058  0.3312396444375  0.4895298082898 1.0
C      1  0.1949458339829  0.5689186145514  0.6756683784923 1.0
C      1  0.1873813005118  0.5248675304485  0.5337811364597 1.0
C      1  0.4022033530417  0.8574828778845  0.3065745717921 1.0
C      1  0.1585911310616  0.3632205880149  0.0443904948332 1.0
C      1  0.6413405465824  0.9260121822025  0.6083669898107 1.0
END
