TITL C-45285-9741-2 -8.44 3375.00 -1416.57201845 0 0 173 (C1) n - 1
REM
REM Run started: at 2021.01.11 10:03:47 in /rds/project/t2_vol4/rds-t2-cs072/BORA/CARBON/AIRSS/Generating-Clusters/Str-Search/Only-C1/C100-200
REM VASP from code version vasp.5.4.4.18Apr17-6-g9f103f2a35 (build Oct 11 2019 16:45:47) gamma-only
REM
REM
REM
REM
REM ./C.cell (efaf0b2bf1589a83377268d7ebe2c73f)
REM AIRSS Version 0.9.1 bugfix July 2018 build 013d7b7c2542+ Fri, 06 Jul 2018 19:26:36 +0100
REM compiler GCC version 4.8.5 20150623 (Red Hat 4.8.5-39)
REM options -cpp -mtune=generic -march=x86-64 -g -O0
REM seed 743481289 -809673968 -911920454 -328503163 -849131106 1678694866 1655270146 -880734822 -186496110 -268896398 1433788549 -483312639
REM
REM C.POTCAR (d86ddea03c3ceb6dc662c8ad6801f873)
REM 
CELL 1.54180   15.00000   15.00000   15.00000   90.00000   90.00000   90.00000
LATT -1
SFAC C  
C      1  0.6876769446528  0.6965392589185  0.2874047022591 1.0
C      1  0.3255903573868  0.5779679007018  0.8132607847610 1.0
C      1  0.3315936457858  0.5934623225215  0.5246461030823 1.0
C      1  0.8421434595977  0.6231672793737  0.5312831384182 1.0
C      1  0.5098683723453  0.4728277643816  0.2578565898640 1.0
C      1  0.2277025384670  0.7148249101708  0.3989165253465 1.0
C      1  0.4981254463403  0.8462680605639  0.6092764193840 1.0
C      1  0.8082232273345  0.3071350256885  0.2706243531329 1.0
C      1  0.3768628397059  0.3326689047061  0.1682142844764 1.0
C      1  0.5637727939401  0.5284571382699  0.6143891095584 1.0
C      1  0.4670331250362  0.3127083067512  0.6639590869991 1.0
C      1  0.1521759642577  0.5732293651411  0.3400218386931 1.0
C      1  0.1806742616670  0.6676191625065  0.6343875135164 1.0
C      1  0.6030279401086  0.1881081600828  0.3604074429632 1.0
C      1  0.4083217607254  0.4872991396258  0.2314276367026 1.0
C      1  0.4104020346622  0.1655660506329  0.5764108421239 1.0
C      1  0.8605305780264  0.4963030862041  0.4353907316021 1.0
C      1  0.5795333983512  0.3492612000277  0.3587347904037 1.0
C      1  0.5594916694722  0.9489029820735  0.4937374195691 1.0
C      1  0.4065058011672  0.2805087752390  0.3011315294993 1.0
C      1  0.8607900182453  0.5897353410710  0.4398669716103 1.0
C      1  0.2304283030994  0.6587223332161  0.7152424011180 1.0
C      1  0.6399770986769  0.7437735641456  0.6528577950916 1.0
C      1  0.4840525369367  0.3117481990121  0.5010246267402 1.0
C      1  0.5296681746896  0.5241633728811  0.8717434213892 1.0
C      1  0.1957806348798  0.5307091503529  0.2695384313708 1.0
C      1  0.6817148783861  0.3958397132853  0.6152715374293 1.0
C      1  0.5212158667676  0.8189821419502  0.2980123928754 1.0
C      1  0.8629406398306  0.3429696107345  0.7275628198158 1.0
C      1  0.3685321741365  0.5615725130990  0.2762050439988 1.0
C      1  0.3693037657604  0.7344419940973  0.2080800562148 1.0
C      1  0.1404324714802  0.3949758022971  0.3285352074386 1.0
C      1  0.3654223135388  0.8062176111785  0.4254767227643 1.0
C      1  0.8396362124898  0.4728922309174  0.5907489916236 1.0
C      1  0.8130535243010  0.2545011428748  0.5866418244873 1.0
C      1  0.3553981221465  0.7848841162107  0.5189314387437 1.0
C      1  0.1988226029499  0.4968561657400  0.7339055558511 1.0
C      1  0.3308885223119  0.7852270525217  0.6718401759326 1.0
C      1  0.8158875846237  0.6390168380092  0.3725550433925 1.0
C      1  0.4656389613715  0.6921757721930  0.7780288711500 1.0
C      1  0.4891309907807  0.1005312404346  0.4417616778072 1.0
C      1  0.7276943554823  0.3042230590197  0.3141024139190 1.0
C      1  0.0490341327062  0.5568132707712  0.6144941107063 1.0
C      1  0.5117515828635  0.7118383595637  0.3946214012215 1.0
C      1  0.4226040354110  0.1240635020073  0.4909008499292 1.0
C      1  0.5951879754308  0.8624856093269  0.4453859263194 1.0
C      1  0.8527951717394  0.2978084129764  0.6575332284789 1.0
C      1  0.5614603093188  0.7936960455003  0.6713088301349 1.0
C      1  0.4631274555669  0.2574118150093  0.5817863667904 1.0
C      1  0.6859525881912  0.6006762883802  0.5447613248010 1.0
C      1  0.3283584408087  0.4028299220627  0.8392528798854 1.0
C      1  0.4439969161454  0.7360914091524  0.1643326427396 1.0
C      1  0.8888841239070  0.3050836860977  0.2423174206392 1.0
C      1  0.5668793140506  0.2684580926954  0.3024700204698 1.0
C      1  0.5534423036617  0.5533899750504  0.4401784639399 1.0
C      1  0.1066645088260  0.4822528274544  0.7550161114100 1.0
C      1  0.3397519841126  0.3215579964328  0.8156222512192 1.0
C      1  0.7474804915253  0.4600423256823  0.6158268788023 1.0
C      1  0.6768871486724  0.8129009177901  0.4890681483690 1.0
C      1  0.2529537529503  0.5772273596745  0.4641343065790 1.0
C      1  0.5158166226438  0.9334656442351  0.5699401600189 1.0
C      1  0.6981254315916  0.2216537209734  0.3629523301018 1.0
C      1  0.5129969270782  0.7019735031005  0.1055812318851 1.0
C      1  0.6636936899437  0.2151696382473  0.6462035340056 1.0
C      1  0.7012932365416  0.4630810187374  0.3634408164343 1.0
C      1  0.2918451869034  0.3075773185078  0.2127262012322 1.0
C      1  0.6719974814888  0.5801473244373  0.7767454167792 1.0
C      1  0.1685243800730  0.3177894932449  0.3775144774377 1.0
C      1  0.5843109265699  0.4259965732861  0.6002064115273 1.0
C      1  0.5548047848279  0.3160032787893  0.8200352794456 1.0
C      1  0.3719787397540  0.6644301249650  0.7888751872292 1.0
C      1  0.3088305787437  0.2695545177330  0.2981349179971 1.0
C      1  0.4219265697424  0.4011280159721  0.6763991096222 1.0
C      1  0.4120915247431  0.6345457121933  0.4910488271514 1.0
C      1  0.5318400849418  0.2363666320121  0.8046572808658 1.0
C      1  0.4756704014250  0.4389213631986  0.7570861294434 1.0
C      1  0.1538941050957  0.6010838139787  0.4918049253337 1.0
C      1  0.5699777432645  0.4051567618842  0.2032783027461 1.0
C      1  0.5899910789715  0.1506851868278  0.6179696036815 1.0
C      1  0.7694932697246  0.6329026875452  0.2842544705797 1.0
C      1  0.8558524231299  0.5697885319404  0.6067680451492 1.0
C      1  0.2851611279378  0.7870950011870  0.5858631463222 1.0
C      1  0.1516573259527  0.3654701214170  0.4616181186314 1.0
C      1  0.7103686742133  0.4970430655782  0.1780082511575 1.0
C      1  0.2777586568474  0.5778791375362  0.2854517204993 1.0
C      1  0.5786075445059  0.0501888362958  0.4726751155650 1.0
C      1  0.3124754855091  0.4998782337930  0.4991746464634 1.0
C      1  0.2352519051562  0.6221041720063  0.3659532052787 1.0
C      1  0.3120094487590  0.1969623071047  0.7040908104395 1.0
C      1  0.7902954790825  0.4432725571921  0.3977320310329 1.0
C      1  0.5857259000532  0.7010494301278  0.1628875134352 1.0
C      1  0.5505102864991  0.6526202257015  0.7841646935845 1.0
C      1  0.6351114504724  0.2413903536663  0.4428250811768 1.0
C      1  0.6803971874095  0.7914192073042  0.3274510224829 1.0
C      1  0.5261811177228  0.7384482519437  0.2334321843179 1.0
C      1  0.4548558071370  0.4878508379647  0.8366666343178 1.0
C      1  0.7172024422326  0.1383070061901  0.5295127664680 1.0
C      1  0.5546185786462  0.3885891860844  0.7610101850717 1.0
C      1  0.2327098190903  0.3616238736459  0.5109721354211 1.0
C      1  0.6703015957277  0.3788773875806  0.3382655943528 1.0
C      1  0.6315993703659  0.5684133318486  0.6821184691755 1.0
C      1  0.4642619145316  0.2323386406600  0.7309097928791 1.0
C      1  0.4188931934715  0.4653812460921  0.5969527925712 1.0
C      1  0.5756261600714  0.3171252121686  0.4536931407882 1.0
C      1  0.2436877577595  0.5776656381820  0.7664122580998 1.0
C      1  0.2985205030553  0.3151844185200  0.4588505568644 1.0
C      1  0.7130647403928  0.5608747797576  0.6294741631269 1.0
C      1  0.4040570973474  0.4490180599950  0.4915790722292 1.0
C      1  0.0604302474156  0.5201878186568  0.6933983568250 1.0
C      1  0.5025485999306  0.4631097978244  0.4459352554581 1.0
C      1  0.6259252185857  0.1023940267874  0.5455307780459 1.0
C      1  0.6010321363404  0.5715719151938  0.5267348060655 1.0
C      1  0.7714853788180  0.5606628185530  0.7678168037648 1.0
C      1  0.2650921967748  0.4339366726973  0.5689199589955 1.0
C      1  0.4955615083954  0.1760314072828  0.6389041941963 1.0
C      1  0.6900102738081  0.6345799354113  0.3648017235803 1.0
C      1  0.4213123771612  0.8189587392879  0.6764049937922 1.0
C      1  0.6438451406433  0.6376887580607  0.2144817676361 1.0
C      1  0.8189894386871  0.4877189151563  0.8000746171077 1.0
C      1  0.7459990843872  0.1865017902377  0.6046139421357 1.0
C      1  0.5408257726305  0.3072568067388  0.2182387483575 1.0
C      1  0.4488797474392  0.2905481418450  0.2111614590923 1.0
C      1  0.4254198865623  0.3518316768965  0.3592811801361 1.0
C      1  0.8646093134031  0.4345015209419  0.5091887316984 1.0
C      1  0.4067131665847  0.6240463290561  0.5926272177546 1.0
C      1  0.6947610309603  0.7556947435300  0.5680844197974 1.0
C      1  0.5475920373997  0.3937039300792  0.5102671816878 1.0
C      1  0.4725143029721  0.6232985039242  0.4190662314378 1.0
C      1  0.2467086696362  0.4684925333836  0.6597323210321 1.0
C      1  0.1140433676125  0.4432827494676  0.4125466944189 1.0
C      1  0.7219186357983  0.7827419317787  0.4100998853288 1.0
C      1  0.7297499229957  0.2103276954204  0.4586469898360 1.0
C      1  0.6273926581725  0.6624359725891  0.7177826614400 1.0
C      1  0.7286083942615  0.5817207990346  0.2072705146901 1.0
C      1  0.5634061749992  0.0973465053756  0.3845933135450 1.0
C      1  0.5015581360506  0.7694016456662  0.5436175947709 1.0
C      1  0.7505968277340  0.6740658483759  0.5227836505581 1.0
C      1  0.3946793383929  0.3503569956441  0.4556283076049 1.0
C      1  0.5031349495913  0.4168714866818  0.3513521237069 1.0
C      1  0.7496361198632  0.6917859705695  0.4251061339948 1.0
C      1  0.5627937147763  0.3517670087245  0.6681068925141 1.0
C      1  0.2576888901328  0.2841628805962  0.3765990143022 1.0
C      1  0.6323931207579  0.5511854533446  0.3640743703112 1.0
C      1  0.1127529974692  0.5376354753310  0.4188442216540 1.0
C      1  0.4826987250870  0.7708172922081  0.7262387355115 1.0
C      1  0.3084260755906  0.7144528906395  0.7334132215683 1.0
C      1  0.3355840287722  0.4382235689634  0.6437012558608 1.0
C      1  0.1874742305189  0.4365506663309  0.2549770816054 1.0
C      1  0.3526434887364  0.4254973557619  0.1840439139836 1.0
C      1  0.1250132512576  0.6016259696394  0.5861126139174 1.0
C      1  0.8525377926248  0.4127578493235  0.7823278955767 1.0
C      1  0.2579688672041  0.3970043998746  0.2091232993884 1.0
C      1  0.3016714603521  0.7641236983165  0.3704373224471 1.0
C      1  0.4218306872351  0.6312037605498  0.3233336506767 1.0
C      1  0.3617329017078  0.2470339181593  0.7656837237694 1.0
C      1  0.7927085406984  0.5904807522680  0.6800448005815 1.0
C      1  0.8152665299942  0.3652731780812  0.4612085807864 1.0
C      1  0.1804594719291  0.7043181007415  0.4795531466536 1.0
C      1  0.5749196058488  0.5765308766223  0.2777161406693 1.0
C      1  0.6001886413127  0.8438557189097  0.3411062382103 1.0
C      1  0.5158992733097  0.6596667182598  0.2981892636163 1.0
C      1  0.2072309768409  0.7336689197722  0.5677806861575 1.0
C      1  0.5886340030683  0.5798979109464  0.8339501560932 1.0
C      1  0.3289879247228  0.1645454089734  0.6297361615830 1.0
C      1  0.7949173625610  0.2806583854598  0.4940560717932 1.0
C      1  0.3577788484102  0.4916962258185  0.8466765750487 1.0
C      1  0.4444021432403  0.7831172005871  0.3584855733533 1.0
C      1  0.6487531449837  0.3071963459036  0.6483008799208 1.0
C      1  0.4227834601634  0.7143826993382  0.5472944677459 1.0
C      1  0.6456652028628  0.4424594920341  0.1684661404386 1.0
C      1  0.5474561414854  0.7741547239500  0.4658818866200 1.0
C      1  0.3725769119321  0.7275618805520  0.3072471414541 1.0
C      1  0.4644376254556  0.5483356360671  0.6208038317214 1.0
END
