TITL C-451843-6635-3 -2.979 3375.00 0 0 0 455 (C1) n - 1
REM
REM Run started: at 2020.03.12 03:36:16 in /rds/user/bk393/hpc-work/AIRSS.pl-DENE/CARBON/New-Try
REM VASP from code version vasp.5.4.4.18Apr17-6-g9f103f2a35 (build Oct 11 2019 16:45:47) gamma-only
REM
REM
REM
REM
REM ./C.cell (90889e035cd0f9d0e5f9cb6dd9eb5d52)
REM AIRSS Version 0.9.1 bugfix July 2018 build 013d7b7c2542+ Fri, 06 Jul 2018 19:26:36 +0100
REM compiler GCC version 4.8.5 20150623 (Red Hat 4.8.5-39)
REM options -cpp -mtune=generic -march=x86-64 -g -O0
REM seed -1422020482 -1543976746 -1083661804 1831436536 1827107083 -1033199942 -1264637584 -2142423707 792368709 1936980539 -757975925 488286568
REM
REM C.POTCAR (d86ddea03c3ceb6dc662c8ad6801f873)
REM 
CELL 1.54180   15.00000   15.00000   15.00000   90.00000   90.00000   90.00000
LATT -1
SFAC C  
C      1  0.9902472692490  0.2770410564709  0.7361668095212 1.0
C      1  0.1447349406254  0.5578942993415  0.3603279892745 1.0
C      1  0.2788023874063  0.6431051588139  0.5541698645006 1.0
C      1  0.0637479170454  0.6815368056698  0.4180624460644 1.0
C      1  0.6403831725038  0.8378159003408  0.3350470585433 1.0
C      1  0.2933519375302  0.1772404487599  0.6047837875176 1.0
C      1  0.3567898738262  0.6599107677356  0.7880426851261 1.0
C      1  0.9350132409138  0.7474234986543  0.2590237482921 1.0
C      1  0.0606882499449  0.7303896022007  0.5521817032929 1.0
C      1  0.4164701944753  0.2853718666455  0.9243704648294 1.0
C      1  0.3654657197241  0.9495635312618  0.3070367836032 1.0
C      1  0.8346417271188  0.2122861183332  0.5421601504538 1.0
C      1  0.5653399863537  0.0941082826054  0.8492067755315 1.0
C      1  0.2163963138915  0.8995581893731  0.2716134466511 1.0
C      1  0.4513474318248  0.1769014687875  0.1917309487372 1.0
C      1  0.2952307954132  0.2248370016327  0.1739646558073 1.0
C      1  0.4083855361313  0.5057585573687  0.9829066448637 1.0
C      1  0.3804254117136  0.5924391189926  0.3196296787241 1.0
C      1  0.0821837314645  0.7265915714698  0.6449728146054 1.0
C      1  0.4756035875583  0.8823211749204  0.8564095229890 1.0
C      1  0.5967741890195  0.8076541665818  0.0637349731086 1.0
C      1  0.6912935807624  0.7583093598154  0.0442605869518 1.0
C      1  0.2138163703490  0.0934189537814  0.1958578922915 1.0
C      1  0.1946894178705  0.3981437616427  0.9295828411021 1.0
C      1  0.4453522514719  0.4496356895318  0.6739744704074 1.0
C      1  0.1878006245193  0.3409431011219  0.1527871131356 1.0
C      1  0.8125921623123  0.2291663343430  0.8323309472943 1.0
C      1  0.4324050368409  0.8871056022003  0.2671321941536 1.0
C      1  0.2369450043377  0.9294114815460  0.6395721715448 1.0
C      1  0.4892212738774  0.1285760464026  0.4709090888225 1.0
C      1  0.2259645129789  0.5844548085585  0.2130209020508 1.0
C      1  0.4300337822018  0.5512494778384  0.7064116909398 1.0
C      1  0.2592568101388  0.2548423714027  0.3761766414512 1.0
C      1  0.4012966072643  0.8231445149798  0.0935276525156 1.0
C      1  0.1416431064437  0.9139078274552  0.6593956057159 1.0
C      1  0.2652551856300  0.4543180383669  0.3679997639327 1.0
C      1  0.1182307735313  0.6526888508664  0.3432167664565 1.0
C      1  0.0372810690099  0.4313202811858  0.3097662918532 1.0
C      1  0.8704938887757  0.2191279866089  0.6371389242115 1.0
C      1  0.6521475343595  0.1255690247610  0.8543166720676 1.0
C      1  0.2561576180982  0.8103590424193  0.4866658676108 1.0
C      1  0.7305268741805  0.8090306364175  0.8864521609636 1.0
C      1  0.6884786919128  0.3505332796630  0.8241798536067 1.0
C      1  0.7022157371230  0.9265007519831  0.5284967263384 1.0
C      1  0.8344897719370  0.2816812826828  0.4718607789690 1.0
C      1  0.3263067974009  0.9313708091501  0.4014963876225 1.0
C      1  0.1464923824320  0.4828368893259  0.9266440164088 1.0
C      1  0.4731248796880  0.7110371848066  0.8346061788460 1.0
C      1  0.8613645476317  0.1248894814982  0.6748740349703 1.0
C      1  0.6461696386313  0.2159771840332  0.8465330175982 1.0
C      1  0.4152023357282  0.6581396165229  0.0411824333249 1.0
C      1  0.7009979570661  0.7416691880585  0.2101038729985 1.0
C      1  0.6986204980387  0.8653144584782  0.8240559027203 1.0
C      1  0.5087635360277  0.7076520402438  0.1627214034333 1.0
C      1  0.4594751000361  0.3519354147428  0.2039607070775 1.0
C      1  0.8089894935276  0.9115187123953  0.5219565564845 1.0
C      1  0.4574363218497  0.9207608458350  0.6895979801798 1.0
C      1  0.2049631681518  0.5799272465037  0.1158276583270 1.0
C      1  0.7298202259011  0.7133142064714  0.8542468350157 1.0
C      1  0.1815078367169  0.6303829500355  0.5706984515871 1.0
C      1  0.8945097646825  0.6050547193138  0.1295247574567 1.0
C      1  0.4952538612500  0.6392806299722  0.6970761290362 1.0
C      1  0.8199548769050  0.4756012621500  0.6657635683599 1.0
C      1  0.4896655786943  0.0137128974600  0.7061601182743 1.0
C      1  0.5103366081357  0.5484534145210  0.3568308687316 1.0
C      1  0.9900286753599  0.4008994902449  0.5345409440582 1.0
C      1  0.5564686688750  0.2554086201802  0.6029228842955 1.0
C      1  0.0317840028376  0.5502668589451  0.5532514582206 1.0
C      1  0.0884997550988  0.3867477380402  0.5535698723272 1.0
C      1  0.4680124216045  0.3966326477359  0.2897442773944 1.0
C      1  0.8205221169187  0.5099621077563  0.4209648358437 1.0
C      1  0.4124745197184  0.2813399494859  0.5151760065051 1.0
C      1  0.9418188084073  0.3307760925955  0.8017236073348 1.0
C      1  0.7610482648718  0.6704099692153  0.2659297433664 1.0
C      1  0.7270664974397  0.4913435532918  0.6857763485612 1.0
C      1  0.1760041923487  0.7319743511059  0.3398083830355 1.0
C      1  0.6713949423689  0.1939510073234  0.3364215687134 1.0
C      1  0.1401121161729  0.4074617649034  0.6423286956873 1.0
C      1  0.2860841915261  0.3189540909689  0.1412093958936 1.0
C      1  0.6376267323922  0.7079184843578  0.3965222429233 1.0
C      1  0.1858398609451  0.2950538313950  0.4206853610606 1.0
C      1  0.1248280107154  0.3505650419415  0.8820787110339 1.0
C      1  0.4222959204748  0.0290150565870  0.3056871781018 1.0
C      1  0.9975606641398  0.6465053461901  0.5516081705593 1.0
C      1  0.2963954591576  0.5628970439013  0.0882496930018 1.0
C      1  0.7342385144808  0.5670051257866  0.5160062210605 1.0
C      1  0.5845021265850  0.8016330715632  0.7405465951710 1.0
C      1  0.8077767474058  0.2039479719566  0.2052459483378 1.0
C      1  0.8733024015435  0.2966704338359  0.8545531283570 1.0
C      1  0.9016642012855  0.8297003015317  0.2101418359579 1.0
C      1  0.3116493311324  0.2287578154593  0.2788838325534 1.0
C      1  0.4031435740808  0.9241071801834  0.4622852874714 1.0
C      1  0.5561513852252  0.3931020372766  0.3354753100340 1.0
C      1  0.4657988167055  0.7482691081111  0.9368117377151 1.0
C      1  0.5877163746954  0.2089857778702  0.3833636072917 1.0
C      1  0.2692975379382  0.5799587735071  0.9290075478046 1.0
C      1  0.9862445616102  0.6355516568942  0.4511306045824 1.0
C      1  0.7317775667704  0.4036575037021  0.2777324788452 1.0
C      1  0.8818864683075  0.7550314609101  0.8207040096279 1.0
C      1  0.7157078653077  0.8525488871506  0.6587106867693 1.0
C      1  0.4971579056143  0.9345835457817  0.2213779701603 1.0
C      1  0.7551324301839  0.6393457358550  0.9222626953251 1.0
C      1  0.5222192503637  0.8529255663374  0.6840762962350 1.0
C      1  0.3819527315464  0.0904585621513  0.3579943556856 1.0
C      1  0.5669815126308  0.0567901414878  0.4805256149285 1.0
C      1  0.3262706404489  0.3704881691234  0.0677282309404 1.0
C      1  0.2923569063735  0.2101967155449  0.0002398976981 1.0
C      1  0.7501092740799  0.2652285775962  0.0537594911431 1.0
C      1  0.4841807835494  0.2041761774303  0.5459637144990 1.0
C      1  0.6335401563503  0.8545641248844  0.5097429611505 1.0
C      1  0.7784116760853  0.2511351859325  0.3799658114511 1.0
C      1  0.6819914076000  0.8154257941084  0.7429167224379 1.0
C      1  0.1638822855725  0.2450090575457  0.5065884703785 1.0
C      1  0.1862558446404  0.7218950990541  0.7238886915975 1.0
C      1  0.6181416470922  0.4773822410385  0.4668908940788 1.0
C      1  0.9773763113839  0.5413994942314  0.4196664975460 1.0
C      1  0.6058019998566  0.7065192363306  0.2129171943170 1.0
C      1  0.2186068259466  0.0154160307875  0.5930397450876 1.0
C      1  0.8700683703253  0.3821298900114  0.1315547034475 1.0
C      1  0.8220670612073  0.5945637375719  0.5510235821640 1.0
C      1  0.1703115973547  0.2995512291968  0.6398258082092 1.0
C      1  0.5279862469982  0.4480830215540  0.4994242040900 1.0
C      1  0.8431156911537  0.7150567666067  0.2292632536530 1.0
C      1  0.5912652440536  0.1272821619879  0.1330839452398 1.0
C      1  0.7238299268303  0.0908851344124  0.7990753624995 1.0
C      1  0.7167104108927  0.5016721524833  0.8293607822616 1.0
C      1  0.4489403741162  0.4423566580032  0.8538695406787 1.0
C      1  0.5821364731894  0.2179099214036  0.1008361932679 1.0
C      1  0.2577201849072  0.7629414060061  0.6645200707335 1.0
C      1  0.5933241651204  0.5947775930298  0.1887483273946 1.0
C      1  0.6796225837385  0.0908109291885  0.3394536328872 1.0
C      1  0.5622802432561  0.0134899885013  0.6390143149094 1.0
C      1  0.8054975606717  0.8085358043304  0.6585829183297 1.0
C      1  0.0217925150477  0.7720819569435  0.4102172527064 1.0
C      1  0.1415200952931  0.2528833547392  0.1474213713574 1.0
C      1  0.0143827319494  0.5768470534631  0.2811427730187 1.0
C      1  0.4001244959519  0.0757984147861  0.4568438975209 1.0
C      1  0.3547385643850  0.1068601800645  0.7404615875781 1.0
C      1  0.9266321854078  0.5789574085462  0.7673463099330 1.0
C      1  0.6659685322705  0.4523348622304  0.0583014976155 1.0
C      1  0.3348110857033  0.3115026491762  0.9826727717989 1.0
C      1  0.6227472142976  0.4757341966572  0.8052407942676 1.0
C      1  0.3895750636102  0.8646424190550  0.8186344291005 1.0
C      1  0.7581148031678  0.7986297751665  0.4430969944356 1.0
C      1  0.6123807383989  0.6466521888573  0.5671723657253 1.0
C      1  0.8208741434657  0.1012447060770  0.4256081215678 1.0
C      1  0.6229395375119  0.8777664924784  0.1215327565303 1.0
C      1  0.6492635228593  0.9421210980863  0.3394216905373 1.0
C      1  0.2019952978203  0.0758910600613  0.7411305984535 1.0
C      1  0.4318908827994  0.6166306543899  0.8518762755050 1.0
C      1  0.6748413745944  0.5606740777996  0.3560486784898 1.0
C      1  0.5338540898417  0.6902134100784  0.6170673227397 1.0
C      1  0.8370459218255  0.4555296146666  0.9575922458545 1.0
C      1  0.2458366966902  0.8311024806734  0.1266609842255 1.0
C      1  0.7119329875375  0.8218465494483  0.2688132886218 1.0
C      1  0.2993499341672  0.0879561819094  0.4743607970978 1.0
C      1  0.2796885011033  0.9679640074337  0.2490512483836 1.0
C      1  0.1853157793149  0.5336162868615  0.5537469234133 1.0
C      1  0.1213231159333  0.1529265945495  0.5093210537837 1.0
C      1  0.8508845451679  0.0713778314659  0.6001359345311 1.0
C      1  0.4385790555245  0.6030212039774  0.9546483080433 1.0
C      1  0.4863174865818  0.2554607747658  0.2368297658557 1.0
C      1  0.3780239608116  0.2752855701866  0.8316593779692 1.0
C      1  0.7694779875807  0.7105573364302  0.6566635243752 1.0
C      1  0.2929408905854  0.7197369866337  0.8461612398281 1.0
C      1  0.8289544724308  0.1370789413337  0.2646753644810 1.0
C      1  0.7488232317897  0.0426879631392  0.4093979775788 1.0
C      1  0.5278080915373  0.8181045754632  0.9080912547877 1.0
C      1  0.4354001668940  0.5601892856873  0.1705324324329 1.0
C      1  0.7632722724105  0.4126845657781  0.8227479787988 1.0
C      1  0.3263206109493  0.6089868213061  0.7093425449554 1.0
C      1  0.5883749901872  0.5598861396241  0.6186879658771 1.0
C      1  0.0020662367084  0.6303333004106  0.7548388202730 1.0
C      1  0.1016305783151  0.7788219706095  0.7286742252028 1.0
C      1  0.4925749658545  0.5285786073336  0.5505219590562 1.0
C      1  0.7812410535652  0.4085552072685  0.7243091539766 1.0
C      1  0.7387994465714  0.4737115504803  0.9843914785340 1.0
C      1  0.2662590553994  0.3999271981368  0.2857377749356 1.0
C      1  0.8956409493477  0.7058534757435  0.8882171405224 1.0
C      1  0.4632625428474  0.5302856770173  0.7990099145331 1.0
C      1  0.1727367185499  0.5694002164716  0.9174992710845 1.0
C      1  0.4535469584891  0.6923487995110  0.5660470358162 1.0
C      1  0.7787699569298  0.2284950637151  0.6787509631497 1.0
C      1  0.2479960095835  0.1734948667477  0.9182566047696 1.0
C      1  0.0159762605457  0.2425319205673  0.5763142195883 1.0
C      1  0.8573400415463  0.6290623655165  0.9429310049459 1.0
C      1  0.7000819446744  0.0591910669747  0.2367323354129 1.0
C      1  0.2804942457354  0.1627344312525  0.0913397160917 1.0
C      1  0.7200281025381  0.7182408844545  0.7456942159385 1.0
C      1  0.1979756260615  0.2056519831779  0.8469178696069 1.0
C      1  0.0237374486733  0.1687128237438  0.5203039932120 1.0
C      1  0.0728341699889  0.2495667080095  0.7580951228331 1.0
C      1  0.4617108506214  0.2146140336855  0.9755337725248 1.0
C      1  0.7164721870324  0.0227189096822  0.5044598185846 1.0
C      1  0.6754490264011  0.1810979893487  0.5175548943298 1.0
C      1  0.7561117805991  0.6114465951510  0.0687820860557 1.0
C      1  0.7762027750866  0.5732112848046  0.2380795399095 1.0
C      1  0.3324255586585  0.1413021075322  0.9394159335552 1.0
C      1  0.6581475760677  0.9668035992974  0.2414561088889 1.0
C      1  0.7571558389348  0.9517723087511  0.3654025916590 1.0
C      1  0.8381084956569  0.7814287859728  0.1578794002907 1.0
C      1  0.2775066212567  0.6608242577200  0.2338380199195 1.0
C      1  0.1001249301731  0.2913662399384  0.5669504744897 1.0
C      1  0.1717119625328  0.6763952779139  0.1127276618112 1.0
C      1  0.6471694860760  0.0900605936145  0.5318740464229 1.0
C      1  0.5021671110947  0.2502580044283  0.0479327128410 1.0
C      1  0.6591256082335  0.5152869279452  0.1945323716177 1.0
C      1  0.2044666668202  0.4845365164252  0.6355323889301 1.0
C      1  0.3784655917423  0.2086494360660  0.7603101632394 1.0
C      1  0.9638922223169  0.4961511671712  0.5066642736615 1.0
C      1  0.8415258038722  0.5715426555473  0.7157869641950 1.0
C      1  0.8411576327140  0.1683465362482  0.3578344288703 1.0
C      1  0.6393085939337  0.9433230914982  0.8276933293353 1.0
C      1  0.6063255408988  0.6418274015272  0.9401471430235 1.0
C      1  0.0897590987484  0.6241593678667  0.2483376336176 1.0
C      1  0.2051350125269  0.6898015937650  0.8126429487805 1.0
C      1  0.3344455062000  0.7671828237014  0.3395033021075 1.0
C      1  0.2869717937537  0.6785835421505  0.9343854111855 1.0
C      1  0.5288299843659  0.3689323314704  0.4345024187332 1.0
C      1  0.2924854241183  0.3758024390482  0.9157066922635 1.0
C      1  0.7926024342839  0.9995849675236  0.5744726071150 1.0
C      1  0.7237435783096  0.2668683804233  0.8689517240563 1.0
C      1  0.0828814318833  0.1852880923121  0.3634037622928 1.0
C      1  0.9157347897145  0.6859652362150  0.5987321561368 1.0
C      1  0.8737025637777  0.7906003586674  0.7343857353448 1.0
C      1  0.9999495257289  0.1770374064396  0.3138659184408 1.0
C      1  0.5596169553511  0.5295983352106  0.7777905569404 1.0
C      1  0.4972985603720  0.2412346013604  0.3456734493659 1.0
C      1  0.2331276055531  0.8727681955167  0.7853325720268 1.0
C      1  0.7172780187538  0.9480108600239  0.6253997322614 1.0
C      1  0.6702894977828  0.3966817840873  0.4211500673872 1.0
C      1  0.3491974070115  0.1690880510223  0.3469709278054 1.0
C      1  0.2388988536002  0.2549754610262  0.5700733892571 1.0
C      1  0.1561295931540  0.5415122765707  0.2612253838632 1.0
C      1  0.2661090906281  0.8375119477921  0.5914502487734 1.0
C      1  0.5110143796368  0.6614049522206  0.0718664919805 1.0
C      1  0.3926562981659  0.7568110073754  0.0144937575231 1.0
C      1  0.2934706286828  0.7351372798927  0.0048717139053 1.0
C      1  0.6627423085767  0.8018902796002  0.4260343214196 1.0
C      1  0.0944507325999  0.4416414941963  0.8589326510372 1.0
C      1  0.6885466931454  0.8221443686994  0.9686220946577 1.0
C      1  0.3135298445823  0.6849188200936  0.6370690932519 1.0
C      1  0.3210799434748  0.8848039140833  0.1097232482621 1.0
C      1  0.1018967285379  0.9255501178276  0.5673983512367 1.0
C      1  0.8921152411725  0.3534936419286  0.3321285810898 1.0
C      1  0.8874920332188  0.8532398689137  0.3609268554442 1.0
C      1  0.2649579476658  0.5106163809798  0.4988528373483 1.0
C      1  0.3962869017134  0.7384169129856  0.6399073266670 1.0
C      1  0.9290689490926  0.5921317766409  0.2828083006683 1.0
C      1  0.5814595320575  0.5072693107412  0.0354565038671 1.0
C      1  0.1179251842985  0.2971294870793  0.2751095232891 1.0
C      1  0.2721330098423  0.4811025095953  0.7818057843977 1.0
C      1  0.2794563663934  0.0636978318730  0.1290747240488 1.0
C      1  0.3438389953113  0.8195903009996  0.6555130807129 1.0
C      1  0.6282554615988  0.2367843528580  0.4647863816599 1.0
C      1  0.1051672914385  0.5128570723397  0.5131328140514 1.0
C      1  0.3270286330186  0.2342694196006  0.5246359585105 1.0
C      1  0.3708814870430  0.6142409623415  0.1160931193771 1.0
C      1  0.8089300553309  0.9570850135220  0.2730961720791 1.0
C      1  0.7393601161119  0.5625494606947  0.7548014642555 1.0
C      1  0.7924130212331  0.3645800797569  0.5177303462257 1.0
C      1  0.4163041782052  0.7582249381507  0.1760086316172 1.0
C      1  0.5202062709940  0.6702229549704  0.9729337157422 1.0
C      1  0.3004161149637  0.8373478995085  0.4084389223755 1.0
C      1  0.0189605256948  0.8832330078113  0.5491470088833 1.0
C      1  0.4385147368551  0.2340419014152  0.6917988720475 1.0
C      1  0.5058435680418  0.1055987830932  0.1744461755240 1.0
C      1  0.6792602852794  0.1153137926512  0.1567027254197 1.0
C      1  0.5362022804677  0.4516360920772  0.9137553651069 1.0
C      1  0.7447765718550  0.5524030578826  0.1450519718343 1.0
C      1  0.1782704059724  0.3698908087047  0.2492396239576 1.0
C      1  0.2991641134699  0.8220081918802  0.8346913577795 1.0
C      1  0.5528606980926  0.3631403716685  0.1517959193534 1.0
C      1  0.3000712347562  0.1831279448087  0.7052766820527 1.0
C      1  0.8580872913072  0.8557340070358  0.5875294187085 1.0
C      1  0.3668170718583  0.3786018836198  0.1623366713919 1.0
C      1  0.6553068133908  0.2622411991587  0.2643496666152 1.0
C      1  0.4180870378998  0.6212061522464  0.4490650599902 1.0
C      1  0.2178703837370  0.0465014256509  0.2749250802868 1.0
C      1  0.4164446116594  0.7907341467810  0.2740659087452 1.0
C      1  0.4776008606476  0.7713696956510  0.4188627825755 1.0
C      1  0.2719411736917  0.4585489032563  0.0582289891552 1.0
C      1  0.9784021858440  0.4290442091877  0.6920622235625 1.0
C      1  0.1213257223459  0.4228108928496  0.4678585742555 1.0
C      1  0.4180761351622  0.5947936013291  0.5429147618804 1.0
C      1  0.5772803603708  0.2711300741362  0.1932408264744 1.0
C      1  0.7469494585166  0.7854623596798  0.1230965151692 1.0
C      1  0.4541632926637  0.3389234211341  0.8442823125107 1.0
C      1  0.9465788636079  0.8531656377200  0.6081979298116 1.0
C      1  0.7356306562916  0.9060743628571  0.2220262882373 1.0
C      1  0.3035917768004  0.1877146069697  0.4360375819120 1.0
C      1  0.5982904266827  0.3932765072774  0.8498086296562 1.0
C      1  0.1038415517434  0.2837030006464  0.3684379039891 1.0
C      1  0.8485401645183  0.4297044548908  0.5804897235629 1.0
C      1  0.4722178399214  0.1599061098257  0.6419484331476 1.0
C      1  0.1866084810279  0.0528837479189  0.3661815517528 1.0
C      1  0.4868898364824  0.7385097049756  0.3272767851102 1.0
C      1  0.7708909910568  0.4102518935652  0.4267373328528 1.0
C      1  0.5984787856525  0.2511660911349  0.7624458877449 1.0
C      1  0.2593128453251  0.7233003789906  0.2956080363065 1.0
C      1  0.7941916409135  0.1569909315123  0.7557649407372 1.0
C      1  0.5919978138647  0.5583199328657  0.4117429461914 1.0
C      1  0.3069605920184  0.9766375223013  0.1499540750439 1.0
C      1  0.6488680961762  0.3607006252736  0.3205505506058 1.0
C      1  0.8117965427140  0.8813706684272  0.4212930624844 1.0
C      1  0.5197273493159  0.0568450764792  0.3294851653317 1.0
C      1  0.0169744624092  0.7229373430691  0.7171896557775 1.0
C      1  0.3990429362556  0.3661009646752  0.3598187603408 1.0
C      1  0.3065045353593  0.4175809652910  0.4899169881193 1.0
C      1  0.2920070002248  0.0803882315984  0.5723929501023 1.0
C      1  0.6445027938993  0.4212279124399  0.1509087591156 1.0
C      1  0.9530091513652  0.1356006575975  0.4681684765838 1.0
C      1  0.5445255372042  0.8936331272551  0.5074645527266 1.0
C      1  0.5161651805108  0.3821594451478  0.7026178827734 1.0
C      1  0.2429123683509  0.0035731069228  0.4349051275240 1.0
C      1  0.2823005164175  0.0359198417607  0.7595076929646 1.0
C      1  0.5015559637882  0.4448179372417  0.0085095234042 1.0
C      1  0.9432961874420  0.7667823366536  0.6699386215970 1.0
C      1  0.6155957149397  0.3324830862679  0.4774052480182 1.0
C      1  0.2849716491588  0.9413598772507  0.7293355344850 1.0
C      1  0.4890819637193  0.6923456925579  0.4705588385574 1.0
C      1  0.6961931091916  0.6644624485142  0.0046287611408 1.0
C      1  0.6220864437483  0.3298101947839  0.5783059697534 1.0
C      1  0.8650897088914  0.1234078988152  0.5121348483327 1.0
C      1  0.3713854412892  0.8921499588293  0.7205945464028 1.0
C      1  0.5992666207564  0.0269452686460  0.3783778153941 1.0
C      1  0.1745738824459  0.9746259060140  0.5148713473712 1.0
C      1  0.7238423979455  0.3182208356464  0.5829283232979 1.0
C      1  0.5273966056994  0.3520020814273  0.0504692175025 1.0
C      1  0.5856474984365  0.6489142098335  0.4643517106327 1.0
C      1  0.2678738535767  0.6544328138721  0.4457382345141 1.0
C      1  0.4252961554511  0.9952831470663  0.5242308819547 1.0
C      1  0.2338402678951  0.5451043488701  0.4087955577819 1.0
C      1  0.8429471061240  0.5308379629904  0.1760397555197 1.0
C      1  0.9347280840648  0.7634347675958  0.3610538766453 1.0
C      1  0.7193648629128  0.8796478975021  0.1293726064039 1.0
C      1  0.5275141710557  0.9843664316026  0.5427464636787 1.0
C      1  0.7481210543253  0.1895232469306  0.1321807932689 1.0
C      1  0.5974595014309  0.8369025520271  0.9721259472345 1.0
C      1  0.3722660174853  0.5260542379146  0.2390555131806 1.0
C      1  0.1581875982462  0.0620096846219  0.6570144542708 1.0
C      1  0.4750886809092  0.8609051158361  0.4555808173830 1.0
C      1  0.5127145049062  0.0285991455012  0.8023708459829 1.0
C      1  0.7717481015558  0.7355244914918  0.5059164380236 1.0
C      1  0.9004575202935  0.6739255705896  0.4194139652444 1.0
C      1  0.1287936928273  0.1391117468176  0.6203098271024 1.0
C      1  0.5657418151470  0.7782883566559  0.6446030834526 1.0
C      1  0.8942592912449  0.4426350743902  0.1935601791075 1.0
C      1  0.2010884011998  0.1800452636868  0.1514890329243 1.0
C      1  0.1158311016566  0.4489770729778  0.2363807937821 1.0
C      1  0.5494397152209  0.5753256493443  0.1001135328882 1.0
C      1  0.3786445753569  0.3790102868591  0.5584857218612 1.0
C      1  0.2151514274669  0.3911823813500  0.4409107319461 1.0
C      1  0.7114218316801  0.5067695332549  0.2796066723686 1.0
C      1  0.4609676277835  0.4400444597562  0.5760490564675 1.0
C      1  0.5809588287272  0.5977067895417  0.7165815735884 1.0
C      1  0.0883357507556  0.5877742666863  0.7736130093037 1.0
C      1  0.2028455833604  0.7352371599534  0.4469852737476 1.0
C      1  0.6218782932447  0.0924529306797  0.6309037356250 1.0
C      1  0.3283942467052  0.4477333990589  0.2228322761398 1.0
C      1  0.7920987257432  0.3472763539632  0.1084580157228 1.0
C      1  0.4880207342354  0.0331771649374  0.2358284279541 1.0
C      1  0.7464107707098  0.3229915864040  0.6825535508680 1.0
C      1  0.6993562133030  0.7123975606796  0.5777803628808 1.0
C      1  0.2571830287910  0.5364357882554  0.7071186476574 1.0
C      1  0.9191789452063  0.6571289547153  0.2107442731291 1.0
C      1  0.4173970243546  0.5358906124298  0.3950850603473 1.0
C      1  0.6042341045558  0.5419450192371  0.9433162333356 1.0
C      1  0.1233010881950  0.2676932955651  0.8413847573374 1.0
C      1  0.6890084112893  0.3856022500135  0.9811178249547 1.0
C      1  0.3051734324093  0.3372457650655  0.8232414993443 1.0
C      1  0.8538569958859  0.6846648125003  0.5094009980387 1.0
C      1  0.0674184441424  0.4385110914113  0.7012915329811 1.0
C      1  0.4243425655408  0.1290073219037  0.9388536640662 1.0
C      1  0.3268011882050  0.5564427803360  0.5601161876564 1.0
C      1  0.2520044763227  0.7359006359809  0.0945556631700 1.0
C      1  0.8467605853445  0.6263541700837  0.0471550256979 1.0
C      1  0.5843669358879  0.9269282446179  0.1857290678746 1.0
C      1  0.9247937229780  0.5048299100012  0.8322548165450 1.0
C      1  0.2105052759440  0.1737532308521  0.7525720349122 1.0
C      1  0.3757734208558  0.0335096793300  0.5979289113078 1.0
C      1  0.8002427997738  0.0494335979780  0.2417377703543 1.0
C      1  0.6072525989573  0.3913413023997  0.6578054202349 1.0
C      1  0.8837907697849  0.5269744222039  0.9159931629774 1.0
C      1  0.6505473855555  0.4799109060628  0.6277308963814 1.0
C      1  0.4739906755207  0.6345563678574  0.3082297614929 1.0
C      1  0.1413133535521  0.2168514574079  0.6932422431470 1.0
C      1  0.6520302912815  0.8000766180829  0.5943418547898 1.0
C      1  0.9357746598915  0.3814723125427  0.6142856487081 1.0
C      1  0.7562123611544  0.3119181918161  0.9568658144494 1.0
C      1  0.6327905820997  0.6830865397582  0.8503049201241 1.0
C      1  0.3190438161410  0.3185319877921  0.3223665933534 1.0
C      1  0.0457713110394  0.5203766469198  0.3541205141525 1.0
C      1  0.5237151426599  0.4755892090529  0.2962385761008 1.0
C      1  0.7411924592445  0.2193962540471  0.5781900657505 1.0
C      1  0.4989591283086  0.6200394432416  0.2159932899279 1.0
C      1  0.1164671930982  0.6973799960296  0.1871167970895 1.0
C      1  0.3007518698386  0.3927040915094  0.7522641591521 1.0
C      1  0.4225447358713  0.0771641381318  0.6714769664491 1.0
C      1  0.6836510773325  0.0121360493825  0.7691615820638 1.0
C      1  0.8245061518312  0.3691386548674  0.9060901746465 1.0
C      1  0.1389523661209  0.7715991229887  0.2423213646042 1.0
C      1  0.9406030544138  0.4224989715498  0.7847156210955 1.0
C      1  0.6624712545378  0.6380979741305  0.7585110936722 1.0
C      1  0.8377553037080  0.6359108263916  0.6406470995542 1.0
C      1  0.3597265722978  0.4460375716306  0.4063949092622 1.0
C      1  0.6508400322102  0.2608162476078  0.0462824176726 1.0
C      1  0.7275150742704  0.3649369102622  0.1828880229649 1.0
C      1  0.5750417892508  0.1790266623736  0.6697238397853 1.0
C      1  0.6814950267299  0.4980421430984  0.5366716421796 1.0
C      1  0.5458897341989  0.9433073594888  0.8312962512110 1.0
C      1  0.7953480481536  0.3539896113136  0.3424899290761 1.0
C      1  0.5128366289762  0.1493201965843  0.3759820309354 1.0
C      1  0.9411093639835  0.4093851377473  0.2786654066434 1.0
C      1  0.3111016992905  0.5290974251750  0.0044091239181 1.0
C      1  0.4526079774979  0.3069464976688  0.4189374138056 1.0
C      1  0.1316370928276  0.6904014911775  0.4981627448040 1.0
C      1  0.1445996820686  0.6534746158691  0.6623738745846 1.0
C      1  0.0285377909337  0.8061670277241  0.4935549327659 1.0
C      1  0.1406768961312  0.8674270603953  0.7420730825403 1.0
C      1  0.6605072799216  0.3269765214842  0.7281355792112 1.0
C      1  0.7063846015270  0.5405706007643  0.9192617114752 1.0
C      1  0.1821550445261  0.4852027364365  0.0909144938385 1.0
C      1  0.9942624936964  0.2063461408148  0.2296251606272 1.0
C      1  0.5840282669078  0.7453705223355  0.3109530431901 1.0
C      1  0.3665540868039  0.4559954222520  0.9053929415362 1.0
C      1  0.3516436145477  0.4084184382615  0.6617609822452 1.0
C      1  0.6132535675001  0.3321390611263  0.0055213630296 1.0
C      1  0.4320457608125  0.7069163269195  0.7392420335209 1.0
C      1  0.1868838301241  0.8453971074938  0.2051841292694 1.0
C      1  0.9844238005309  0.3474605587271  0.4535022353126 1.0
C      1  0.1341958654827  0.4259190410757  0.1377649945980 1.0
C      1  0.5630778575753  0.7533977284736  0.8273002286744 1.0
C      1  0.4802908600864  0.0906697872933  0.8753903032981 1.0
C      1  0.1322267476115  0.1172431661280  0.4073890969322 1.0
C      1  0.8924914373009  0.5676032847766  0.3714252661727 1.0
C      1  0.3047430100470  0.5168138890301  0.8584354433169 1.0
C      1  0.9170266410941  0.2976969017566  0.4144459122832 1.0
C      1  0.7161383444059  0.6531475980528  0.3586962607098 1.0
C      1  0.0884900721809  0.4883743133050  0.7806371269258 1.0
C      1  0.3367570408040  0.6928752695578  0.1637269600466 1.0
C      1  0.0579550332848  0.3746421747301  0.3966832329965 1.0
C      1  0.1485651276924  0.6250106902611  0.8427875853510 1.0
C      1  0.4867673899799  0.3006721265885  0.6606441031617 1.0
C      1  0.3009428500341  0.4874206077765  0.6334071358279 1.0
C      1  0.9500918238700  0.2773582735012  0.6423769320414 1.0
C      1  0.8864047115947  0.8962298032587  0.2784735905838 1.0
C      1  0.6575804105661  0.0083642779246  0.6738873261387 1.0
C      1  0.8673209589845  0.5093655532326  0.5189604259903 1.0
C      1  0.7313164445161  0.2669763601827  0.2065706216161 1.0
C      1  0.7456897920981  0.5767433626293  0.4204119490652 1.0
C      1  0.5367257509381  0.3344257982759  0.7936365205016 1.0
C      1  0.3467437171144  0.6660123217417  0.3900561197431 1.0
C      1  0.0678694445270  0.2555955263697  0.2060144326926 1.0
C      1  0.9355412296167  0.1858086343848  0.3852118821354 1.0
END
