TITL C-451843-6635-1 -11.896 3375.00 0 0 0 277 (C1) n - 1
REM
REM Run started: at 2020.03.11 17:22:34 in /rds/user/bk393/hpc-work/AIRSS.pl-DENE/CARBON/New-Try
REM VASP from code version vasp.5.4.4.18Apr17-6-g9f103f2a35 (build Oct 11 2019 16:45:47) gamma-only
REM
REM
REM
REM
REM ./C.cell (90889e035cd0f9d0e5f9cb6dd9eb5d52)
REM AIRSS Version 0.9.1 bugfix July 2018 build 013d7b7c2542+ Fri, 06 Jul 2018 19:26:36 +0100
REM compiler GCC version 4.8.5 20150623 (Red Hat 4.8.5-39)
REM options -cpp -mtune=generic -march=x86-64 -g -O0
REM seed 1192635580 1356626767 -646992357 989341512 1705298439 1576029757 -1247373647 449886354 1880231507 -378938135 1789282544 224033195
REM
REM C.POTCAR (d86ddea03c3ceb6dc662c8ad6801f873)
REM 
CELL 1.54180   15.00000   15.00000   15.00000   90.00000   90.00000   90.00000
LATT -1
SFAC C  
C      1  0.4124980544004  0.7825011970545  0.0807946879047 1.0
C      1  0.1908606199283  0.1218412598092  0.7021533636264 1.0
C      1  0.5575234586874  0.6217173214731  0.7321451343588 1.0
C      1  0.4508805808611  0.2918220466280  0.6735764746617 1.0
C      1  0.1407554670381  0.6125490462214  0.7154421151904 1.0
C      1  0.6968503217161  0.1015312085252  0.4676391812714 1.0
C      1  0.8874172787763  0.5867715236564  0.7166925046206 1.0
C      1  0.8525732439875  0.7516930114267  0.3020465423260 1.0
C      1  0.2613738627667  0.2304656094606  0.7953280910308 1.0
C      1  0.6700410606613  0.6813710141856  0.4603307339040 1.0
C      1  0.8276524530069  0.6941873478291  0.2216416201679 1.0
C      1  0.4144878842531  0.5022919743472  0.0770206531068 1.0
C      1  0.4147854643716  0.8782214260829  0.6588706937059 1.0
C      1  0.2826319215551  0.4638203839132  0.7606798379890 1.0
C      1  0.1618016606182  0.4482837200774  0.8755873158783 1.0
C      1  0.5783050447927  0.7558578280985  0.6493142968023 1.0
C      1  0.1858975614300  0.7368758404927  0.3744318218935 1.0
C      1  0.7285212022372  0.6463735327898  0.1108462676772 1.0
C      1  0.4763271353704  0.2903828462371  0.0872865288193 1.0
C      1  0.0194241351161  0.8006175804014  0.3262844690086 1.0
C      1  0.1676444963175  0.8177869871920  0.5433503931962 1.0
C      1  0.8748888397133  0.5192148703837  0.6385976202486 1.0
C      1  0.1935910125157  0.7518156630374  0.6183159210238 1.0
C      1  0.3609334235893  0.4623750290648  0.4957638716261 1.0
C      1  0.5129474750302  0.4517671689872  0.2029270242574 1.0
C      1  0.6279435835678  0.5657670262242  0.5813159914381 1.0
C      1  0.6916607364264  0.4274582549579  0.0763021761137 1.0
C      1  0.3493783705441  0.2092741697824  0.7723276852777 1.0
C      1  0.1438026634238  0.2770663139804  0.6812412226398 1.0
C      1  0.5911172033373  0.8358572930085  0.5931128539685 1.0
C      1  0.9418653577464  0.8017144215545  0.2956611720161 1.0
C      1  0.2508974525356  0.2743759514591  0.2149826421242 1.0
C      1  0.3523910943840  0.3929788247169  0.9609071028198 1.0
C      1  0.2644498080290  0.4737633431493  0.0838100984739 1.0
C      1  0.9262189633020  0.6066849806311  0.6391525068667 1.0
C      1  0.4807332529902  0.1130320513414  0.3412584149689 1.0
C      1  0.4019849483667  0.7147933268440  0.3617740885544 1.0
C      1  0.1937244097848  0.4749881833460  0.5188253192914 1.0
C      1  0.6477527291855  0.4688435932065  0.9956631416819 1.0
C      1  0.4421178077266  0.4861067932303  0.8343765930532 1.0
C      1  0.3643861034831  0.3402891461341  0.3752285221252 1.0
C      1  0.4782186101842  0.1300009227737  0.7048351795233 1.0
C      1  0.8199044106134  0.3945456207704  0.3770126375458 1.0
C      1  0.8503606405349  0.3806337040891  0.7809385290849 1.0
C      1  0.6525228675100  0.3372110037162  0.0972139738477 1.0
C      1  0.8879943384928  0.2877723599638  0.6394388043086 1.0
C      1  0.1785805238331  0.4136960119398  0.2194450660072 1.0
C      1  0.4194693576518  0.3041552676130  0.2174822926373 1.0
C      1  0.2903640847415  0.7184277824602  0.1536670755887 1.0
C      1  0.2321211298782  0.4045695171431  0.1349728768410 1.0
C      1  0.2462571108851  0.8512655720350  0.4945654367292 1.0
C      1  0.9810210421940  0.5412289399034  0.3849421306421 1.0
C      1  0.4492113086973  0.9448982918444  0.3509045096664 1.0
C      1  0.4623489201611  0.6589500742049  0.7192255046752 1.0
C      1  0.9161664097266  0.3805349298930  0.4081503189552 1.0
C      1  0.8079670812954  0.2330483356260  0.6375491130998 1.0
C      1  0.0301366035824  0.6553046222819  0.5042094092724 1.0
C      1  0.0206574650400  0.7490411462326  0.4781894991919 1.0
C      1  0.8014172369643  0.8603724887793  0.5560454944230 1.0
C      1  0.0013385529946  0.6086977844810  0.5770503862424 1.0
C      1  0.5186381318297  0.4032310512498  0.5318629791195 1.0
C      1  0.9306992736853  0.4402496367390  0.6582987029639 1.0
C      1  0.3672820479962  0.5585832946610  0.5252805368101 1.0
C      1  0.4981615124618  0.7083894300627  0.9325120128563 1.0
C      1  0.3839158281361  0.2075137615023  0.4721524762603 1.0
C      1  0.3112803586684  0.0564294395090  0.3332253830642 1.0
C      1  0.5152990492462  0.1539521362802  0.4861903774563 1.0
C      1  0.5809080169990  0.5363085611187  0.6677306194788 1.0
C      1  0.3773732584407  0.9316612801158  0.5965274941091 1.0
C      1  0.7535580310512  0.6593303492493  0.5161564071380 1.0
C      1  0.9856625839706  0.4415018768147  0.4017194062157 1.0
C      1  0.5652539917396  0.0012646024279  0.6018402435677 1.0
C      1  0.6765384614214  0.7426239042422  0.2358486548397 1.0
C      1  0.2371148108052  0.6643907934445  0.8323175582993 1.0
C      1  0.7657394752259  0.6831861371316  0.6082895389779 1.0
C      1  0.3692172913705  0.3078905198286  0.4755115051315 1.0
C      1  0.4177436504103  0.4022060109895  0.8909242047761 1.0
C      1  0.9281102804267  0.2918882834081  0.5546553215304 1.0
C      1  0.4098541715955  0.7877781201267  0.6382349472779 1.0
C      1  0.6616582035096  0.2950766750973  0.5603030086916 1.0
C      1  0.2730394477076  0.3332339400371  0.5307290047191 1.0
C      1  0.7448054654337  0.6147995369731  0.8099487944314 1.0
C      1  0.1045643399106  0.4431589151010  0.6826400566818 1.0
C      1  0.5800967197288  0.3341558887944  0.5780015499685 1.0
C      1  0.2551522425682  0.1112159134576  0.3955426785695 1.0
C      1  0.4937115108621  0.1504281177506  0.1978148874957 1.0
C      1  0.2129394600687  0.5385043445531  0.5849023752034 1.0
C      1  0.3251282087624  0.6435824154768  0.3163563232780 1.0
C      1  0.8080595550966  0.6509637470243  0.4295698811177 1.0
C      1  0.2570968561653  0.7467105812382  0.7943684318460 1.0
C      1  0.4414351098118  0.3984552022394  0.2394723687136 1.0
C      1  0.6808950498670  0.2578439051391  0.7388860746572 1.0
C      1  0.4204503465156  0.3816408846374  0.5302593052502 1.0
C      1  0.1285129475840  0.3332196838514  0.4338640778816 1.0
C      1  0.4895765643476  0.5654711299386  0.8730261437975 1.0
C      1  0.7597870610395  0.7473957291345  0.6736038438475 1.0
C      1  0.4873172351989  0.4190648988575  0.7720653890541 1.0
C      1  0.7414906886314  0.4748640404672  0.1415145688401 1.0
C      1  0.4360700489796  0.2612711290533  0.7792325130989 1.0
C      1  0.8947858117520  0.3602464161709  0.7018759217000 1.0
C      1  0.4486761817008  0.1788429898812  0.5448641117709 1.0
C      1  0.3328845407809  0.0723555774130  0.6609428985578 1.0
C      1  0.5730587609942  0.0855226882754  0.3580716198309 1.0
C      1  0.5385878116556  0.9179789646801  0.3634578717582 1.0
C      1  0.5781785549431  0.5989798055557  0.8297393914114 1.0
C      1  0.7246347465192  0.1277777865189  0.3027587675529 1.0
C      1  0.2958829601455  0.2102109058373  0.2778579010877 1.0
C      1  0.7588815088698  0.4320314064170  0.2293882998183 1.0
C      1  0.5483814153472  0.5005238722713  0.2749638208166 1.0
C      1  0.8303104352866  0.2499080332337  0.2628272225423 1.0
C      1  0.7710580465696  0.4267510632216  0.5546306649495 1.0
C      1  0.7014019741709  0.9063555911979  0.6868585096054 1.0
C      1  0.0523984159953  0.5239710024764  0.5849258324267 1.0
C      1  0.2920441051231  0.1756647659919  0.4456422572518 1.0
C      1  0.4333380294550  0.1122969189314  0.2561654396578 1.0
C      1  0.5603498241013  0.4940071918437  0.0207112163105 1.0
C      1  0.2421436061319  0.2884299479098  0.8678118424687 1.0
C      1  0.4471630758416  0.3460475739002  0.8256223403028 1.0
C      1  0.7637726490927  0.4327227327379  0.8771592462302 1.0
C      1  0.4328092576966  0.6525376514942  0.6258312607763 1.0
C      1  0.6848975238697  0.8971355525134  0.4347989508355 1.0
C      1  0.8271765018878  0.4719324563251  0.8146837098617 1.0
C      1  0.7320413751461  0.6776093954466  0.8916395030234 1.0
C      1  0.1844499802016  0.2059527193605  0.7338083587260 1.0
C      1  0.7185203626247  0.3536302621657  0.2568039936135 1.0
C      1  0.3457798421287  0.7834991590741  0.4025112708212 1.0
C      1  0.1584602958154  0.3730758802838  0.6978848644325 1.0
C      1  0.4599789612249  0.5757400631594  0.5717093751859 1.0
C      1  0.8690481773486  0.2751848446092  0.1756477704120 1.0
C      1  0.4304346712556  0.4471351798189  0.6865880613555 1.0
C      1  0.6781682415610  0.6194931848989  0.3363507771822 1.0
C      1  0.1014783779261  0.4699816990014  0.5094347040387 1.0
C      1  0.6264023478699  0.9065695723214  0.7421588339898 1.0
C      1  0.3307435515784  0.7864529104394  0.0996976016024 1.0
C      1  0.6415135466823  0.4765619421969  0.7316003966016 1.0
C      1  0.7133586587287  0.2778188624458  0.8275589830791 1.0
C      1  0.1944767687491  0.3665195453809  0.8941688187123 1.0
C      1  0.3368825749555  0.1177610057110  0.2666611399927 1.0
C      1  0.5464598198801  0.9173273812894  0.7746936805128 1.0
C      1  0.4244526428859  0.6395416490541  0.1560862603350 1.0
C      1  0.6080770903902  0.5256971111291  0.4867795420315 1.0
C      1  0.3323380731360  0.8837279117862  0.5206288969794 1.0
C      1  0.8666007834886  0.8130231932933  0.5141779854723 1.0
C      1  0.1905569999565  0.3092755803033  0.3591903973235 1.0
C      1  0.7212075578834  0.2850082739834  0.6496057512204 1.0
C      1  0.5865044165642  0.9240668690018  0.4552919006171 1.0
C      1  0.4404006741026  0.1992736249230  0.6374405722751 1.0
C      1  0.7365876363018  0.2517707192411  0.4030280149232 1.0
C      1  0.5741176039301  0.4000808962347  0.7369302550677 1.0
C      1  0.3764682083781  0.9876444827281  0.3478244302814 1.0
C      1  0.0493807647681  0.6002056066590  0.4288425095811 1.0
C      1  0.3704405843907  0.4901251045056  0.7561735301262 1.0
C      1  0.1335308964950  0.2742285714985  0.5919162496294 1.0
C      1  0.5948180869861  0.2883686370563  0.9569078790584 1.0
C      1  0.5895210782450  0.2457440196641  0.7307090577428 1.0
C      1  0.2518313826646  0.3964934829421  0.6946775549441 1.0
C      1  0.5734343894176  0.0064430675053  0.5099504808859 1.0
C      1  0.3730471013384  0.4668391680739  0.2829995857211 1.0
C      1  0.0180059073401  0.4546140688893  0.6448607370932 1.0
C      1  0.6536456419727  0.6638887510372  0.0518690860449 1.0
C      1  0.5935172058863  0.2400805462600  0.2039902287708 1.0
C      1  0.8293504048849  0.5620208612746  0.7886086545879 1.0
C      1  0.4988441151610  0.2507839993673  0.1742793470987 1.0
C      1  0.5967500530583  0.6936221264557  0.8910350927821 1.0
C      1  0.5983017751442  0.8593696002523  0.3138116528381 1.0
C      1  0.5512109953741  0.3206488044689  0.6732938333130 1.0
C      1  0.3517642858888  0.7727527925566  0.8002213235016 1.0
C      1  0.9223552230844  0.7648078775088  0.4628924420203 1.0
C      1  0.3821095280564  0.3067375444720  0.1229470761913 1.0
C      1  0.5110002661480  0.5578943413254  0.9690388803111 1.0
C      1  0.8901370080724  0.5970792437272  0.3733479403322 1.0
C      1  0.2806509738309  0.5990950471329  0.5693560096131 1.0
C      1  0.4575482860686  0.1678808205721  0.4114871602531 1.0
C      1  0.2414437484432  0.2102405588856  0.3647682982126 1.0
C      1  0.4002386847983  0.0224306436094  0.6204840864274 1.0
C      1  0.5546301666771  0.8447249661550  0.5109226272104 1.0
C      1  0.0888705586824  0.7794042011853  0.3938200137522 1.0
C      1  0.7786929469520  0.5115823938346  0.6106015738921 1.0
C      1  0.7446078001026  0.0188453342680  0.5058193277903 1.0
C      1  0.6510348288962  0.2734073417427  0.8975715504277 1.0
C      1  0.4874283661547  0.7179123598371  0.4244084799678 1.0
C      1  0.3474408753109  0.4488031869576  0.0340194547641 1.0
C      1  0.6608443021180  0.3074045172946  0.1948906128887 1.0
C      1  0.5907829533199  0.0917320099612  0.4603375833173 1.0
C      1  0.2731667261562  0.6915523241999  0.5916521653104 1.0
C      1  0.3477313005997  0.5478195760494  0.3416217680459 1.0
C      1  0.7270323426179  0.5939143616464  0.5876429540127 1.0
C      1  0.0694883317072  0.5856008480407  0.3438520764271 1.0
C      1  0.4091038570431  0.6894341498538  0.7951098914122 1.0
C      1  0.5891455742284  0.7996033833044  0.2432456802550 1.0
C      1  0.3658360531120  0.2774285552119  0.2950558030015 1.0
C      1  0.2187087355849  0.6566012442479  0.3340828818752 1.0
C      1  0.3928841917447  0.8351142275822  0.4638914278184 1.0
C      1  0.6868819706748  0.4800558112547  0.9083886722109 1.0
C      1  0.0922335549328  0.8119456231496  0.4905996884292 1.0
C      1  0.6342443019447  0.0991886501564  0.2881652875150 1.0
C      1  0.2545458494602  0.7933819717471  0.4140614667559 1.0
C      1  0.7389059432883  0.7728310374204  0.3200577943226 1.0
C      1  0.5100458276913  0.6436297604957  0.0013634062631 1.0
C      1  0.4950095734524  0.4969005143171  0.6266670146245 1.0
C      1  0.8324524161118  0.5997973957974  0.2136827430889 1.0
C      1  0.7718551962751  0.5681899228406  0.1417887430252 1.0
C      1  0.3608918805975  0.6858915843048  0.2251836348548 1.0
C      1  0.7564223262758  0.0974025575942  0.5516014490253 1.0
C      1  0.4859710447539  0.7328932729025  0.6524294603463 1.0
C      1  0.8818367336290  0.7012545055987  0.3899118675260 1.0
C      1  0.7283096845435  0.6892245178148  0.3772468407613 1.0
C      1  0.3775230115763  0.1470588807719  0.7033859052235 1.0
C      1  0.4288704478874  0.7422000813055  0.2693889365590 1.0
C      1  0.5676813777307  0.6652170487497  0.4527546636932 1.0
C      1  0.2809674533281  0.4683194960904  0.3171402619074 1.0
C      1  0.1738891513901  0.3025784600293  0.5175480210140 1.0
C      1  0.3988369019253  0.8475650579930  0.8043718022462 1.0
C      1  0.7408648846787  0.3805730242177  0.6332908195190 1.0
C      1  0.1864371496126  0.3303861515471  0.2618849577864 1.0
C      1  0.6384455223282  0.6462130241458  0.2603115022774 1.0
C      1  0.1957409285655  0.4971321551506  0.2737763561709 1.0
C      1  0.8127199641778  0.4661736088542  0.3020435677362 1.0
C      1  0.3003575115191  0.3567203776644  0.6273592655588 1.0
C      1  0.5866191021080  0.1490688148529  0.2194731428115 1.0
C      1  0.0691048538250  0.4089218068806  0.4435076214878 1.0
C      1  0.6641407699228  0.6694559281863  0.9625035483401 1.0
C      1  0.4892786545865  0.0472757403994  0.6491173861597 1.0
C      1  0.4358612480842  0.4079337910591  0.3386795565180 1.0
C      1  0.1978209780060  0.7657037107550  0.7222999173197 1.0
C      1  0.7817684976501  0.3441975625640  0.8408357012331 1.0
C      1  0.5180393007765  0.1952371155800  0.7718850409120 1.0
C      1  0.4579233681986  0.8910647640835  0.7517007805604 1.0
C      1  0.7617743463648  0.8400697534177  0.6473726245036 1.0
C      1  0.2100115944725  0.5013061006508  0.8212500566901 1.0
C      1  0.1872681958892  0.5958988645392  0.7968966767255 1.0
C      1  0.7229786783618  0.4572446428288  0.6794992389058 1.0
C      1  0.7508099215158  0.7182850400264  0.1705218802125 1.0
C      1  0.6788887959719  0.7352880333333  0.8413485701439 1.0
C      1  0.4813629087787  0.7970229683004  0.4698679684571 1.0
C      1  0.7111905105527  0.2589409668286  0.1204531919267 1.0
C      1  0.5529386818619  0.4544776964001  0.4534580417203 1.0
C      1  0.2838134422308  0.3182176348955  0.1361541509351 1.0
C      1  0.6195924633149  0.6952550559239  0.7032603547687 1.0
C      1  0.5233749306855  0.5948942661783  0.1508370662107 1.0
C      1  0.3717022011611  0.5771663448537  0.1059525340742 1.0
C      1  0.5190282214157  0.4569361443581  0.3657008768950 1.0
C      1  0.5020893851628  0.7667302780133  0.2180828773738 1.0
C      1  0.9306403866074  0.3139921311661  0.4747652478597 1.0
C      1  0.7772048212596  0.3094808045125  0.3288144183888 1.0
C      1  0.7166608409687  0.3084512575389  0.4762310140812 1.0
C      1  0.1408891380044  0.7027448092312  0.6880965632581 1.0
C      1  0.5097952673737  0.4983885765527  0.1111150382252 1.0
C      1  0.2366734408102  0.6504981038293  0.1258765279047 1.0
C      1  0.2713910126129  0.3895792219582  0.3828175033367 1.0
C      1  0.7067332689430  0.7024419831719  0.7489660707980 1.0
C      1  0.6329437062879  0.5949700669463  0.4194619250597 1.0
C      1  0.3974754981770  0.3679063552587  0.6308248560438 1.0
C      1  0.8009347887351  0.1527125655760  0.6016241976023 1.0
C      1  0.5485409833098  0.6009961552059  0.5275629454139 1.0
C      1  0.4826019393798  0.7308108557356  0.1261075565836 1.0
C      1  0.7821579601549  0.1687832581905  0.2429686456228 1.0
C      1  0.5539377779341  0.6663070760483  0.0845435081032 1.0
C      1  0.2421286743107  0.0610985695515  0.6741983041952 1.0
C      1  0.1599220675542  0.5795102123793  0.3055569377051 1.0
C      1  0.2770352377708  0.3417689670498  0.9338235627182 1.0
C      1  0.3578628040328  0.7170985693182  0.6111287829915 1.0
C      1  0.5620404017370  0.3089672021327  0.0407199747900 1.0
C      1  0.6857246437733  0.8495251454979  0.3577715290588 1.0
C      1  0.7637918465137  0.3904914453689  0.4684939804156 1.0
C      1  0.5728134760737  0.5862812902019  0.2337890050286 1.0
C      1  0.2751185318007  0.5704159851901  0.1056846747408 1.0
C      1  0.7902929168848  0.2199287892917  0.1585583402700 1.0
C      1  0.3793671932289  0.5348933704382  0.4320349102831 1.0
C      1  0.7506860027962  0.9280714281778  0.4996022569106 1.0
C      1  0.7300975407816  0.1596227005617  0.3946669719901 1.0
C      1  0.2679194601910  0.4229611338112  0.4793687790361 1.0
C      1  0.4443772694989  0.6569334428653  0.8711862978235 1.0
C      1  0.6180483465607  0.9210598669051  0.6345381404319 1.0
C      1  0.1358392923467  0.5378288860353  0.6495716982406 1.0
C      1  0.6600443802916  0.5402174773452  0.8261813980264 1.0
C      1  0.8491207210718  0.5520901445654  0.2935555161468 1.0
END
