TITL C-451843-6635-4 9.886 3375.00 0 0 0 502 (C1) n - 1
REM
REM Run started: at 2020.03.12 09:10:41 in /rds/user/bk393/hpc-work/AIRSS.pl-DENE/CARBON/New-Try
REM VASP from code version vasp.5.4.4.18Apr17-6-g9f103f2a35 (build Oct 11 2019 16:45:47) gamma-only
REM
REM
REM
REM
REM ./C.cell (90889e035cd0f9d0e5f9cb6dd9eb5d52)
REM AIRSS Version 0.9.1 bugfix July 2018 build 013d7b7c2542+ Fri, 06 Jul 2018 19:26:36 +0100
REM compiler GCC version 4.8.5 20150623 (Red Hat 4.8.5-39)
REM options -cpp -mtune=generic -march=x86-64 -g -O0
REM seed -866563043 -681272146 1093500486 1389611266 -944897178 1658230624 -1518301539 -106461395 869080332 1499205122 -1685581498 1758499352
REM
REM C.POTCAR (d86ddea03c3ceb6dc662c8ad6801f873)
REM 
CELL 1.54180   15.00000   15.00000   15.00000   90.00000   90.00000   90.00000
LATT -1
SFAC C  
C      1  0.5626793314071  0.8878766419588  0.3269965560711 1.0
C      1  0.1245780574829  0.7987624261235  0.8111607527506 1.0
C      1  0.7260025118095  0.4850964635669  0.6465658588956 1.0
C      1  0.0623532849390  0.6265747084125  0.7286389131468 1.0
C      1  0.3681659918691  0.1156233136074  0.8698625760433 1.0
C      1  0.9006955609176  0.7347062425820  0.5721698329028 1.0
C      1  0.4316870804184  0.5340533589932  0.2716495067076 1.0
C      1  0.5168640940672  0.8961946363256  0.8822952538062 1.0
C      1  0.1867544834247  0.9547886635396  0.6638411020305 1.0
C      1  0.8817890371103  0.2639634336765  0.0747941057176 1.0
C      1  0.5396915940413  0.6244527470228  0.6514799760139 1.0
C      1  0.4273662826318  0.3809059462000  0.0333972959990 1.0
C      1  0.8024571729005  0.0916735425006  0.5202914866508 1.0
C      1  0.8272561710353  0.4071799043868  0.0213762074907 1.0
C      1  0.9709270294599  0.7140789799998  0.8179369350372 1.0
C      1  0.0738657641345  0.3191299636596  0.5433382559839 1.0
C      1  0.3737685982422  0.7191409637586  0.0988375980527 1.0
C      1  0.7487548151193  0.7319719255468  0.1060716114561 1.0
C      1  0.4540673301066  0.1603751798289  0.1583413425198 1.0
C      1  0.2808755550028  0.4693317085951  0.7385733176473 1.0
C      1  0.5266744442184  0.3871651406372  0.1545025479203 1.0
C      1  0.3261082604760  0.5106338216440  0.2368012309591 1.0
C      1  0.8299389961732  0.8337690594694  0.7469466622475 1.0
C      1  0.4764280818577  0.2301231133732  0.9587370748278 1.0
C      1  0.1368092991289  0.6207641864148  0.8776756031833 1.0
C      1  0.2890308766907  0.8834420170586  0.9501480625537 1.0
C      1  0.3256985991634  0.4139787450292  0.2423375363901 1.0
C      1  0.1175224878990  0.2544295955744  0.8689721699864 1.0
C      1  0.6054887340879  0.8795784608733  0.8733742799755 1.0
C      1  0.7649056456748  0.6968840803518  0.4539461572807 1.0
C      1  0.5148001630502  0.5608083225894  0.5756685176332 1.0
C      1  0.1148461546735  0.6731540370381  0.7998340559325 1.0
C      1  0.8099142105688  0.7964554302694  0.1344609713430 1.0
C      1  0.4644803345039  0.7525530308843  0.4224182660358 1.0
C      1  0.7574643853651  0.5355618888578  0.4610643744917 1.0
C      1  0.1233546140168  0.1580896457019  0.5808486511494 1.0
C      1  0.2518545052141  0.5919630681481  0.3565611894540 1.0
C      1  0.2593101546674  0.1303929010207  0.3918618267285 1.0
C      1  0.8852492694170  0.4211462925890  0.2636004563791 1.0
C      1  0.2302817655565  0.5161178760574  0.5044684428088 1.0
C      1  0.9936616379227  0.5021851917431  0.3178950830684 1.0
C      1  0.7494714956106  0.6388500536644  0.9198642058404 1.0
C      1  0.3488450890169  0.4637190322415  0.3979455128589 1.0
C      1  0.1047498950917  0.6919190935321  0.9325452053304 1.0
C      1  0.6390178846897  0.1070786758136  0.3636275636775 1.0
C      1  0.9287295637217  0.3219939379818  0.1399429048994 1.0
C      1  0.7973178851342  0.1387066043551  0.8191279336782 1.0
C      1  0.3396844771072  0.7440248689913  0.8133496004074 1.0
C      1  0.1178685579857  0.1210726161277  0.2053335166812 1.0
C      1  0.8680168645414  0.9526827068474  0.4676476056473 1.0
C      1  0.8835787986789  0.8336351362314  0.5755544438146 1.0
C      1  0.1193960008245  0.5862161239341  0.6552731582996 1.0
C      1  0.4877440341498  0.6920682460758  0.3405552200062 1.0
C      1  0.3760082606307  0.6536120439897  0.0298478393774 1.0
C      1  0.3269375238855  0.0661152588358  0.2388412715938 1.0
C      1  0.2276907387805  0.9978173652440  0.8280007453924 1.0
C      1  0.4234509028872  0.2874678831871  0.8879296859292 1.0
C      1  0.7776242908868  0.5139272114408  0.5589623137717 1.0
C      1  0.8545838753862  0.0983776868079  0.6711143084420 1.0
C      1  0.3145803114079  0.9325644423274  0.3597132192151 1.0
C      1  0.1967247022984  0.5373226633568  0.8602568686984 1.0
C      1  0.5092038961752  0.0114689501307  0.2920777311854 1.0
C      1  0.1717953585475  0.3542917107847  0.0968254256703 1.0
C      1  0.1238079118095  0.7023776742808  0.2621452469322 1.0
C      1  0.1756355792324  0.6437424194995  0.3970057246550 1.0
C      1  0.2190453449200  0.1945511726969  0.5536983337421 1.0
C      1  0.7552269839973  0.8554949073206  0.8132606655367 1.0
C      1  0.1757037494576  0.7356307132598  0.0879273967293 1.0
C      1  0.3590891689178  0.0820177611707  0.6271371971935 1.0
C      1  0.4943831378493  0.1420658867036  0.0086821466754 1.0
C      1  0.4783720856072  0.1111205637158  0.4080830400709 1.0
C      1  0.5771359687567  0.2561814279646  0.8244953356228 1.0
C      1  0.3054202481539  0.8440815360020  0.4194398271862 1.0
C      1  0.5662612813116  0.0056990139294  0.4636982693140 1.0
C      1  0.7368771672813  0.5316231624743  0.7350746223801 1.0
C      1  0.7103863023625  0.1479901612574  0.5225274689691 1.0
C      1  0.4241190882012  0.9219375689069  0.2230707678734 1.0
C      1  0.8711899434981  0.7735408004485  0.3578624745981 1.0
C      1  0.2334873436037  0.2108310183948  0.4465441402845 1.0
C      1  0.0840318123067  0.3348904792365  0.0477030503861 1.0
C      1  0.2225477708917  0.0468034293624  0.5331392020986 1.0
C      1  0.1340061605037  0.2995093376465  0.2618035739699 1.0
C      1  0.1120449686963  0.6835143915381  0.5283816280351 1.0
C      1  0.6988164325502  0.4705404464309  0.4254629224650 1.0
C      1  0.4847479533145  0.7319923347909  0.9341632470243 1.0
C      1  0.2518128061021  0.3188766551056  0.0516425951286 1.0
C      1  0.2525583776512  0.4757967421285  0.9232188756359 1.0
C      1  0.9948953609341  0.4430252944014  0.5373427436276 1.0
C      1  0.4982891582294  0.9289224745747  0.7083661170444 1.0
C      1  0.8578674777171  0.5984741007420  0.8120359433366 1.0
C      1  0.4260639425127  0.7975455652058  0.8091976742656 1.0
C      1  0.1757053542077  0.4591534206416  0.3564011308346 1.0
C      1  0.1869647872038  0.8652375723173  0.3013281840284 1.0
C      1  0.1709471006602  0.9986752468339  0.3831335671318 1.0
C      1  0.4851268339633  0.4157784408244  0.5105103940777 1.0
C      1  0.4180506808113  0.2318866716157  0.3805219650946 1.0
C      1  0.8516828097383  0.5886246157789  0.2635343298870 1.0
C      1  0.0241815704690  0.8245638147703  0.5952441843020 1.0
C      1  0.1899037845250  0.3386921027818  0.6537762465664 1.0
C      1  0.1210202577739  0.9200829220248  0.4311299019202 1.0
C      1  0.7717669757778  0.3250588747781  0.6832161059562 1.0
C      1  0.9391257786617  0.4116845814818  0.7039585915554 1.0
C      1  0.7617253604753  0.3023606740165  0.7767269265246 1.0
C      1  0.5659568049986  0.8839841795340  0.6568838803697 1.0
C      1  0.0546835396783  0.1697291372209  0.5068182142685 1.0
C      1  0.1297302968085  0.5023441492325  0.5066183856037 1.0
C      1  0.6848412041142  0.6155689986150  0.7607522533176 1.0
C      1  0.7357545007138  0.2121837698753  0.5920035499753 1.0
C      1  0.8723633657725  0.1366660698038  0.5780823029819 1.0
C      1  0.6214203185647  0.5642291845322  0.9917138418024 1.0
C      1  0.3821868742567  0.8919621467573  0.9423963863410 1.0
C      1  0.2453921523988  0.5638802838785  0.2599841599898 1.0
C      1  0.2094236040660  0.8331459154698  0.8531397754797 1.0
C      1  0.7536758046365  0.8555061018947  0.4772904225622 1.0
C      1  0.2453824417012  0.0444502363006  0.4372363061616 1.0
C      1  0.8017113503109  0.2893226662853  0.3418840105949 1.0
C      1  0.5730471416504  0.6683134004456  0.5752712177411 1.0
C      1  0.5683431417690  0.4061968183245  0.8816665759334 1.0
C      1  0.0316204012237  0.4692610903859  0.8378378652548 1.0
C      1  0.6931111059907  0.6082380665854  0.2515012002756 1.0
C      1  0.6012450705542  0.5932953439519  0.7173181436259 1.0
C      1  0.2193100140236  0.7206906016406  0.2306205601185 1.0
C      1  0.2498055813456  0.1648829622796  0.7801414517195 1.0
C      1  0.4503218933541  0.4280698165022  0.7915466740319 1.0
C      1  0.4344099911729  0.5156193867766  0.6213459434800 1.0
C      1  0.6481184060846  0.3528160058040  0.3313533326513 1.0
C      1  0.7515128397255  0.0555480788779  0.7815566768961 1.0
C      1  0.2447537625194  0.2856834351744  0.5926040819850 1.0
C      1  0.1783881224737  0.2889775006333  0.1754582557885 1.0
C      1  0.8360873562205  0.8689142967917  0.5025904348400 1.0
C      1  0.6976239162399  0.2978545076658  0.6162993245229 1.0
C      1  0.3575774095174  0.4066277315739  0.7533805923282 1.0
C      1  0.6975539541829  0.3798304518649  0.4757371094466 1.0
C      1  0.4797087317930  0.8399153285135  0.1087268376318 1.0
C      1  0.4214395708907  0.0222250599240  0.2286411048951 1.0
C      1  0.6112945197433  0.4876876242912  0.8384863799719 1.0
C      1  0.2388951425413  0.7984924449974  0.3579230190817 1.0
C      1  0.0921017988276  0.7648538499209  0.3412094408962 1.0
C      1  0.3369489341710  0.9948722205447  0.6724861704519 1.0
C      1  0.5054706305216  0.3086413953542  0.2768331174784 1.0
C      1  0.3586313409435  0.1705673756571  0.7833795452533 1.0
C      1  0.0785457980137  0.2550112751027  0.4654913225605 1.0
C      1  0.7604997185162  0.3427576052240  0.1861912006252 1.0
C      1  0.4647331325112  0.9313911201355  0.4796797731971 1.0
C      1  0.0373553739752  0.7858845552658  0.6767742825022 1.0
C      1  0.1041413955467  0.8392427329504  0.7231955689720 1.0
C      1  0.2720571024817  0.1157254868789  0.5843162918691 1.0
C      1  0.9230898551779  0.5739155017555  0.5824986060338 1.0
C      1  0.2764896764185  0.3534525237043  0.5211723071697 1.0
C      1  0.7178565551903  0.7727460201934  0.5006539617281 1.0
C      1  0.3639477859499  0.3606449576618  0.6701222377470 1.0
C      1  0.5611572837180  0.0209681384931  0.6236762288769 1.0
C      1  0.7401729979896  0.7993606911534  0.8818390797507 1.0
C      1  0.2611737856842  0.2361006279029  0.1833915323691 1.0
C      1  0.4143044416590  0.2562523669714  0.7933643604989 1.0
C      1  0.6241988429778  0.9370937720926  0.5014486273355 1.0
C      1  0.9838666521906  0.5934160371274  0.3489195443073 1.0
C      1  0.5828831877770  0.0802838827775  0.2825988625308 1.0
C      1  0.4132887895769  0.0473233490619  0.5447328259033 1.0
C      1  0.7484593504667  0.6843129940282  0.7290334712740 1.0
C      1  0.3083963748531  0.6303424755968  0.9000890094724 1.0
C      1  0.9547838414183  0.6117548302219  0.4990584396344 1.0
C      1  0.6446265504900  0.7899935548602  0.9105556382144 1.0
C      1  0.8987279364208  0.7027434950634  0.6660255474449 1.0
C      1  0.6543033137803  0.2641317616095  0.2856640866681 1.0
C      1  0.3238241278841  0.6551064355577  0.3579282525631 1.0
C      1  0.6372374702629  0.1801841835009  0.8014710365023 1.0
C      1  0.4891466220494  0.1669010356262  0.6336454217941 1.0
C      1  0.2651547884163  0.2337221279382  0.9159887577989 1.0
C      1  0.2833376216873  0.8169401630728  0.6974319698913 1.0
C      1  0.2384983416487  0.6368359551551  0.1897167695510 1.0
C      1  0.3060550628917  0.2402442921530  0.0923193456307 1.0
C      1  0.2103923451042  0.2784487511941  0.9790771956987 1.0
C      1  0.2932866251195  0.2883336946636  0.4378386736505 1.0
C      1  0.4438296667791  0.5771102167162  0.0414126082343 1.0
C      1  0.8217907853869  0.2163648650956  0.4121605059668 1.0
C      1  0.0703428546344  0.5569012136644  0.5736592445814 1.0
C      1  0.1501460244975  0.3544023254534  0.3521534634064 1.0
C      1  0.4043846590353  0.4281930760576  0.9500108122430 1.0
C      1  0.5628283814421  0.5425679821886  0.3555315471929 1.0
C      1  0.8334205434190  0.5010389775998  0.3121719467969 1.0
C      1  0.3392317012143  0.2896875660553  0.3474816259814 1.0
C      1  0.5634463822030  0.4359073557216  0.6768333806214 1.0
C      1  0.4269924421336  0.9494756495444  0.8710665674933 1.0
C      1  0.7466768725724  0.8282592058455  0.1972760954697 1.0
C      1  0.0907861102224  0.2009507870187  0.6648082949826 1.0
C      1  0.8608901827502  0.4165004116184  0.8385468243285 1.0
C      1  0.3812771852602  0.8876116309962  0.7963929652716 1.0
C      1  0.8354423158074  0.8646363394890  0.3339860468026 1.0
C      1  0.7379990216539  0.4828574182392  0.1438061780911 1.0
C      1  0.7187928202135  0.9857814684317  0.6596101400109 1.0
C      1  0.1025425223037  0.0704175581123  0.3709861317749 1.0
C      1  0.7041531027392  0.1532842170575  0.9528367872811 1.0
C      1  0.5496647838713  0.9908021595162  0.0495685331984 1.0
C      1  0.9636169168280  0.2647679206739  0.2269032336156 1.0
C      1  0.6588038264755  0.7652406650476  0.0946356686478 1.0
C      1  0.6345645705483  0.0669248268373  0.1967909847565 1.0
C      1  0.0425459672690  0.6309323892599  0.5169827224584 1.0
C      1  0.6042823414372  0.9129625443486  0.1718950799897 1.0
C      1  0.6824726505610  0.1762666849832  0.0493213207130 1.0
C      1  0.7024141514060  0.3374513637923  0.1048590949622 1.0
C      1  0.1022316712433  0.5064803200969  0.4112483030957 1.0
C      1  0.5355979852552  0.7071914235534  0.0165484357451 1.0
C      1  0.8197879534799  0.6844298284778  0.7972709006628 1.0
C      1  0.4148845337889  0.1303659332878  0.6991701193312 1.0
C      1  0.2233017627668  0.9283840911057  0.8919628319204 1.0
C      1  0.4658897031653  0.0657020711245  0.1478288758711 1.0
C      1  0.8844746069331  0.3486255477142  0.3397553757950 1.0
C      1  0.5863305969493  0.7589160042270  0.5836083634049 1.0
C      1  0.1020486517124  0.1322546053346  0.2970346759701 1.0
C      1  0.3373881186636  0.1597833634228  0.0382298581022 1.0
C      1  0.5689964711815  0.2335697052785  0.9209191912862 1.0
C      1  0.8296243940344  0.2268377242343  0.5815838394912 1.0
C      1  0.3999870889172  0.6519877317509  0.2235309530042 1.0
C      1  0.5907117680314  0.3032992567339  0.9968714962859 1.0
C      1  0.7157881727055  0.3506867150089  0.9167756955903 1.0
C      1  0.9640086844813  0.7920192325954  0.5270311362173 1.0
C      1  0.8767020508520  0.1412778631495  0.7504923903242 1.0
C      1  0.4655125674706  0.2059996705021  0.5458788815246 1.0
C      1  0.9653503374608  0.4748870588910  0.2318753965825 1.0
C      1  0.3728575128596  0.9608511108540  0.5134169554079 1.0
C      1  0.3715896966836  0.7877223453342  0.2919049827979 1.0
C      1  0.4575061395383  0.8234531110389  0.9107907307813 1.0
C      1  0.2735332972911  0.4463155914024  0.5635312589072 1.0
C      1  0.2267339762916  0.9539381270662  0.3131435779577 1.0
C      1  0.8442850495862  0.6197034798923  0.0691544040573 1.0
C      1  0.6107796094326  0.6637927089963  0.4358422503442 1.0
C      1  0.4016222790449  0.9223146556020  0.7090077685061 1.0
C      1  0.3574115999279  0.5061230304669  0.5610885666554 1.0
C      1  0.1201109047327  0.2863833083302  0.9658047496203 1.0
C      1  0.6332605575928  0.9556917550370  0.6069897258497 1.0
C      1  0.3365086269818  0.3155796834678  0.7831888611130 1.0
C      1  0.8465327329746  0.3147706702625  0.0064388580756 1.0
C      1  0.6645570975848  0.6331049269929  0.8550068515535 1.0
C      1  0.3222673386516  0.5656942338589  0.7430410640028 1.0
C      1  0.0831722735582  0.4344676243903  0.6954201143764 1.0
C      1  0.0859688086928  0.5992490888647  0.3753742914329 1.0
C      1  0.8545496456678  0.3841893070219  0.1748132958421 1.0
C      1  0.6082426543888  0.5270349883771  0.5531336895570 1.0
C      1  0.3677665690821  0.3921348514314  0.3278817674970 1.0
C      1  0.2966455833790  0.8107576400192  0.5142261688191 1.0
C      1  0.6104490408216  0.5045317364423  0.4486672549103 1.0
C      1  0.7580361354117  0.1510053017357  0.1162141370041 1.0
C      1  0.0903709906079  0.9359388022929  0.6822510476799 1.0
C      1  0.4628375767824  0.0669115231587  0.7597574888275 1.0
C      1  0.9330717925584  0.3437293311305  0.6479653124407 1.0
C      1  0.7006351789338  0.6240943174624  0.4691377336029 1.0
C      1  0.0436280070282  0.3357114341675  0.2524302508378 1.0
C      1  0.5477677026915  0.1711481891411  0.2961491789440 1.0
C      1  0.8267147291254  0.9999328571285  0.5334064548968 1.0
C      1  0.9291214501615  0.5632777622086  0.1935244289518 1.0
C      1  0.6680582667322  0.4651216035887  0.9985400207448 1.0
C      1  0.7324667372328  0.2057807756444  0.7724564678648 1.0
C      1  0.9637217438496  0.1759759797151  0.5525082075101 1.0
C      1  0.7852869278905  0.4760415166219  0.8783269491233 1.0
C      1  0.7144046364577  0.1681546353580  0.6795318459850 1.0
C      1  0.5655717274783  0.2318379138524  0.5214163684201 1.0
C      1  0.6721525377373  0.4318905602957  0.0878310652551 1.0
C      1  0.7982543905688  0.7041991745706  0.3622710831024 1.0
C      1  0.9534814977860  0.6099820099636  0.8355809400177 1.0
C      1  0.6566276562994  0.3693815207929  0.5666244158911 1.0
C      1  0.3249225414849  0.2760879914841  0.6485648568819 1.0
C      1  0.8327942880223  0.4569024202074  0.1069522567887 1.0
C      1  0.5413145222756  0.2120674268698  0.1457754259555 1.0
C      1  0.9489679430624  0.7803025074333  0.4283388471179 1.0
C      1  0.4911940728912  0.3036746618645  0.0289759484332 1.0
C      1  0.3628090460498  0.3136797451409  0.4996456748396 1.0
C      1  0.0807781168818  0.0941747222117  0.4547368033606 1.0
C      1  0.5088670982328  0.7671855146027  0.1785595552716 1.0
C      1  0.1490668525080  0.6626987024243  0.6096368870094 1.0
C      1  0.5251690098540  0.0135512027721  0.7180167004972 1.0
C      1  0.6312552889612  0.7373691330850  0.0035585102368 1.0
C      1  0.1341942946652  0.2710486243175  0.7119658837149 1.0
C      1  0.8483913119457  0.5160123414571  0.4096898462409 1.0
C      1  0.1869473902074  0.7023489622450  0.4758171480262 1.0
C      1  0.5861570229225  0.7013661219739  0.3359593674016 1.0
C      1  0.3135474622745  0.6760999135392  0.5926498147492 1.0
C      1  0.9456205877113  0.4622785568063  0.8806527914382 1.0
C      1  0.8510495068186  0.1859324757488  0.1196885152359 1.0
C      1  0.1695450596952  0.8954552628849  0.5171996790079 1.0
C      1  0.9446849448975  0.2619919369786  0.3329059983318 1.0
C      1  0.3216144585433  0.3120338455847  0.8823182315004 1.0
C      1  0.6131350143473  0.7185723989697  0.8420668478969 1.0
C      1  0.3202705170489  0.9340617746469  0.5921276303468 1.0
C      1  0.5931106939858  0.7996930835250  0.3548435419219 1.0
C      1  0.7497563740956  0.8628846536357  0.2853361891845 1.0
C      1  0.7352443097266  0.0859543113566  0.3635511670266 1.0
C      1  0.8590607687186  0.8875082913964  0.6594778760927 1.0
C      1  0.4228942371134  0.0444433409728  0.8438392577094 1.0
C      1  0.5366743414978  0.8715109324440  0.5014092849929 1.0
C      1  0.4294436905018  0.5269144665176  0.1207686201288 1.0
C      1  0.7967923034434  0.3628018981194  0.4885486938400 1.0
C      1  0.4883347139106  0.7345934743779  0.7604541185017 1.0
C      1  0.7501593686237  0.2786609101568  0.2603949832363 1.0
C      1  0.2152358147560  0.6606659499226  0.0341801747529 1.0
C      1  0.0297246615730  0.4514729089461  0.3783733406798 1.0
C      1  0.7484576237930  0.6363282511327  0.0840703437667 1.0
C      1  0.4056845862869  0.5969421900230  0.9042140042258 1.0
C      1  0.9898374519017  0.7084681570477  0.7147948172369 1.0
C      1  0.2702582109744  0.7183167332881  0.6752216209440 1.0
C      1  0.6249581481217  0.3833985529062  0.9554663488217 1.0
C      1  0.7021859975035  0.9826379757624  0.7595569847181 1.0
C      1  0.6181011248351  0.1619596151925  0.6969980595279 1.0
C      1  0.2683607445033  0.5969219704339  0.8227848934594 1.0
C      1  0.0139225245788  0.5513728478041  0.7766575426211 1.0
C      1  0.5970886313946  0.2887628371522  0.5982668003747 1.0
C      1  0.7036251638756  0.6790994614339  0.6353062552454 1.0
C      1  0.4757574878766  0.4441185771712  0.0969768312007 1.0
C      1  0.5203394291969  0.6343075571820  0.5012654014266 1.0
C      1  0.6193401232982  0.2044346995674  0.3590868880183 1.0
C      1  0.9069797679860  0.1783831115630  0.1986628793941 1.0
C      1  0.5952646778229  0.5675538067220  0.8933566751720 1.0
C      1  0.8949330768037  0.1813833732967  0.3551275284385 1.0
C      1  0.0145186207409  0.3640938379811  0.1044928143829 1.0
C      1  0.5673150469937  0.0631720476429  0.1165088116489 1.0
C      1  0.5756167348187  0.2635329621743  0.4287081597867 1.0
C      1  0.4993061254150  0.2955250686577  0.1256561080618 1.0
C      1  0.2018608873608  0.8713877229545  0.2030766372324 1.0
C      1  0.9183766590076  0.2229049861720  0.7201434291706 1.0
C      1  0.1853026441520  0.4534584177211  0.1095123900682 1.0
C      1  0.5021111213723  0.0069916356604  0.5431222346486 1.0
C      1  0.7237782395096  0.1159956986606  0.1941605406629 1.0
C      1  0.7757853654102  0.1118313587640  0.2734057338198 1.0
C      1  0.3272195559946  0.8037121204063  0.1251566289153 1.0
C      1  0.9023104496185  0.7980716362448  0.1393279723100 1.0
C      1  0.2017432796934  0.2078098946580  0.8477369905462 1.0
C      1  0.7534312290261  0.9891896536158  0.3605903275799 1.0
C      1  0.3063441273844  0.5872066663369  0.5347850138531 1.0
C      1  0.2924122702351  0.1325845875905  0.3074468309652 1.0
C      1  0.3571446054601  0.3556853544417  0.1812335835339 1.0
C      1  0.4744570251380  0.7453169430914  0.0891043874410 1.0
C      1  0.7599031757689  0.7398462143496  0.5897953181493 1.0
C      1  0.6682682290699  0.8983373645669  0.7940024436755 1.0
C      1  0.3308929731670  0.6409822786110  0.1612317416486 1.0
C      1  0.4552933700153  0.6639822649281  0.6845096169141 1.0
C      1  0.6564858252587  0.8308465796796  0.1668417602734 1.0
C      1  0.0988153606067  0.4084968226671  0.7927962705352 1.0
C      1  0.7764008103513  0.6466694125574  0.2898361155217 1.0
C      1  0.5310191657255  0.3957409407279  0.2476936676400 1.0
C      1  0.0403366938276  0.4173910608132  0.1882172703099 1.0
C      1  0.5149856443995  0.9588410757939  0.3868363417913 1.0
C      1  0.8035973953922  0.2778628512408  0.9239146305381 1.0
C      1  0.8240598300949  0.6845410135902  0.5356138410621 1.0
C      1  0.8799963430295  0.7571981575593  0.8201420083830 1.0
C      1  0.1106941535688  0.6105260999796  0.2807424674359 1.0
C      1  0.4374540142925  0.3505140156813  0.6273661799133 1.0
C      1  0.2462936891832  0.7885228747964  0.9382635503353 1.0
C      1  0.0477034663491  0.3619755647313  0.3562002485195 1.0
C      1  0.5514184251885  0.6115070076202  0.1660501885223 1.0
C      1  0.5304762038463  0.3718788490476  0.7458146561353 1.0
C      1  0.6990068961633  0.3656405864356  0.8173911027181 1.0
C      1  0.2604318760393  0.0384811675650  0.1729774856323 1.0
C      1  0.7951935720161  0.4159217973140  0.6625940755124 1.0
C      1  0.4774436468755  0.5274790866547  0.7799106146776 1.0
C      1  0.0002605861536  0.4822909769161  0.6959259279483 1.0
C      1  0.9890164220290  0.5098237402727  0.6036597548267 1.0
C      1  0.8026388140810  0.7590918393827  0.6843850584498 1.0
C      1  0.8432449844608  0.9482066797621  0.3741310268150 1.0
C      1  0.8653423077765  0.1411300000830  0.2756949072834 1.0
C      1  0.8424197733093  0.3160556184461  0.8367282525679 1.0
C      1  0.4088931416697  0.7041654428809  0.5964052333367 1.0
C      1  0.7568049818527  0.4336715349535  0.9585225873996 1.0
C      1  0.0977623757959  0.8664196407674  0.3419298209698 1.0
C      1  0.4737899144101  0.5919782088777  0.3492037725603 1.0
C      1  0.7505075837388  0.4521052434052  0.3176917733630 1.0
C      1  0.4287024308612  0.5247475238955  0.4081845840380 1.0
C      1  0.6101283335069  0.1416974713770  0.5260752580823 1.0
C      1  0.0027347236980  0.7533958654108  0.3635440390283 1.0
C      1  0.9864132063921  0.3021683293629  0.5818826448260 1.0
C      1  0.1971774987248  0.8562675923804  0.6695869470328 1.0
C      1  0.1703690445251  0.7362050196469  0.9897440460537 1.0
C      1  0.3122470202615  0.2199538351240  0.2671873711842 1.0
C      1  0.9941742481785  0.2104505995074  0.6507963000807 1.0
C      1  0.6596175731695  0.6175630199313  0.5651266779893 1.0
C      1  0.7424324262634  0.3591028174547  0.3396474759229 1.0
C      1  0.2961939992913  0.5195565644386  0.9988334888513 1.0
C      1  0.2925752034109  0.8279783874783  0.7928730889611 1.0
C      1  0.3101888038430  0.4041864475282  0.9147596638613 1.0
C      1  0.9204633928679  0.5822293354939  0.4228636597794 1.0
C      1  0.8295376686994  0.4268689190703  0.5633981651501 1.0
C      1  0.1214246856517  0.5391226575768  0.1045005879146 1.0
C      1  0.4597229497605  0.4395902745464  0.2963473669792 1.0
C      1  0.3998890675811  0.0789775138463  0.4520851497317 1.0
C      1  0.8431124305679  0.2718801468100  0.4942367127518 1.0
C      1  0.1697022280992  0.6282271048285  0.1122864925902 1.0
C      1  0.2491680941859  0.9990743161916  0.7238337986920 1.0
C      1  0.6204360410710  0.5257919855569  0.2761813057491 1.0
C      1  0.4864658950172  0.4287548551638  0.6121244542842 1.0
C      1  0.9398106474650  0.2728566584981  0.4990638125293 1.0
C      1  0.4049370608514  0.1981847459083  0.2326588036688 1.0
C      1  0.0019219095536  0.2882979001126  0.4131445383970 1.0
C      1  0.6962442133078  0.9160933709028  0.4283608825887 1.0
C      1  0.5869266311176  0.7552579982412  0.7501105554709 1.0
C      1  0.3342205001057  0.0020985510296  0.4298412652717 1.0
C      1  0.8854609689496  0.5526058427316  0.1085111295693 1.0
C      1  0.4638974128207  0.5820005674320  0.1941151796465 1.0
C      1  0.3224929348911  0.1564817566204  0.9463361116041 1.0
C      1  0.3979229974196  0.5238331216916  0.9704909495813 1.0
C      1  0.2567403550994  0.5016898047010  0.4049699723770 1.0
C      1  0.4149035089710  0.8016880486487  0.5926059883673 1.0
C      1  0.5042392417510  0.4664365592140  0.3740145623576 1.0
C      1  0.9428947688169  0.7364775586476  0.2867631268847 1.0
C      1  0.6635506768607  0.8639312711600  0.3488127045766 1.0
C      1  0.8672582985772  0.4082594959194  0.4274118823411 1.0
C      1  0.6228017686449  0.7531815053555  0.4904158832931 1.0
C      1  0.8293673418209  0.5920040946604  0.5759942474949 1.0
C      1  0.7041690684342  0.5729537772281  0.1568884073344 1.0
C      1  0.8587289358787  0.2800032935458  0.6594128684866 1.0
C      1  0.5401921485589  0.6104630068325  0.0464324617996 1.0
C      1  0.8728455301880  0.6078284507757  0.6601320324940 1.0
C      1  0.0494250745292  0.9154772238290  0.6008981199895 1.0
C      1  0.5302995693691  0.9237241066944  0.2434753490386 1.0
C      1  0.5524093705588  0.7984756378961  0.4425996791177 1.0
C      1  0.6027506225166  0.3483585725750  0.8105723061002 1.0
C      1  0.8582778216886  0.4466175978705  0.7374824310320 1.0
C      1  0.1015121039209  0.3088718251098  0.7950022867531 1.0
C      1  0.3440032661562  0.3408562114716  0.0837801071374 1.0
C      1  0.3963741907054  0.8150671925285  0.3842655857376 1.0
C      1  0.4021393727959  0.6901677124594  0.9477333882759 1.0
C      1  0.6284941504014  0.1526403164236  0.8987264405771 1.0
C      1  0.6045887444843  0.5356652890350  0.1733265384284 1.0
C      1  0.2296603801158  0.7907461119038  0.1548117453074 1.0
C      1  0.1227740027159  0.4797410981610  0.1831283135156 1.0
C      1  0.6700858009772  0.9779387560294  0.2027623647170 1.0
C      1  0.6909188810217  0.6414911104952  0.0004901116195 1.0
C      1  0.2827093784978  0.7168272233867  0.5062216499773 1.0
C      1  0.2334472024114  0.4396215400651  0.6562398984018 1.0
C      1  0.2893194032395  0.6165476406882  0.9966926725291 1.0
C      1  0.4656145938246  0.3902742409274  0.8824193346928 1.0
C      1  0.5742964216333  0.1133521500968  0.6188236255703 1.0
C      1  0.7975677274278  0.7240074804104  0.8862544695678 1.0
C      1  0.4463008698443  0.7326016909139  0.2550092390333 1.0
C      1  0.5177352275914  0.8277599413442  0.5878944998299 1.0
C      1  0.7890319252599  0.1749977345803  0.9132857881755 1.0
C      1  0.1260259979374  0.2181747018291  0.3175901279514 1.0
C      1  0.1853669211546  0.4766084408234  0.7841711067426 1.0
C      1  0.0851467541763  0.9574035202773  0.5222406912585 1.0
C      1  0.9146056323531  0.4221860567449  0.5088927475684 1.0
C      1  0.5169929044488  0.6894396287787  0.8479227514441 1.0
C      1  0.3820995736165  0.8838858652010  0.3047062793438 1.0
C      1  0.3461789280681  0.6547983741052  0.4584778576516 1.0
C      1  0.1086035022837  0.3743270054166  0.6185793793191 1.0
C      1  0.3350227288971  0.5362433123415  0.1437322515975 1.0
C      1  0.3199563444886  0.7256906448844  0.9049750637906 1.0
C      1  0.2269576935508  0.9576511854510  0.5702618823002 1.0
C      1  0.3578747234515  0.8591160987870  0.6462250858662 1.0
C      1  0.6398621554573  0.7527880750378  0.6656254874571 1.0
C      1  0.1702686561903  0.7414906448191  0.3926793731984 1.0
C      1  0.6262536890415  0.8383767238992  0.7193702289970 1.0
C      1  0.1578070739681  0.5000423979587  0.6894011536419 1.0
C      1  0.4364590763245  0.6853315364244  0.4937860947223 1.0
C      1  0.5056413441308  0.2734207583049  0.7532001842609 1.0
C      1  0.5811562689704  0.4557213737746  0.1169789032963 1.0
C      1  0.5784169204223  0.0943171709587  0.4416592510431 1.0
C      1  0.5479196666213  0.9106545874720  0.0885585958342 1.0
C      1  0.7294691946362  0.9580206996618  0.2672599144684 1.0
C      1  0.7100163938957  0.4671222373611  0.8123600879659 1.0
C      1  0.7168817293457  0.4285995686529  0.2235236542783 1.0
C      1  0.6178446113256  0.3499110231119  0.4232029090277 1.0
C      1  0.0875325326118  0.4153335979278  0.5313048436327 1.0
C      1  0.4941459851344  0.5921272136794  0.8567708518496 1.0
C      1  0.4883302059637  0.2957778525648  0.3864845508663 1.0
C      1  0.1220883731430  0.0544750597729  0.5339974327991 1.0
C      1  0.5797019204468  0.1506205755218  0.0729360605378 1.0
C      1  0.9480077368163  0.7901435659067  0.2081527252035 1.0
C      1  0.2012514813332  0.8191878232368  0.5758096272876 1.0
C      1  0.9196822259931  0.5496644883015  0.9110302764630 1.0
C      1  0.7677801029307  0.1398220048732  0.4407256690942 1.0
C      1  0.8190923954352  0.5647680750639  0.8969225201316 1.0
C      1  0.3921213998326  0.8679235826870  0.1434028156085 1.0
C      1  0.5721132787054  0.2389176397805  0.2356173800759 1.0
C      1  0.2714220823384  0.4911429353639  0.0881277139999 1.0
C      1  0.2888862218728  0.6632206002593  0.7529270159604 1.0
C      1  0.2242090202839  0.0728528577646  0.7788536470059 1.0
C      1  0.4216796646441  0.1216010398949  0.0729404924918 1.0
C      1  0.6152103972230  0.6717445877620  0.2409803361482 1.0
C      1  0.1847656894408  0.0925750515633  0.1504313294114 1.0
C      1  0.8071009333535  0.9556073827893  0.6236976381786 1.0
C      1  0.4309906539561  0.2934608111485  0.2083022351612 1.0
C      1  0.5500188829124  0.2367033336875  0.6741912541463 1.0
C      1  0.2305019303869  0.9567196228370  0.2121705542640 1.0
C      1  0.0597728478825  0.7395293591751  0.8569063926821 1.0
C      1  0.4178865957685  0.5686130308292  0.7111526067634 1.0
C      1  0.1538879558889  0.2571276865985  0.4035497492537 1.0
C      1  0.4227424011482  0.1740282720992  0.4609261422760 1.0
C      1  0.6251471481972  0.4246689220546  0.2688046404854 1.0
C      1  0.4063899906070  0.4762693546111  0.4843681613448 1.0
C      1  0.1899636420128  0.7340393568200  0.6297574356674 1.0
C      1  0.6401289771072  0.4514465486777  0.6156374321100 1.0
C      1  0.6058367217896  0.7491439448958  0.1818713991525 1.0
C      1  0.4051338632538  0.2739893117372  0.5779918658626 1.0
C      1  0.5555055558319  0.4254594751557  0.4448639928848 1.0
C      1  0.7575478611048  0.0787526435884  0.6850986277889 1.0
C      1  0.4549411048693  0.1655733517006  0.3203824929528 1.0
C      1  0.9396134835588  0.6353253131002  0.2708194582363 1.0
C      1  0.5682735723250  0.5104568520356  0.7485229140568 1.0
C      1  0.6643181670534  0.2732619290326  0.0568513586454 1.0
C      1  0.1736741115591  0.1884974382470  0.1560548814426 1.0
C      1  0.8398255750332  0.5455405176561  0.7338780485732 1.0
C      1  0.1597469566651  0.5177592833093  0.2646973297372 1.0
C      1  0.2897057145095  0.7364812443930  0.3046067237497 1.0
C      1  0.4428279743581  0.3459835517450  0.4612411031579 1.0
END
