TITL C-45285-9741-5 -7.297 3375.00 -1274.52145813 0 0 156 (C1) n - 1
REM
REM Run started: at 2021.01.11 13:26:08 in /rds/project/t2_vol4/rds-t2-cs072/BORA/CARBON/AIRSS/Generating-Clusters/Str-Search/Only-C1/C100-200
REM VASP from code version vasp.5.4.4.18Apr17-6-g9f103f2a35 (build Oct 11 2019 16:45:47) gamma-only
REM
REM
REM
REM
REM ./C.cell (efaf0b2bf1589a83377268d7ebe2c73f)
REM AIRSS Version 0.9.1 bugfix July 2018 build 013d7b7c2542+ Fri, 06 Jul 2018 19:26:36 +0100
REM compiler GCC version 4.8.5 20150623 (Red Hat 4.8.5-39)
REM options -cpp -mtune=generic -march=x86-64 -g -O0
REM seed 401724548 -116935309 -786009022 -1003661362 368416544 332528628 156081794 -1043509530 2051881394 1193015938 -402992808 293908888
REM
REM C.POTCAR (d86ddea03c3ceb6dc662c8ad6801f873)
REM 
CELL 1.54180   15.00000   15.00000   15.00000   90.00000   90.00000   90.00000
LATT -1
SFAC C  
C      1  0.3436581751931  0.5677836004378  0.4873774793843 1.0
C      1  0.3472561492221  0.4425272466702  0.1994682591444 1.0
C      1  0.2987892774922  0.7689737246600  0.4573669401675 1.0
C      1  0.1650479417100  0.4644445240095  0.3403208969110 1.0
C      1  0.6423186447850  0.2338817060649  0.6722601923365 1.0
C      1  0.7150918809664  0.4552959050867  0.5754999068690 1.0
C      1  0.5007728064701  0.5205533825386  0.4974613768447 1.0
C      1  0.3164432975690  0.5263749669494  0.6491434474195 1.0
C      1  0.5391491056735  0.1542592211335  0.7083637025224 1.0
C      1  0.1640565016872  0.5365560022866  0.4080062137343 1.0
C      1  0.2715467003200  0.2884138285794  0.4726896845075 1.0
C      1  0.4998196846663  0.6723727190121  0.8104766799028 1.0
C      1  0.6086642874390  0.6109213489353  0.6136779194883 1.0
C      1  0.4107286817744  0.6986197556419  0.8262340656064 1.0
C      1  0.5301052415984  0.5910388229746  0.4417331044373 1.0
C      1  0.6519824650239  0.3428299437224  0.8238190968523 1.0
C      1  0.6147415644527  0.5613540477599  0.7578013093535 1.0
C      1  0.3405486001106  0.7302491123922  0.7933265072732 1.0
C      1  0.5629462536502  0.2027664098453  0.4651510064140 1.0
C      1  0.4859087125059  0.7057874050605  0.1474907398412 1.0
C      1  0.6026788095771  0.1596324161742  0.6272467808451 1.0
C      1  0.5800162430770  0.3726873141954  0.5082197667460 1.0
C      1  0.5073783805242  0.2538758701831  0.3148401939698 1.0
C      1  0.4325674303727  0.4225203201325  0.7989999117910 1.0
C      1  0.4381307996233  0.8490304744293  0.4720046563505 1.0
C      1  0.6033558455703  0.2782437635216  0.2981978986067 1.0
C      1  0.7033861664936  0.6345951361049  0.2480726971530 1.0
C      1  0.5685779838826  0.4289928738654  0.2358207256431 1.0
C      1  0.7625491830092  0.6047697392329  0.6677869108769 1.0
C      1  0.3458746759997  0.3740462890918  0.2646213360538 1.0
C      1  0.3098770738452  0.7903042641124  0.6477525825622 1.0
C      1  0.4302280236911  0.6246113266532  0.6714448352715 1.0
C      1  0.4700226445464  0.7046423031047  0.6469478224436 1.0
C      1  0.1925340162707  0.4193298816135  0.7157982069498 1.0
C      1  0.4900482742983  0.2020866638152  0.3908980176885 1.0
C      1  0.6187017413053  0.7914837660146  0.5575092266385 1.0
C      1  0.5185762618972  0.2925310867659  0.5065411804991 1.0
C      1  0.4931816191717  0.5928267099793  0.3484870883166 1.0
C      1  0.5282129505298  0.5762972801141  0.7948171450255 1.0
C      1  0.5648171486179  0.5697428678593  0.2968439973655 1.0
C      1  0.3070192455341  0.8000072191405  0.5466863407350 1.0
C      1  0.5184202203067  0.8016599037095  0.3415440790793 1.0
C      1  0.1719467804990  0.6364765422083  0.6324047317504 1.0
C      1  0.4981886953817  0.3526402069981  0.7742186492612 1.0
C      1  0.2996866997052  0.3374329351166  0.6326341245466 1.0
C      1  0.4036261672890  0.6271878940105  0.3432057000439 1.0
C      1  0.5926294849155  0.6556793719182  0.4592594622773 1.0
C      1  0.8064734096342  0.6131505100654  0.5761045240073 1.0
C      1  0.3929117444114  0.4364615749199  0.5606747998512 1.0
C      1  0.4499848710029  0.5261544366901  0.1220645707110 1.0
C      1  0.5396131554221  0.5551692329318  0.1245513276103 1.0
C      1  0.4031345936730  0.2005068163946  0.4446267586591 1.0
C      1  0.4669989912531  0.1170627707050  0.5783898054395 1.0
C      1  0.8345906056278  0.6136763893140  0.7371586969192 1.0
C      1  0.4874843856413  0.7953906920887  0.6820395198657 1.0
C      1  0.3401962469112  0.1936417712030  0.5926340654406 1.0
C      1  0.3977727778121  0.8322670758431  0.6474573218787 1.0
C      1  0.4257850502481  0.2818203934463  0.5043304923073 1.0
C      1  0.8686880700101  0.1383993816407  0.5845017493382 1.0
C      1  0.7517485225593  0.4410791395584  0.4009958623646 1.0
C      1  0.2937404339268  0.2486461385181  0.3202738622199 1.0
C      1  0.3780970762492  0.8054886882986  0.4098022553301 1.0
C      1  0.5250312455310  0.8435112683817  0.4332278159501 1.0
C      1  0.3463673593981  0.3692524050901  0.7859234073573 1.0
C      1  0.4674052735302  0.4094470567884  0.6141144421601 1.0
C      1  0.3086596369064  0.5328037623438  0.1877491145475 1.0
C      1  0.2651080648418  0.3352797359184  0.3045727994538 1.0
C      1  0.7452837836547  0.4764801729016  0.2440050762007 1.0
C      1  0.5794021892275  0.7096581126786  0.1719552361713 1.0
C      1  0.2786585540507  0.7021526942581  0.3005284669431 1.0
C      1  0.5781929321229  0.3606927512558  0.1495672007517 1.0
C      1  0.7806842066037  0.5079922393819  0.3258581601771 1.0
C      1  0.3614801559307  0.3034401263688  0.7069753967659 1.0
C      1  0.4519202373135  0.3383181082523  0.2790878031432 1.0
C      1  0.6720773662021  0.2766430496326  0.3616659981198 1.0
C      1  0.3158739572857  0.2335137850249  0.4070557477724 1.0
C      1  0.3767648273273  0.7040890923665  0.2769327381309 1.0
C      1  0.5616997213400  0.8357088359873  0.6300458607883 1.0
C      1  0.7359312851739  0.3467771247369  0.8598033420004 1.0
C      1  0.1922871691450  0.5806424453184  0.5648461560128 1.0
C      1  0.1628612973233  0.5090011526674  0.5013420911537 1.0
C      1  0.1803680257676  0.4177823427557  0.5259270738580 1.0
C      1  0.5778319315835  0.4124342298841  0.4077059665575 1.0
C      1  0.4105957770965  0.5018252056050  0.4994723777320 1.0
C      1  0.4282206940706  0.4405539138277  0.1519526894514 1.0
C      1  0.8139972678150  0.4625829164831  0.7423892359400 1.0
C      1  0.6910145589173  0.5485878880446  0.2037126635090 1.0
C      1  0.3932665282495  0.8501598797855  0.5532426855977 1.0
C      1  0.7660373869670  0.6629528884781  0.4107699746669 1.0
C      1  0.7327385456780  0.3532419814322  0.3443099618989 1.0
C      1  0.3789256796566  0.5882253994345  0.1539704881604 1.0
C      1  0.4901525420412  0.3745465881257  0.1853684805739 1.0
C      1  0.2656093022550  0.6893628424760  0.4014666769444 1.0
C      1  0.5445531880890  0.7420409750003  0.7593503867983 1.0
C      1  0.6836659527609  0.6862072307249  0.4638199955486 1.0
C      1  0.7196812961591  0.3829966618981  0.2552983543610 1.0
C      1  0.6706190562738  0.3215996009981  0.6518211336652 1.0
C      1  0.5914765751790  0.5241469963124  0.2046293723852 1.0
C      1  0.3415790602059  0.6226574389101  0.4122084918307 1.0
C      1  0.6308136314752  0.7314027588157  0.7199040066696 1.0
C      1  0.8642561870202  0.5411318409228  0.7664101896906 1.0
C      1  0.1740018900110  0.4846005428230  0.2494857913923 1.0
C      1  0.6376731978575  0.7118708564977  0.2443893478960 1.0
C      1  0.5240732930657  0.4041037414735  0.3282053056451 1.0
C      1  0.2081433200193  0.3552311431646  0.4560725798098 1.0
C      1  0.3776381857800  0.5642137082804  0.7275441658574 1.0
C      1  0.4240082638699  0.7785020393508  0.3296082525131 1.0
C      1  0.4543906732442  0.3480638959029  0.6852450228334 1.0
C      1  0.3933750754279  0.1427515339772  0.5288896204183 1.0
C      1  0.5499483046030  0.6455826401761  0.1102941812912 1.0
C      1  0.3741440534989  0.2011666394879  0.6803104267743 1.0
C      1  0.2618040988745  0.4060221186898  0.7846023567966 1.0
C      1  0.4048958186127  0.6769032697993  0.1834684655101 1.0
C      1  0.6237626516076  0.5056272621125  0.6054541722311 1.0
C      1  0.2157241806676  0.3956689137668  0.6192874641231 1.0
C      1  0.8250888299537  0.5402514744382  0.5142386838394 1.0
C      1  0.6451839159470  0.5514512406446  0.3544476240066 1.0
C      1  0.6614676766506  0.6370816291601  0.7022494195661 1.0
C      1  0.2278151183660  0.6547946658762  0.7015667890131 1.0
C      1  0.6115016340704  0.8349611300401  0.4664718611432 1.0
C      1  0.6340734228984  0.3418697154634  0.2262476474026 1.0
C      1  0.4531329541266  0.1445518249094  0.6751832564519 1.0
C      1  0.5450687445218  0.4566755876115  0.5637602315793 1.0
C      1  0.7393181646732  0.7564241401042  0.4213512181217 1.0
C      1  0.8065111015241  0.1713221509433  0.5200038935790 1.0
C      1  0.9062678637832  0.1861150209713  0.5178959776184 1.0
C      1  0.2813459914244  0.7342840116074  0.7196314626196 1.0
C      1  0.1868019208162  0.6229126368961  0.3751063541116 1.0
C      1  0.5547476860417  0.1436532836311  0.5487503551267 1.0
C      1  0.7300126778921  0.1876906490413  0.4841111610570 1.0
C      1  0.1986005428465  0.3797444056980  0.3631444538495 1.0
C      1  0.2748641372687  0.5697880864619  0.7309452223548 1.0
C      1  0.6088822869959  0.7775397708023  0.3138599544746 1.0
C      1  0.6534319681710  0.4694296535938  0.3938520456548 1.0
C      1  0.6799241413468  0.3836283905861  0.7336141284801 1.0
C      1  0.5870287292410  0.2230623678616  0.7504630055934 1.0
C      1  0.2252789583902  0.5575832847866  0.2262619459377 1.0
C      1  0.8202339499957  0.6293468007268  0.4861673324588 1.0
C      1  0.7779933200799  0.4641130092416  0.4970827082630 1.0
C      1  0.7381351300050  0.5995406463740  0.3364725956557 1.0
C      1  0.6429590546417  0.8017215654940  0.6536781184970 1.0
C      1  0.5109308409023  0.6257224279063  0.6242647487789 1.0
C      1  0.6596190313926  0.2194096270852  0.4384622359125 1.0
C      1  0.5661773516364  0.3002298125350  0.8058839334453 1.0
C      1  0.7472048767158  0.4975272280092  0.6697491067802 1.0
C      1  0.3128704235505  0.4343110490661  0.6154412199621 1.0
C      1  0.2901227107027  0.5735644997002  0.5628440162892 1.0
C      1  0.6266316533247  0.6833853868647  0.5442503049550 1.0
C      1  0.6641486446193  0.8013202809600  0.3899241444343 1.0
C      1  0.3250892965412  0.2828797408991  0.5538484511435 1.0
C      1  0.6518355511334  0.4822372813673  0.7050031424090 1.0
C      1  0.2275007306316  0.4906469892117  0.7647074887389 1.0
C      1  0.6680093158340  0.3657299975997  0.5706131293944 1.0
C      1  0.7703957452370  0.3948653348635  0.7811381142435 1.0
C      1  0.2152883073532  0.6361419681312  0.2820729535800 1.0
C      1  0.4448014688177  0.5150861226221  0.7873167415026 1.0
END
