TITL C-48120-9333-10 -6.512 3375.00 -1153.11632923 0 0 140 (C1) n - 1
REM
REM Run started: at 2021.01.20 23:16:39 in /rds/project/t2_vol4/rds-t2-cs072/BORA/CARBON/AIRSS/Generating-Clusters/Str-Search/Only-C1/C100-200
REM VASP from code version vasp.5.4.4.18Apr17-6-g9f103f2a35 (build Oct 11 2019 16:45:47) gamma-only
REM
REM
REM
REM
REM ./C.cell (efaf0b2bf1589a83377268d7ebe2c73f)
REM AIRSS Version 0.9.1 bugfix July 2018 build 013d7b7c2542+ Fri, 06 Jul 2018 19:26:36 +0100
REM compiler GCC version 4.8.5 20150623 (Red Hat 4.8.5-39)
REM options -cpp -mtune=generic -march=x86-64 -g -O0
REM seed -1401671524 962944711 -219564795 -1527891234 -878792514 1379416457 -1628322889 172230831 920808182 -749572844 1813319784 605092169
REM
REM C.POTCAR (d86ddea03c3ceb6dc662c8ad6801f873)
REM 
CELL 1.54180   15.00000   15.00000   15.00000   90.00000   90.00000   90.00000
LATT -1
SFAC C  
C      1  0.7826787986378  0.6156580150106  0.6405268900483 1.0
C      1  0.7617812765410  0.2890279640444  0.3931443007271 1.0
C      1  0.5760682312871  0.7842589249320  0.3443575753640 1.0
C      1  0.7554242796496  0.2196784526772  0.4547157804379 1.0
C      1  0.4490246382345  0.3174026011288  0.7467692438780 1.0
C      1  0.2758333331759  0.6567191613178  0.5275210460527 1.0
C      1  0.2090627467301  0.5716029892826  0.3018341721398 1.0
C      1  0.3611721103837  0.1900230564602  0.5397593638539 1.0
C      1  0.3554289471146  0.7466672097205  0.7774469371085 1.0
C      1  0.4754634409556  0.4933621639056  0.5279556715545 1.0
C      1  0.1864499163927  0.4279209883998  0.5016346720575 1.0
C      1  0.2895152237630  0.7314041972700  0.7161877606471 1.0
C      1  0.3383058157577  0.8284757137813  0.5525150292800 1.0
C      1  0.6180878789413  0.2752412533277  0.7208366243607 1.0
C      1  0.3596442078752  0.5972908239625  0.6674535259438 1.0
C      1  0.7584371989312  0.5924440673327  0.3267467640740 1.0
C      1  0.5025416058294  0.6850542732105  0.7357251309464 1.0
C      1  0.4849405497393  0.7294783445124  0.4760453539727 1.0
C      1  0.5481937254396  0.4819203108975  0.6699006366291 1.0
C      1  0.5911363098564  0.2243257465982  0.4888734991317 1.0
C      1  0.6625359503672  0.6155121322506  0.2305839457219 1.0
C      1  0.6513069503252  0.6047972066358  0.7188323987509 1.0
C      1  0.5195974608174  0.1855545567998  0.5468516826620 1.0
C      1  0.8013096017236  0.5419602749505  0.3920083305319 1.0
C      1  0.7042793999388  0.5195090212081  0.7392305091501 1.0
C      1  0.4028945821868  0.4470648039216  0.5856686084140 1.0
C      1  0.5598311447183  0.5480555514386  0.1386633560632 1.0
C      1  0.5840203301105  0.3258742635590  0.5086730016856 1.0
C      1  0.3325558819936  0.4840637300007  0.1827135423004 1.0
C      1  0.4496124674877  0.3562900385682  0.2124122448466 1.0
C      1  0.3896508938095  0.2575813149591  0.6111772050045 1.0
C      1  0.5227639800848  0.5869367057218  0.5483827938370 1.0
C      1  0.4346402158182  0.6151996362200  0.7333152602309 1.0
C      1  0.4910313920319  0.2462769337671  0.6206137079716 1.0
C      1  0.2529679088368  0.7328653310234  0.4704970108177 1.0
C      1  0.5842593268252  0.6481749695661  0.7803855431470 1.0
C      1  0.3416391095171  0.5192514356073  0.8324646788491 1.0
C      1  0.2534607678108  0.4556584124673  0.6739105829354 1.0
C      1  0.7149975082222  0.6680214914745  0.6773593372560 1.0
C      1  0.4192204396106  0.5558420679712  0.8040857393593 1.0
C      1  0.7039664535518  0.2872029930798  0.3175991784256 1.0
C      1  0.1974770900646  0.3412203998665  0.4592851342943 1.0
C      1  0.6593264025777  0.3705786767420  0.5581065486178 1.0
C      1  0.3609027223266  0.6625058234047  0.5871739355211 1.0
C      1  0.3426011394258  0.7627998249294  0.6293835381875 1.0
C      1  0.2740387620231  0.6282492199229  0.7219214737200 1.0
C      1  0.4599678252636  0.1766923868455  0.4000002975993 1.0
C      1  0.4013744627638  0.3455968927248  0.5424448805200 1.0
C      1  0.3523185564610  0.4915124696438  0.6619676757729 1.0
C      1  0.5945036776671  0.5580297454730  0.6312720041408 1.0
C      1  0.5556187426898  0.4487016259120  0.7561332291093 1.0
C      1  0.6863628103902  0.1682173146015  0.5981913315195 1.0
C      1  0.4623220564368  0.6720000929691  0.5594469352111 1.0
C      1  0.5084712576729  0.5330176812752  0.3775506449826 1.0
C      1  0.5050584557616  0.3374344664842  0.5695002932375 1.0
C      1  0.2254008681096  0.2781477647327  0.5252825971945 1.0
C      1  0.5779427173128  0.6246381561199  0.1885639663699 1.0
C      1  0.2184508000973  0.5916062660284  0.4806253419458 1.0
C      1  0.4683799237554  0.4037767359872  0.7752002313590 1.0
C      1  0.5640136395629  0.2680025459882  0.2551372499427 1.0
C      1  0.4433224856272  0.1649529546006  0.4957914305387 1.0
C      1  0.3302146289843  0.4866527375668  0.3694255868903 1.0
C      1  0.7292104732827  0.7024160872597  0.5261930974994 1.0
C      1  0.2799680377005  0.3466828296372  0.6885658129371 1.0
C      1  0.6649113437103  0.4553453271466  0.5184156179292 1.0
C      1  0.3680409406672  0.3425414213760  0.4492141959567 1.0
C      1  0.5417397419881  0.4690054970036  0.1278742496420 1.0
C      1  0.6899133726697  0.3607117561404  0.2547196597806 1.0
C      1  0.5560093992441  0.2142942789600  0.3967070842940 1.0
C      1  0.2333355555896  0.3961896646717  0.3091161488218 1.0
C      1  0.4965523833947  0.7446200465353  0.2944143305738 1.0
C      1  0.4029464092028  0.2271280322162  0.3459668786194 1.0
C      1  0.6287694060986  0.4560405621002  0.4281969245181 1.0
C      1  0.3687070251890  0.3968158341386  0.1944078355344 1.0
C      1  0.4668104817201  0.2865519133014  0.2835776634846 1.0
C      1  0.2013846436486  0.5049101816706  0.4519071619982 1.0
C      1  0.6536418570490  0.5413681080915  0.5528925344839 1.0
C      1  0.2632382768082  0.5680016286705  0.8024300419520 1.0
C      1  0.2894467494166  0.2188434632600  0.4870924974515 1.0
C      1  0.3100017329680  0.8071831046489  0.4652151688573 1.0
C      1  0.6030042030661  0.6356645617924  0.8655572159209 1.0
C      1  0.6209542405404  0.2347703831109  0.3234421891329 1.0
C      1  0.7893001582230  0.4485920813557  0.3591526591991 1.0
C      1  0.8255723457912  0.4621121207692  0.6272913818002 1.0
C      1  0.7350126323639  0.4454302129627  0.2756601062717 1.0
C      1  0.4784314869154  0.4525964399541  0.4290795020681 1.0
C      1  0.5231054275307  0.2630644062371  0.7133976052874 1.0
C      1  0.2215196639274  0.5355394824169  0.7288714189098 1.0
C      1  0.7208052527731  0.5385989989808  0.2543152718636 1.0
C      1  0.2273430909476  0.4870015821528  0.3528504223269 1.0
C      1  0.3568920134900  0.5735039020657  0.3572825443760 1.0
C      1  0.3618246755181  0.3008417298267  0.6992048575882 1.0
C      1  0.5409254014020  0.3068873936829  0.3571606164635 1.0
C      1  0.6535372154205  0.7241019690866  0.3617330241750 1.0
C      1  0.4023918846800  0.7580992168825  0.3319851358176 1.0
C      1  0.4770436147405  0.8871544065377  0.6264278467677 1.0
C      1  0.4998347190573  0.6775559469715  0.2170796992661 1.0
C      1  0.4389757548422  0.8016261523467  0.6491347701188 1.0
C      1  0.2022011509795  0.4163943049233  0.5947185479944 1.0
C      1  0.2254539591470  0.3270910668831  0.6104923906004 1.0
C      1  0.5316503904505  0.3887356892288  0.1733256695645 1.0
C      1  0.2840889792203  0.4122754099096  0.2292665949405 1.0
C      1  0.3785051927620  0.8230782193841  0.3999806270731 1.0
C      1  0.7156057371301  0.3354406604531  0.6346298558337 1.0
C      1  0.6059344041761  0.3410981865437  0.2085517566838 1.0
C      1  0.6812515111326  0.7265435905900  0.6097524147860 1.0
C      1  0.8044201682077  0.3731591537213  0.4161940692309 1.0
C      1  0.4601917704431  0.8372350601705  0.4570396405067 1.0
C      1  0.4994873198967  0.4313689096074  0.6042957612129 1.0
C      1  0.6886323914161  0.1924992193678  0.5065159711229 1.0
C      1  0.4276451379740  0.8667628950607  0.5478242923315 1.0
C      1  0.3871493039054  0.4225028471655  0.4058630154736 1.0
C      1  0.4580020406665  0.6927565896231  0.3823623640982 1.0
C      1  0.6972302735004  0.6662679291766  0.3063637789824 1.0
C      1  0.5822665493825  0.7616679273777  0.4948104619645 1.0
C      1  0.3944067363527  0.4681066567963  0.7623395387301 1.0
C      1  0.6549229527528  0.4413476004924  0.7615610058657 1.0
C      1  0.2382951606313  0.3259164828853  0.3724494889325 1.0
C      1  0.6536313449675  0.7007936602232  0.4594848099737 1.0
C      1  0.7932775329895  0.6353717634132  0.5426618993133 1.0
C      1  0.6746657488235  0.3545903372774  0.7286120685274 1.0
C      1  0.4395187996696  0.7437244533368  0.7955833164989 1.0
C      1  0.8245189431384  0.5608501529142  0.4853126434611 1.0
C      1  0.8031315649353  0.3724606809520  0.6015361382309 1.0
C      1  0.2323369594215  0.6617023233845  0.4134919934058 1.0
C      1  0.4452489621519  0.5986542753718  0.3693657387088 1.0
C      1  0.2774629807084  0.6262803279997  0.3349700342777 1.0
C      1  0.6115225936467  0.6002585764174  0.4829102436966 1.0
C      1  0.8493248156867  0.4842680592384  0.5334469472794 1.0
C      1  0.8296713034887  0.3941803933193  0.5058760584584 1.0
C      1  0.5077421706954  0.7292605651858  0.6405777397142 1.0
C      1  0.5606261274735  0.3824830837128  0.4218050536845 1.0
C      1  0.6767688469772  0.2359808359184  0.6539676305757 1.0
C      1  0.5979375096056  0.5401219877223  0.4056199417315 1.0
C      1  0.3693831968785  0.5684988077442  0.1757238963108 1.0
C      1  0.4206992712773  0.6337638153342  0.1895928008730 1.0
C      1  0.5556748461053  0.8308677330120  0.4238493727157 1.0
C      1  0.7810890034378  0.5263368797099  0.6793300701541 1.0
C      1  0.3186896400511  0.2650777126927  0.3983639555903 1.0
C      1  0.5948335701684  0.7584514410172  0.5952641663589 1.0
END
