TITL C-49328-6906-4 -11.564 3375.00 0 0 0 244 (C1) n - 1
REM
REM Run started: at 2020.03.20 16:31:38 in /rds/user/bk393/hpc-work/AIRSS.pl-DENE/CARBON/New-Try
REM VASP from code version vasp.5.4.4.18Apr17-6-g9f103f2a35 (build Oct 11 2019 16:45:47) gamma-only
REM
REM
REM
REM
REM ./C.cell (90889e035cd0f9d0e5f9cb6dd9eb5d52)
REM AIRSS Version 0.9.1 bugfix July 2018 build 013d7b7c2542+ Fri, 06 Jul 2018 19:26:36 +0100
REM compiler GCC version 4.8.5 20150623 (Red Hat 4.8.5-39)
REM options -cpp -mtune=generic -march=x86-64 -g -O0
REM seed 225874357 -525833109 1425809447 421032872 -1653791547 -1541548810 -1734134243 705027730 -1562797829 -1915161455 -677005182 728330229
REM
REM C.POTCAR (d86ddea03c3ceb6dc662c8ad6801f873)
REM 
CELL 1.54180   15.00000   15.00000   15.00000   90.00000   90.00000   90.00000
LATT -1
SFAC C  
C      1  0.2513114727767  0.5433894068433  0.2934841040012 1.0
C      1  0.5600313602594  0.9119283689102  0.5306232224177 1.0
C      1  0.6092964451937  0.1642558730247  0.2971061871773 1.0
C      1  0.3556701095015  0.8393474425410  0.4742097709456 1.0
C      1  0.5940403393640  0.7950093903476  0.1545172151238 1.0
C      1  0.8127324560885  0.6262615141797  0.7551607499417 1.0
C      1  0.4396464994066  0.4239421729933  0.0904536732850 1.0
C      1  0.3323761682744  0.2420418931708  0.8161247923659 1.0
C      1  0.6655184540468  0.1306002651346  0.3704666408302 1.0
C      1  0.5998000403928  0.7524450784289  0.4844855631504 1.0
C      1  0.5652854224843  0.2170918708989  0.5821813200968 1.0
C      1  0.5870616396566  0.8698029892338  0.2874990736330 1.0
C      1  0.6376734935250  0.1972492245085  0.2129692912424 1.0
C      1  0.4095804483872  0.6610721009198  0.0921076709307 1.0
C      1  0.9003049153202  0.2731886137969  0.3955467794159 1.0
C      1  0.4894663722219  0.8482172694574  0.5726685718358 1.0
C      1  0.6917111884336  0.4862048031975  0.1394393296339 1.0
C      1  0.2092130053740  0.7258938609291  0.6925993793168 1.0
C      1  0.8160544046871  0.7814816253986  0.3291270909783 1.0
C      1  0.4222079837440  0.1499890167055  0.7120356683719 1.0
C      1  0.3189946000056  0.5124490800759  0.8534038125127 1.0
C      1  0.9943917513543  0.3921523366895  0.5161983890844 1.0
C      1  0.6209710037677  0.1045500254211  0.4496140780137 1.0
C      1  0.9035662153038  0.6787411407929  0.4440622383971 1.0
C      1  0.4288085836386  0.5185093898989  0.4868830669678 1.0
C      1  0.6439436266064  0.3500902284787  0.3772148385900 1.0
C      1  0.8349303563364  0.2414423962700  0.6425037850743 1.0
C      1  0.2612608581935  0.4572081007980  0.1588837723481 1.0
C      1  0.4051443076783  0.3611053915373  0.6678127614182 1.0
C      1  0.2578070635212  0.5005925124266  0.7778631539131 1.0
C      1  0.4971572933029  0.7341386370067  0.4585175713195 1.0
C      1  0.3695358884852  0.5965379316466  0.8611176033187 1.0
C      1  0.7807359980544  0.2196575375800  0.2945298884773 1.0
C      1  0.2585825535526  0.1301720491722  0.5922905870161 1.0
C      1  0.2660425916906  0.1850744661288  0.3441503018774 1.0
C      1  0.2936936843596  0.6016758901156  0.2225678387699 1.0
C      1  0.3080487703484  0.3751227303758  0.6562865497593 1.0
C      1  0.9286338385242  0.6715706012221  0.5419090619382 1.0
C      1  0.5742587488532  0.7104656412015  0.5811651466295 1.0
C      1  0.3396634085244  0.3544945528582  0.8979863603494 1.0
C      1  0.5218668304620  0.6290135918377  0.8517449181024 1.0
C      1  0.7388563215546  0.3589121627254  0.8448370356754 1.0
C      1  0.5947016316800  0.9542801579528  0.6111559836417 1.0
C      1  0.4747569434125  0.6765408868989  0.7683345590217 1.0
C      1  0.5383164862579  0.2129407954628  0.3297549735575 1.0
C      1  0.5069847181058  0.6696056608984  0.0805178479519 1.0
C      1  0.6939904944422  0.3772049142484  0.6902285123978 1.0
C      1  0.2219199887032  0.5812287579645  0.7471858417335 1.0
C      1  0.5589510359027  0.3669694829557  0.8888921217735 1.0
C      1  0.5368836067635  0.9431811594763  0.6809704405804 1.0
C      1  0.6504127561571  0.6862312186048  0.4302829516596 1.0
C      1  0.7107406408911  0.8565219837236  0.6864192139656 1.0
C      1  0.9338561091444  0.3437435335415  0.5762234052155 1.0
C      1  0.5732709077762  0.2706119886175  0.4973402311112 1.0
C      1  0.3945462644235  0.8611364199486  0.3188343275256 1.0
C      1  0.4734002742411  0.5762098269874  0.3463665971612 1.0
C      1  0.5158936506199  0.4130487088717  0.5705596653002 1.0
C      1  0.2718229696177  0.7038304967563  0.2121194462878 1.0
C      1  0.7576953398598  0.1382344922732  0.5405559841102 1.0
C      1  0.5003525867546  0.5792667858303  0.5259604898555 1.0
C      1  0.4726580897686  0.6125004591291  0.2520785105416 1.0
C      1  0.5673778354221  0.5925475282281  0.1143000063696 1.0
C      1  0.1760724378448  0.2103205442939  0.3167957097454 1.0
C      1  0.8553484316150  0.2714904292557  0.3135093959962 1.0
C      1  0.3818859762830  0.6749668898952  0.8050185872604 1.0
C      1  0.6279892939012  0.6294569906574  0.6047668469458 1.0
C      1  0.2552626495801  0.4399206264277  0.6950876321740 1.0
C      1  0.7553023497371  0.1637201404271  0.3720975770446 1.0
C      1  0.5614302360923  0.6065888577511  0.2100167009999 1.0
C      1  0.3762476067257  0.1699931487797  0.4640217535307 1.0
C      1  0.6768740029754  0.4098715910302  0.6065432881615 1.0
C      1  0.1708114868372  0.2329394864403  0.2259699261465 1.0
C      1  0.3641583937483  0.2425173949705  0.1951589084808 1.0
C      1  0.7767228642787  0.3702011078970  0.7495377469794 1.0
C      1  0.2388609556187  0.4873398982556  0.4455429673964 1.0
C      1  0.5305282753962  0.8117788012241  0.2293047635531 1.0
C      1  0.2420334622152  0.7103632571979  0.8567963969285 1.0
C      1  0.2985447751917  0.3689080182338  0.5468417595148 1.0
C      1  0.2231428355140  0.1645291299514  0.5074147335175 1.0
C      1  0.2101347050461  0.4910575700999  0.6144298772500 1.0
C      1  0.3660821520021  0.9554142502802  0.6022490321287 1.0
C      1  0.3078819349623  0.9015613592592  0.5403193033867 1.0
C      1  0.6468793167456  0.3524650653510  0.8418832616959 1.0
C      1  0.9047278276978  0.3797513001767  0.6588268326713 1.0
C      1  0.4024935667526  0.2892632350300  0.8646641468343 1.0
C      1  0.3443823685766  0.5740944258539  0.6342598001577 1.0
C      1  0.5809057239534  0.5525075231705  0.5723063682964 1.0
C      1  0.6682335291252  0.8192237284711  0.2322436095684 1.0
C      1  0.7223476666462  0.2364744365065  0.2164245041675 1.0
C      1  0.6025538119283  0.7739375004492  0.2944024881151 1.0
C      1  0.6336498614650  0.1555700964952  0.6051018345688 1.0
C      1  0.1554550694551  0.3562200917770  0.3626280398934 1.0
C      1  0.2146347509927  0.3341626898249  0.5083771338123 1.0
C      1  0.3201796782053  0.7437581724070  0.8043816317519 1.0
C      1  0.6497826459107  0.3227960016350  0.4687064057808 1.0
C      1  0.3635306108830  0.5076180127250  0.5628206374626 1.0
C      1  0.5772906221236  0.9202623534572  0.4380247799933 1.0
C      1  0.4953550115735  0.6696320745457  0.5337313353158 1.0
C      1  0.1411440666538  0.3096340414012  0.5733931279751 1.0
C      1  0.4235073529221  0.4965634481388  0.0425693967083 1.0
C      1  0.8624255312897  0.7450972990805  0.3903078478893 1.0
C      1  0.4275928034104  0.2938520122987  0.5837939912619 1.0
C      1  0.4433038367252  0.9036592154125  0.6459404343013 1.0
C      1  0.4051557155326  0.0017390988867  0.4267833887835 1.0
C      1  0.3638899803896  0.4458429759038  0.9024525422299 1.0
C      1  0.3081927097036  0.5186833372179  0.3746863270639 1.0
C      1  0.5560460733941  0.3600473361769  0.3245453261164 1.0
C      1  0.0625622262402  0.5673293333813  0.5481027080463 1.0
C      1  0.7273822406042  0.6145877763204  0.2471732536487 1.0
C      1  0.4633124281597  0.4197579540077  0.4795434412191 1.0
C      1  0.3929605746782  0.3403863496907  0.5004869747703 1.0
C      1  0.6544539578570  0.4582037263383  0.2282518378608 1.0
C      1  0.7479130145046  0.7220038167752  0.6153260830597 1.0
C      1  0.4957029005274  0.1481689244027  0.5580198671210 1.0
C      1  0.7346220726912  0.4512146012573  0.4554419155927 1.0
C      1  0.4533254195783  0.2789663436386  0.1908828531927 1.0
C      1  0.2545556125029  0.1893888368853  0.6664784971801 1.0
C      1  0.2769111666966  0.4677330059195  0.5371720322502 1.0
C      1  0.1394436090054  0.2619850064730  0.3890053953587 1.0
C      1  0.1686601680955  0.6959149545971  0.5441130842061 1.0
C      1  0.4144322966432  0.8278105641239  0.7077392019462 1.0
C      1  0.4165254478461  0.2577724921884  0.4299356640685 1.0
C      1  0.1824692761918  0.3031881917330  0.8195208477506 1.0
C      1  0.5239708145184  0.3100758439765  0.5772684389712 1.0
C      1  0.7636634052998  0.7829034586140  0.2518926374747 1.0
C      1  0.6331104611219  0.8499718844252  0.4794175433974 1.0
C      1  0.7341154206193  0.5412162169886  0.4540647383990 1.0
C      1  0.7200892980223  0.8798602309776  0.4960749613895 1.0
C      1  0.7885185334620  0.5353357543170  0.2768183502322 1.0
C      1  0.5670725992059  0.4429717595912  0.2667198037556 1.0
C      1  0.9770275628674  0.5885142512678  0.5737160910404 1.0
C      1  0.4376535934773  0.8066737706127  0.4970684601829 1.0
C      1  0.5175026143728  0.2238280086150  0.4273554290594 1.0
C      1  0.3398169465200  0.0544157502238  0.5872901443643 1.0
C      1  0.3242518792893  0.8127038864006  0.7353593019291 1.0
C      1  0.2392745357988  0.5809847774899  0.6489883032911 1.0
C      1  0.5615226874517  0.7432008082476  0.0898849751729 1.0
C      1  0.3837396795629  0.6446875948931  0.2406944588268 1.0
C      1  0.4552881499568  0.5785692585092  0.8974569921023 1.0
C      1  0.6169583418721  0.6020952368859  0.8485485946164 1.0
C      1  0.7191282561079  0.3901563816449  0.1293521937221 1.0
C      1  0.8819252324113  0.6321817309679  0.6876901106123 1.0
C      1  0.7150239634170  0.6518702613236  0.5717180498605 1.0
C      1  0.7098300754825  0.4167495989311  0.3683289836622 1.0
C      1  0.7310906394320  0.3135529073520  0.1607481367481 1.0
C      1  0.7558451421227  0.5464171515381  0.7574467253610 1.0
C      1  0.7645146962824  0.5528322807811  0.1739105026148 1.0
C      1  0.2192822646740  0.7389028566774  0.2810095307736 1.0
C      1  0.6123104927369  0.5033558646395  0.9830903148857 1.0
C      1  0.4826078922058  0.3305165883667  0.8300031815418 1.0
C      1  0.8897912471883  0.2619721241768  0.5621994518750 1.0
C      1  0.4515852293467  0.4871152425319  0.9443987123251 1.0
C      1  0.4913500498203  0.5832398276544  0.7240382158505 1.0
C      1  0.3915894346525  0.5447442363404  0.3972446632051 1.0
C      1  0.1898472735618  0.3192472150188  0.2026917817345 1.0
C      1  0.4383758363722  0.7046226847331  0.2991182896086 1.0
C      1  0.7803977644303  0.9195063813558  0.5389817214321 1.0
C      1  0.7041913830624  0.3837217188642  0.5176921918867 1.0
C      1  0.5255045335156  0.4921491198710  0.3394499067375 1.0
C      1  0.9002140163736  0.3500157769293  0.3427456645367 1.0
C      1  0.1848293749662  0.7873116344519  0.5225189072869 1.0
C      1  0.6790620465199  0.1613598346806  0.6862687559157 1.0
C      1  0.6272563158608  0.3820136497540  0.7533735953769 1.0
C      1  0.6691938965153  0.1089840791889  0.5296486608684 1.0
C      1  0.4249389999688  0.3438255688235  0.1223681306203 1.0
C      1  0.1795390384463  0.5892819675834  0.3411574909911 1.0
C      1  0.6305558520695  0.6238410904077  0.2680036614401 1.0
C      1  0.4067036790124  0.1957270068532  0.5592222994305 1.0
C      1  0.3056474406430  0.5406971611477  0.1424893531250 1.0
C      1  0.1152778660586  0.7087777324842  0.4036563487114 1.0
C      1  0.2006854093648  0.6661919982231  0.6227969552124 1.0
C      1  0.9636124892493  0.4380618047686  0.4455168024846 1.0
C      1  0.3219172509376  0.8344010375711  0.3799906287343 1.0
C      1  0.5672538960829  0.5239407569765  0.7373800070132 1.0
C      1  0.2194297168875  0.4630009650712  0.2447391654417 1.0
C      1  0.1515012357812  0.2823460800416  0.7436375226946 1.0
C      1  0.2366315270507  0.8025161187313  0.3569312275899 1.0
C      1  0.3385941073781  0.2248340954315  0.2889492355269 1.0
C      1  0.7938353651063  0.6426373529069  0.1386370780261 1.0
C      1  0.5425308950139  0.4393307424672  0.9424172669485 1.0
C      1  0.4904965988456  0.2863210464116  0.2836771263425 1.0
C      1  0.4840726451307  0.7646279946665  0.7148836463789 1.0
C      1  0.8234552345042  0.7801398788935  0.6335238927829 1.0
C      1  0.5129454432543  0.1572897631819  0.7441412769339 1.0
C      1  0.4731625785685  0.3692070206710  0.7464262981652 1.0
C      1  0.8016897765110  0.1678917424880  0.4603675156875 1.0
C      1  0.3316689135600  0.3089058221588  0.1310431400549 1.0
C      1  0.4213866847629  0.5403194268608  0.6817122810389 1.0
C      1  0.7809037903434  0.8728266687826  0.6241316120214 1.0
C      1  0.9073020941812  0.5963335270897  0.3965627305805 1.0
C      1  0.3740081128574  0.5718043204205  0.0839166029645 1.0
C      1  0.2132021966381  0.6720597420040  0.7749523318543 1.0
C      1  0.0816938608304  0.3985813711184  0.5623274526052 1.0
C      1  0.5221872801031  0.1269859999144  0.4603506191000 1.0
C      1  0.8916695015661  0.7079604637133  0.6220496051248 1.0
C      1  0.7731633000356  0.6979753038204  0.2070413490391 1.0
C      1  0.2829337974508  0.1605841574818  0.4334283401902 1.0
C      1  0.1211288986152  0.6320560293245  0.4823162450144 1.0
C      1  0.7091962980689  0.6276321354815  0.4742177017655 1.0
C      1  0.8453322026221  0.3183277587750  0.6995492751112 1.0
C      1  0.3683929736347  0.7215463026238  0.1746980621651 1.0
C      1  0.2347406362256  0.8441925763558  0.5816313877225 1.0
C      1  0.3331842978406  0.1893370693863  0.7367321087523 1.0
C      1  0.4432121814450  0.9337435631106  0.3580116106802 1.0
C      1  0.7681610238937  0.1750176897254  0.6373903021258 1.0
C      1  0.5992210267300  0.1580205650980  0.7422699561221 1.0
C      1  0.7228041102381  0.4637272975409  0.2918928518256 1.0
C      1  0.6229502990293  0.5293474509684  0.0781484505743 1.0
C      1  0.7711748311758  0.7151782659868  0.7819406529942 1.0
C      1  0.3429546847337  0.9918830371660  0.5046339247861 1.0
C      1  0.8747163576049  0.5316526307933  0.3403769357131 1.0
C      1  0.1776755950379  0.2616009495022  0.6590835990603 1.0
C      1  0.1936870686906  0.3977392295675  0.4342410150393 1.0
C      1  0.9221326265581  0.5546751776554  0.6519517691888 1.0
C      1  0.4341749864831  0.7914443553240  0.2495860457599 1.0
C      1  0.6021301940683  0.6856308256813  0.3430861734486 1.0
C      1  0.1667554791303  0.2469059665682  0.4871440069534 1.0
C      1  0.5108330647934  0.4189656087365  0.3933773004647 1.0
C      1  0.4313187202791  0.4536654449667  0.6254812792630 1.0
C      1  0.6554833376031  0.5641164424805  0.7662771449081 1.0
C      1  0.5479039363561  0.7887638636360  0.6402578910679 1.0
C      1  0.5493739051078  0.4329071398280  0.7367254879841 1.0
C      1  0.8071457608870  0.4690535720644  0.7380413318294 1.0
C      1  0.4353539113995  0.0895133777858  0.4327617403495 1.0
C      1  0.4036616540930  0.2696033959854  0.3352850912488 1.0
C      1  0.8892942801226  0.4716637951595  0.6863129125634 1.0
C      1  0.1531288204534  0.6776277207433  0.3240334852340 1.0
C      1  0.2538265793500  0.3593045622591  0.1376303722670 1.0
C      1  0.8750741956658  0.2281151818949  0.4745278411309 1.0
C      1  0.4986930173794  0.6787777416911  0.3720808286409 1.0
C      1  0.8081269800786  0.6880690139723  0.8560329417637 1.0
C      1  0.5416241809392  0.9242482576328  0.3555272657080 1.0
C      1  0.6142474297386  0.8744832281894  0.6729092866746 1.0
C      1  0.1749424222635  0.5658661556702  0.4294055394857 1.0
C      1  0.1716522048941  0.7835826840287  0.4267679426337 1.0
C      1  0.4182692129643  0.1167977164425  0.6165840453403 1.0
C      1  0.7470403928722  0.7646202906597  0.7044555306821 1.0
C      1  0.1777477082137  0.3853315727700  0.2733388450147 1.0
C      1  0.5968267106990  0.4637034803566  0.5866797522288 1.0
C      1  0.9153095872048  0.4427842031335  0.3670050432141 1.0
C      1  0.1130569760794  0.4836202520983  0.5817403639306 1.0
C      1  0.6407105487237  0.5625489020686  0.9248049491601 1.0
C      1  0.2657683966978  0.3022537671705  0.8552689267211 1.0
C      1  0.2483236220000  0.8114494072632  0.6727665973699 1.0
END
