TITL C-5073-9374-7 -4.888 3375.00 -849.95714431 0 0 103 () n - 1
REM
REM Run started: at 2020.12.25 10:10:36 in /gpfs/home/chem/mssmkc/CARBON/AIRSS/Generating-Clusters/Str-Search/Only-C1/C100-200
REM VASP from code version vasp.5.4.4.18Apr17-6-g9f103f2a35 (build Oct 11 2019 16:45:47) gamma-only
REM
REM
REM
REM
REM ./C.cell (efaf0b2bf1589a83377268d7ebe2c73f)
REM AIRSS Version 0.9.1 bugfix July 2018 build 013d7b7c2542+ Fri, 06 Jul 2018 19:26:36 +0100
REM compiler GCC version 6.3.0
REM options -cpp -iprefix /gpfs/warwick/csc/orac/software/Core/GCCcore/6.3.0/bin/../lib/gcc/x86_64-pc-linux-gnu/6.3.0/ -mtune=generic -march=x86-64 -g -O0
REM seed 432927137 2096561122 418622312 431212179 1896581327 840798163 -1804154051 1979557522 693002823 -1313192653 -1374045574 751651277
REM
REM C.POTCAR (d86ddea03c3ceb6dc662c8ad6801f873)
REM 
CELL 1.54180   15.00000   15.00000   15.00000   90.00000   90.00000   90.00000
LATT -1
SFAC C  
C      1  0.5287341447242  0.7981731790679  0.4211522278574 1.0
C      1  0.3933676027596  0.2124092053629  0.3635531800208 1.0
C      1  0.3536349727070  0.5060512623921  0.2921401750579 1.0
C      1  0.5216822060066  0.1979326328438  0.4897428780517 1.0
C      1  0.3676881428000  0.4277844832414  0.6305123606245 1.0
C      1  0.6344102454547  0.2393538755203  0.3568563115061 1.0
C      1  0.6396060358642  0.4669567454575  0.3238998991667 1.0
C      1  0.5085996357918  0.2331201575566  0.5823114431448 1.0
C      1  0.3621166449319  0.6004729085917  0.4322677804987 1.0
C      1  0.4781994401746  0.7150296118488  0.6349053684343 1.0
C      1  0.5305627334834  0.5374941012315  0.8565406006943 1.0
C      1  0.7640350684395  0.4254095948234  0.4270079942927 1.0
C      1  0.7317873583405  0.5007277030118  0.7256636519931 1.0
C      1  0.5948334975334  0.5864748775614  0.5907306033219 1.0
C      1  0.6576198070631  0.3132642638344  0.6347824702597 1.0
C      1  0.2219624677316  0.6798518190341  0.5034637140532 1.0
C      1  0.3007965709604  0.7554471367808  0.3814067545648 1.0
C      1  0.2767419838745  0.3636790473726  0.6118477837319 1.0
C      1  0.3836834519487  0.4683265613799  0.7944129990882 1.0
C      1  0.5276290347549  0.6920793939041  0.2654461529472 1.0
C      1  0.5582154487090  0.3067481840392  0.7317139849020 1.0
C      1  0.4581930616817  0.3353489262338  0.5187340754780 1.0
C      1  0.7546846098235  0.7150098522539  0.4213645584239 1.0
C      1  0.5092886868617  0.6185691995626  0.6073410532668 1.0
C      1  0.3865603425641  0.3078584637949  0.7445543954204 1.0
C      1  0.4299471208070  0.1907074272593  0.4486590426349 1.0
C      1  0.2860934510847  0.7541882665980  0.4788740492821 1.0
C      1  0.2625267106095  0.4596205082876  0.6409601473949 1.0
C      1  0.3159388317169  0.4212870445199  0.3250416007173 1.0
C      1  0.6890658917710  0.4239989365837  0.7625794927116 1.0
C      1  0.3171254619059  0.6513741362386  0.6296068291028 1.0
C      1  0.2394827867672  0.4462167606662  0.4855485988980 1.0
C      1  0.7467071210434  0.4103840529152  0.5204587522880 1.0
C      1  0.6848841615128  0.6994233916632  0.5746194078806 1.0
C      1  0.6680630296404  0.3767716900556  0.2809585007702 1.0
C      1  0.3069898520133  0.2617454584940  0.3777035235419 1.0
C      1  0.5052357026868  0.3259201122772  0.2983423468212 1.0
C      1  0.7322326800850  0.5494899939676  0.6501145430293 1.0
C      1  0.7440617787914  0.6671443013253  0.5017536091269 1.0
C      1  0.2237905722839  0.6157162099913  0.3473308744858 1.0
C      1  0.4138124401432  0.2714243839531  0.5809309072550 1.0
C      1  0.5713873790542  0.2649818872144  0.6441902278082 1.0
C      1  0.7092170931063  0.5406917010437  0.3348411006081 1.0
C      1  0.4751141133093  0.6226503603173  0.2313140058564 1.0
C      1  0.3689941040022  0.5829396842921  0.6792577784292 1.0
C      1  0.3875864421068  0.5560035717584  0.5087485655293 1.0
C      1  0.2367726809751  0.5133220464138  0.5632642803067 1.0
C      1  0.6000098114345  0.2987641599110  0.2958866321938 1.0
C      1  0.6036466148993  0.6378250642872  0.7378560257222 1.0
C      1  0.6392766324111  0.7639069486727  0.3147877696833 1.0
C      1  0.4767808864884  0.3183037061544  0.7732984407339 1.0
C      1  0.6851781017474  0.2628233552272  0.4827739553488 1.0
C      1  0.5029623227573  0.3933391275157  0.3648966797964 1.0
C      1  0.6266788727207  0.6848623722257  0.2655560596120 1.0
C      1  0.6462262508119  0.4180917404997  0.1864776530462 1.0
C      1  0.5155286144127  0.5319072892371  0.2101261790448 1.0
C      1  0.2915267864788  0.2766789208508  0.4707887962424 1.0
C      1  0.2277706478436  0.7097389943283  0.3462961745450 1.0
C      1  0.3626503927935  0.2242112282726  0.5107900922054 1.0
C      1  0.6267659036973  0.5178234756662  0.5416003207824 1.0
C      1  0.6783232063759  0.5086050352654  0.8027526924669 1.0
C      1  0.6892144378842  0.7754113308323  0.3954521157304 1.0
C      1  0.4245226447829  0.5427297207709  0.2472911900824 1.0
C      1  0.5806824993803  0.4688237049725  0.1598945103355 1.0
C      1  0.4076934349024  0.3793470688292  0.8019143248197 1.0
C      1  0.2686047083605  0.4649343547273  0.3969723163949 1.0
C      1  0.4896907842388  0.4267262047997  0.5191015102413 1.0
C      1  0.7443767440004  0.3589373449899  0.3574718381634 1.0
C      1  0.3806064402380  0.7558131197841  0.5155521344196 1.0
C      1  0.4497492211042  0.3768259403657  0.4401192002205 1.0
C      1  0.4191379141194  0.4769883433524  0.5619560089176 1.0
C      1  0.4306391814714  0.5672206643461  0.5940611500360 1.0
C      1  0.3651412596997  0.6965190094280  0.4296470698201 1.0
C      1  0.6205571881720  0.7960641841121  0.4578590915089 1.0
C      1  0.6627548672101  0.5973913470695  0.2739568084044 1.0
C      1  0.3794306200013  0.7185590872401  0.6070499115000 1.0
C      1  0.5728288267501  0.4647474053460  0.4846546618229 1.0
C      1  0.7663954068232  0.5228854663280  0.4087480105689 1.0
C      1  0.5406557807158  0.7695104706695  0.3312297154475 1.0
C      1  0.4486591456961  0.5397827273405  0.8092496695117 1.0
C      1  0.6463386966317  0.3515490671248  0.7227678591757 1.0
C      1  0.5758275001202  0.4481692473823  0.3942942125728 1.0
C      1  0.7609113894607  0.5721052211154  0.4899204236137 1.0
C      1  0.3617234515840  0.3256785423464  0.6503989653697 1.0
C      1  0.4207084589974  0.2800097602435  0.2989729026231 1.0
C      1  0.7154452987593  0.2787181424452  0.3935733227405 1.0
C      1  0.1811757409471  0.6635028245932  0.4180461155641 1.0
C      1  0.2471974914182  0.6151216629790  0.5692773801358 1.0
C      1  0.5271955645146  0.7748364368193  0.5742466276508 1.0
C      1  0.2572641925423  0.3550229989610  0.5183494930086 1.0
C      1  0.4713151697445  0.7956653702121  0.4999002337580 1.0
C      1  0.3359167773540  0.3288870436305  0.3161505107821 1.0
C      1  0.7028289226907  0.3288158711476  0.5516520082542 1.0
C      1  0.6209336688615  0.7661350871891  0.5484022431339 1.0
C      1  0.6019814133346  0.5243852772562  0.2530160336271 1.0
C      1  0.7297299910984  0.5065320067932  0.5584490236244 1.0
C      1  0.6050496852025  0.2123588009240  0.4502387950316 1.0
C      1  0.3010285468655  0.5551208615149  0.3644510162509 1.0
C      1  0.5098966835098  0.6613004102054  0.7134894253603 1.0
C      1  0.4367094698648  0.6087362496268  0.7477666498774 1.0
C      1  0.6658306892622  0.6291457689176  0.6498622210053 1.0
C      1  0.6052122027086  0.5724141547820  0.8077961567037 1.0
C      1  0.3354502437035  0.4901148678356  0.7054589694879 1.0
END
