TITL C-5073-9374-32 -8.534 3375.00 -1504.99023696 0 0 184 () n - 1
REM
REM Run started: at 2020.12.26 09:57:47 in /gpfs/home/chem/mssmkc/CARBON/AIRSS/Generating-Clusters/Str-Search/Only-C1/C100-200
REM VASP from code version vasp.5.4.4.18Apr17-6-g9f103f2a35 (build Oct 11 2019 16:45:47) gamma-only
REM
REM
REM
REM
REM ./C.cell (efaf0b2bf1589a83377268d7ebe2c73f)
REM AIRSS Version 0.9.1 bugfix July 2018 build 013d7b7c2542+ Fri, 06 Jul 2018 19:26:36 +0100
REM compiler GCC version 6.3.0
REM options -cpp -iprefix /gpfs/warwick/csc/orac/software/Core/GCCcore/6.3.0/bin/../lib/gcc/x86_64-pc-linux-gnu/6.3.0/ -mtune=generic -march=x86-64 -g -O0
REM seed 482353051 821043812 35857312 -1174488534 578740656 -480667084 811469893 996859049 1667941056 -774343708 -23798705 643708318
REM
REM C.POTCAR (d86ddea03c3ceb6dc662c8ad6801f873)
REM 
CELL 1.54180   15.00000   15.00000   15.00000   90.00000   90.00000   90.00000
LATT -1
SFAC C  
C      1  0.8265367868044  0.6888280276541  0.7009929279231 1.0
C      1  0.3342949588526  0.4958758347231  0.7465545342889 1.0
C      1  0.6950569639249  0.5254963082928  0.1609602176799 1.0
C      1  0.9162271432863  0.5396203068613  0.5024372296175 1.0
C      1  0.2068682918032  0.2558349682698  0.5241765944233 1.0
C      1  0.4096234567122  0.6542760522143  0.6118017982652 1.0
C      1  0.7990119569080  0.7357433039324  0.6212229244084 1.0
C      1  0.5878592019279  0.3073752262622  0.7881614541568 1.0
C      1  0.1245307192428  0.4904480872337  0.4887954206437 1.0
C      1  0.7123116794113  0.7799275976210  0.4127466166975 1.0
C      1  0.7477254379537  0.3990772838340  0.7854642058519 1.0
C      1  0.5932222637380  0.4279665734758  0.3606024817965 1.0
C      1  0.2928550284559  0.5615893206571  0.2157855085699 1.0
C      1  0.3588637685916  0.5445665969270  0.2812119922319 1.0
C      1  0.5461276823975  0.1941025971439  0.3286478105175 1.0
C      1  0.8626768838966  0.3946725461071  0.4839672064949 1.0
C      1  0.4079078558699  0.1672787012099  0.6390471465120 1.0
C      1  0.5303871622983  0.8371392320054  0.7762747376336 1.0
C      1  0.4259267458985  0.6172008751058  0.7691578987818 1.0
C      1  0.7253523082898  0.7704400589320  0.1659818317600 1.0
C      1  0.1818328001768  0.4116719642236  0.5325520109347 1.0
C      1  0.5433473653913  0.5123600497412  0.2333658155050 1.0
C      1  0.5826384815355  0.5916638548818  0.8238378571506 1.0
C      1  0.2755083807840  0.2310055045140  0.2884039228067 1.0
C      1  0.6415240369183  0.5255276082935  0.6243477836436 1.0
C      1  0.1709138841512  0.4296472659233  0.6297107504797 1.0
C      1  0.4898018191585  0.1738281543357  0.6937139709701 1.0
C      1  0.7095606643206  0.4388695130872  0.1911635146079 1.0
C      1  0.8300960594985  0.3918486673294  0.3003393344111 1.0
C      1  0.4144772133424  0.1822415205203  0.2317395054105 1.0
C      1  0.6678393932708  0.7519039962332  0.3297020960904 1.0
C      1  0.8960368117742  0.4700526776988  0.4315261587133 1.0
C      1  0.7150356330849  0.5250075014047  0.6899789495503 1.0
C      1  0.4023049174291  0.4081708920861  0.6310906426748 1.0
C      1  0.6219016445873  0.2650995674422  0.3502020154979 1.0
C      1  0.4952436993678  0.5711486989386  0.3528191357022 1.0
C      1  0.2961834463814  0.7270596291033  0.2640589268183 1.0
C      1  0.0800497824889  0.4038866930959  0.4941218769950 1.0
C      1  0.5465628728624  0.3685813657652  0.8559752745849 1.0
C      1  0.2288592038243  0.6755093847840  0.7631716245537 1.0
C      1  0.3221483174745  0.7907354134193  0.3102383516949 1.0
C      1  0.3612136702191  0.3794357198500  0.2736645032475 1.0
C      1  0.1727794438746  0.2873906331170  0.3938393589824 1.0
C      1  0.6597275206272  0.3138244395080  0.6283143924385 1.0
C      1  0.5952484439823  0.5324712759190  0.1443378774856 1.0
C      1  0.1065625775256  0.5560455530192  0.5611191531581 1.0
C      1  0.7520737292989  0.6787589812873  0.1389644257686 1.0
C      1  0.2709303224102  0.3933385812107  0.3177085509286 1.0
C      1  0.7738120725733  0.5698566408414  0.5540993605838 1.0
C      1  0.7578736115466  0.5930020776162  0.1566547049279 1.0
C      1  0.7167904932897  0.4936081191173  0.7806307215033 1.0
C      1  0.4589005794027  0.3530867654160  0.8717590528096 1.0
C      1  0.4993970227232  0.7065467183281  0.2547497872666 1.0
C      1  0.3689928555056  0.2846193568355  0.4153473750368 1.0
C      1  0.4580521798974  0.9739812063642  0.2665953146616 1.0
C      1  0.8494658186337  0.6185496373190  0.5051014832119 1.0
C      1  0.2303127149215  0.4750109213983  0.4727904855234 1.0
C      1  0.5264336378562  0.3177409439530  0.5604073695525 1.0
C      1  0.6187572910205  0.4255401408224  0.8666470585285 1.0
C      1  0.5825581169548  0.5204122083239  0.3273280853466 1.0
C      1  0.7803917206516  0.3812245925625  0.2162779940314 1.0
C      1  0.1739935910555  0.6711666329683  0.3989343828420 1.0
C      1  0.5908615848085  0.6997194198586  0.1186902623223 1.0
C      1  0.3387273419458  0.2929991914275  0.8051894939061 1.0
C      1  0.6295104999003  0.3771170137520  0.2068999477934 1.0
C      1  0.5112028169869  0.7460762235845  0.7947413137396 1.0
C      1  0.4323364127246  0.7132356560045  0.7613914849687 1.0
C      1  0.4096996434798  0.9229303637162  0.3141697361327 1.0
C      1  0.1191143751424  0.5104605379510  0.6452840027001 1.0
C      1  0.6532413865574  0.7425059171688  0.7341623832352 1.0
C      1  0.3933247327830  0.4210584358918  0.8792193679067 1.0
C      1  0.8942363658967  0.6279750662848  0.7045253767863 1.0
C      1  0.5499675735773  0.7606494689093  0.4805377793450 1.0
C      1  0.5396220141742  0.1477640501283  0.6112768112667 1.0
C      1  0.3835256440328  0.4211684672617  0.5308272038028 1.0
C      1  0.4858061046359  0.7040985268821  0.4495700380740 1.0
C      1  0.4578862143062  0.1345995747685  0.4543484910567 1.0
C      1  0.5575155931258  0.8484046239693  0.6249242296540 1.0
C      1  0.7021772632810  0.1390981306901  0.6148987056977 1.0
C      1  0.4350257928461  0.5265273953868  0.4184079947583 1.0
C      1  0.3408804911647  0.7769369469751  0.5216700457326 1.0
C      1  0.2929529134982  0.2790767139904  0.5748336883150 1.0
C      1  0.8272640952819  0.7194080574630  0.5329080624456 1.0
C      1  0.5488486178330  0.6113901684737  0.1042609334841 1.0
C      1  0.3977683945487  0.1872590233344  0.3964017786796 1.0
C      1  0.8013085012830  0.6419154147806  0.4191766766913 1.0
C      1  0.5408967889877  0.1348213198742  0.4134314409202 1.0
C      1  0.1774613936389  0.6946776886921  0.4864760432801 1.0
C      1  0.7574112356793  0.1931944531406  0.6434662789732 1.0
C      1  0.5507888898367  0.4609589260449  0.5099008344359 1.0
C      1  0.6142566757889  0.6726620869035  0.3500721223761 1.0
C      1  0.5647132003084  0.4712877441879  0.6045768242719 1.0
C      1  0.6764509612955  0.5720721646443  0.5471972764730 1.0
C      1  0.3618242201608  0.5789533769636  0.4668047989849 1.0
C      1  0.1236455962252  0.6485349180324  0.5559720448554 1.0
C      1  0.3276964957739  0.5005893200739  0.1493854632231 1.0
C      1  0.4550074075611  0.4341999482665  0.1330237283148 1.0
C      1  0.4112865098289  0.5204622850243  0.1068243926120 1.0
C      1  0.8773347367108  0.4630718411444  0.3400931639126 1.0
C      1  0.5151072309136  0.6707680332084  0.3559864342417 1.0
C      1  0.3145755994931  0.3814278215314  0.8367550813291 1.0
C      1  0.2773998224385  0.7294077939912  0.7001575336260 1.0
C      1  0.2555692220392  0.4408125787008  0.7755434549225 1.0
C      1  0.7809693399845  0.3265033095832  0.3581819450772 1.0
C      1  0.7967631789314  0.3525434706252  0.7206286281798 1.0
C      1  0.5512517377726  0.4389682276250  0.1642152305864 1.0
C      1  0.3908970130669  0.8041722155704  0.6093221970668 1.0
C      1  0.3684278356364  0.3146430932771  0.5108423008335 1.0
C      1  0.2478929545823  0.6448511547458  0.2500414200531 1.0
C      1  0.4517208800448  0.6446033158033  0.2060243054896 1.0
C      1  0.1337441320237  0.5555630590158  0.7272832151805 1.0
C      1  0.5938596305645  0.8241683362263  0.7087112370094 1.0
C      1  0.4398704348788  0.8996381344611  0.5041828844341 1.0
C      1  0.2224231707198  0.2178255867847  0.4376079467578 1.0
C      1  0.6797429325310  0.7265225572092  0.0956673764014 1.0
C      1  0.8879130382390  0.5477912508478  0.6635002512987 1.0
C      1  0.3883322541431  0.4931718183607  0.6755079779950 1.0
C      1  0.2188904673527  0.7461485689883  0.6261378764907 1.0
C      1  0.4161980905034  0.5158542006971  0.8699526532814 1.0
C      1  0.4601597628829  0.8630075800798  0.5929722527766 1.0
C      1  0.7141441784850  0.2781735221005  0.3097924982894 1.0
C      1  0.6142077255063  0.1578617500851  0.4734848336749 1.0
C      1  0.2697214677677  0.4616704074994  0.3836894350977 1.0
C      1  0.4602741028302  0.4580799828391  0.4797111583772 1.0
C      1  0.6200254488781  0.1305373755997  0.5704615248008 1.0
C      1  0.8325670156268  0.3571233381657  0.6393178436707 1.0
C      1  0.4547520476298  0.6068367787049  0.1138208807841 1.0
C      1  0.5741292988093  0.7401865664117  0.2035148099310 1.0
C      1  0.6539107795470  0.5897303283727  0.3489277351252 1.0
C      1  0.7875609776434  0.7337497719000  0.4457391363240 1.0
C      1  0.8806254964229  0.4058082773521  0.5745698314999 1.0
C      1  0.1461524520827  0.3303968223858  0.4820415134013 1.0
C      1  0.7419336740588  0.7332132839527  0.6991744572236 1.0
C      1  0.6409967921681  0.7917738127857  0.4725917536857 1.0
C      1  0.4598982034827  0.1671654708561  0.5506726685198 1.0
C      1  0.1440921555799  0.6503169561418  0.7200580022830 1.0
C      1  0.7095369129795  0.4210777522021  0.4720981128471 1.0
C      1  0.3488213687161  0.5670982127284  0.8126761670568 1.0
C      1  0.1983044379210  0.5249320902461  0.7929791627871 1.0
C      1  0.3144680901511  0.2712506871901  0.7180368129007 1.0
C      1  0.1392237776739  0.6927537418438  0.6375027538198 1.0
C      1  0.6181641578395  0.2981563834270  0.5422990609082 1.0
C      1  0.6145865443234  0.4243713667074  0.4533875738737 1.0
C      1  0.4538294428806  0.5601208126858  0.2611725821958 1.0
C      1  0.3278514523246  0.2067092957854  0.2180643770208 1.0
C      1  0.3761605837260  0.7366865595358  0.6801718728548 1.0
C      1  0.5927280239290  0.8080477146551  0.5481180084235 1.0
C      1  0.3401746787668  0.5304969968255  0.3750700629029 1.0
C      1  0.7165223284865  0.3079036482087  0.2195231512000 1.0
C      1  0.5043484518755  0.2297851560338  0.7731550548779 1.0
C      1  0.3276468705514  0.2110619902573  0.6474416183236 1.0
C      1  0.4025114232121  0.6717478429010  0.5079579475815 1.0
C      1  0.4236382152515  0.5838839808555  0.6695097790703 1.0
C      1  0.2552889404811  0.5992132343605  0.8139793321035 1.0
C      1  0.6020601924443  0.3571632050055  0.3063119797822 1.0
C      1  0.2320233492181  0.3991507527706  0.6882340991892 1.0
C      1  0.1882537377482  0.6443864479528  0.3207469363625 1.0
C      1  0.5040966875293  0.1776459327609  0.2379426971578 1.0
C      1  0.6353568941665  0.2462095141038  0.4558781103156 1.0
C      1  0.6433818272830  0.5149570757225  0.8363329820651 1.0
C      1  0.3651210776998  0.8569967347838  0.3624728402135 1.0
C      1  0.4516232206896  0.2323547730084  0.3205176353963 1.0
C      1  0.5939677562104  0.6853877234992  0.7910477086112 1.0
C      1  0.4105434880600  0.3240042897178  0.3334150012560 1.0
C      1  0.5894733495714  0.3381204027125  0.6912875461197 1.0
C      1  0.4540663086868  0.2695171999199  0.5385052290360 1.0
C      1  0.9222288988382  0.4952558683872  0.5873277623589 1.0
C      1  0.6578629117671  0.7746949190242  0.2408384590940 1.0
C      1  0.5159155332203  0.3858674806794  0.6365403431635 1.0
C      1  0.3780162693053  0.4162304094388  0.1865220213668 1.0
C      1  0.7246719101279  0.5178396898488  0.4802398639154 1.0
C      1  0.7920588738956  0.5374148157939  0.6412254354805 1.0
C      1  0.6757062485405  0.3578382555710  0.8278672799569 1.0
C      1  0.3752721614080  0.8496984186374  0.4583182786941 1.0
C      1  0.4879504481301  0.5701104075315  0.8326363763963 1.0
C      1  0.3045667584998  0.3452350590958  0.6541676631653 1.0
C      1  0.3144269091932  0.5035246052971  0.5187509522790 1.0
C      1  0.7788569860833  0.3599345835334  0.4486951508656 1.0
C      1  0.3014993623805  0.2028041108867  0.3812745999541 1.0
C      1  0.7362287124584  0.5782705136156  0.3971314995592 1.0
C      1  0.2448297338556  0.7501653663003  0.5360127384527 1.0
C      1  0.4331007545054  0.2736190874686  0.8234599140887 1.0
C      1  0.2194206314029  0.3121536817124  0.3162276065715 1.0
C      1  0.7558338370630  0.2903831275788  0.6532762566521 1.0
END
