TITL C-5073-9374-2 -5.695 3375.00 -971.69211019 0 0 118 () n - 1
REM
REM Run started: at 2020.12.25 07:05:29 in /gpfs/home/chem/mssmkc/CARBON/AIRSS/Generating-Clusters/Str-Search/Only-C1/C100-200
REM VASP from code version vasp.5.4.4.18Apr17-6-g9f103f2a35 (build Oct 11 2019 16:45:47) gamma-only
REM
REM
REM
REM
REM ./C.cell (efaf0b2bf1589a83377268d7ebe2c73f)
REM AIRSS Version 0.9.1 bugfix July 2018 build 013d7b7c2542+ Fri, 06 Jul 2018 19:26:36 +0100
REM compiler GCC version 6.3.0
REM options -cpp -iprefix /gpfs/warwick/csc/orac/software/Core/GCCcore/6.3.0/bin/../lib/gcc/x86_64-pc-linux-gnu/6.3.0/ -mtune=generic -march=x86-64 -g -O0
REM seed 1655352124 -1187779781 1290858793 -2033885155 -1490123013 -770935420 -1028790338 967051791 -349812366 816200211 -2126567043 -411855808
REM
REM C.POTCAR (d86ddea03c3ceb6dc662c8ad6801f873)
REM 
CELL 1.54180   15.00000   15.00000   15.00000   90.00000   90.00000   90.00000
LATT -1
SFAC C  
C      1  0.5447980616760  0.7834522596445  0.6067861858281 1.0
C      1  0.3708080871171  0.2811795153409  0.3211247483739 1.0
C      1  0.2747113191655  0.5597566527427  0.3943094105753 1.0
C      1  0.3614377513728  0.1949056179892  0.4445775632138 1.0
C      1  0.7604632843148  0.4987779125400  0.6533327670749 1.0
C      1  0.4748047179916  0.6394864154198  0.4630659890106 1.0
C      1  0.2519562220747  0.4304896565411  0.7774617845737 1.0
C      1  0.6492726709033  0.6796282325753  0.2851186500714 1.0
C      1  0.4607491104001  0.2510406230611  0.3449085898209 1.0
C      1  0.3737837746795  0.6541810778309  0.4869619075893 1.0
C      1  0.3552909812834  0.2529645943160  0.5992037061547 1.0
C      1  0.2545883837347  0.4872161392101  0.2511731324896 1.0
C      1  0.4729806340297  0.4103121349845  0.4512091252067 1.0
C      1  0.8142674225972  0.4984118666940  0.5736447474428 1.0
C      1  0.3216402296741  0.4252061280119  0.4987286307744 1.0
C      1  0.3475373380234  0.3658505362201  0.2856881458153 1.0
C      1  0.6286053430964  0.7095977255655  0.7186496634470 1.0
C      1  0.8022770596525  0.2660718592371  0.4838180147340 1.0
C      1  0.6102144560711  0.4754111163706  0.1863365420005 1.0
C      1  0.4626881229009  0.3554845233738  0.6618140920223 1.0
C      1  0.8124902705178  0.4250180111446  0.5097928465559 1.0
C      1  0.2637752868803  0.4035439194762  0.2637538205796 1.0
C      1  0.7505702191312  0.6238477108208  0.4091956332235 1.0
C      1  0.6230942389143  0.2451909348663  0.5317823604150 1.0
C      1  0.5540942909626  0.5258100098069  0.5890739827746 1.0
C      1  0.7413185415585  0.5508028992180  0.2096814296556 1.0
C      1  0.4657653213931  0.4725293341871  0.8706869809872 1.0
C      1  0.6049360054066  0.3150033034512  0.4705430933383 1.0
C      1  0.8306006972824  0.5773487628629  0.5260172387211 1.0
C      1  0.5734262621532  0.4357394050062  0.5752641917250 1.0
C      1  0.7129452478233  0.3670009386345  0.2972424916597 1.0
C      1  0.7945617427897  0.6605530524279  0.5512323097642 1.0
C      1  0.4204794376695  0.4398575473646  0.2826808969248 1.0
C      1  0.7721092799523  0.2636804862447  0.4059434954527 1.0
C      1  0.3177941307753  0.2078041002364  0.5269148880184 1.0
C      1  0.7323404633211  0.3320597218058  0.6193873904947 1.0
C      1  0.3199770666556  0.6550907000088  0.6900996343802 1.0
C      1  0.5448332345001  0.7534062027165  0.7009861151713 1.0
C      1  0.1650765372446  0.5234640225936  0.6021880138250 1.0
C      1  0.3787522607915  0.7322680253385  0.5525445689250 1.0
C      1  0.4219952541067  0.3192372548286  0.5870182900834 1.0
C      1  0.6504730184988  0.5604940385463  0.1871910536181 1.0
C      1  0.6670797754096  0.7482703717344  0.4885246549059 1.0
C      1  0.6664332399942  0.2536734072385  0.6165159103508 1.0
C      1  0.1789437636508  0.6091519099051  0.6372011026239 1.0
C      1  0.5151940093583  0.4725874658624  0.1824203387959 1.0
C      1  0.5046381607338  0.6709563262164  0.2264480133882 1.0
C      1  0.2545826206418  0.4980048389758  0.6426591116652 1.0
C      1  0.5624261724929  0.5784727846532  0.6698450996246 1.0
C      1  0.7223782153780  0.4106141136089  0.6794510888880 1.0
C      1  0.4753508052283  0.6093132024595  0.6531296303741 1.0
C      1  0.3024584666949  0.7067461925147  0.6142891304487 1.0
C      1  0.7552695259437  0.6668528381241  0.6358174611094 1.0
C      1  0.2602233196333  0.5305664853177  0.7960924013061 1.0
C      1  0.6663260120314  0.4075870351483  0.7524476065694 1.0
C      1  0.6450036982781  0.2010538578131  0.6892979454672 1.0
C      1  0.4142191399119  0.6572666391915  0.7126020937799 1.0
C      1  0.4214302728450  0.3777138907710  0.7457372029216 1.0
C      1  0.3435096519691  0.6343699526265  0.2758390729328 1.0
C      1  0.5626969174772  0.3947424808467  0.4884328681464 1.0
C      1  0.2116521136508  0.6508931935105  0.4840481292351 1.0
C      1  0.5993601517093  0.6408765527910  0.2137275578826 1.0
C      1  0.4408859479046  0.4808988602597  0.3855437219478 1.0
C      1  0.2494059826149  0.4027628759139  0.6812975689847 1.0
C      1  0.8113466865504  0.5574517572092  0.4334860322219 1.0
C      1  0.6705794099512  0.6110997950169  0.3556755665724 1.0
C      1  0.5761493151192  0.4102943727919  0.7509225864333 1.0
C      1  0.5616660816903  0.3410056872776  0.2508183482580 1.0
C      1  0.4643390645880  0.7276341736241  0.7334982422509 1.0
C      1  0.7824190631712  0.5014810292862  0.2630285123651 1.0
C      1  0.4920267232657  0.4140157098919  0.8045048540586 1.0
C      1  0.5027303673847  0.7439633600049  0.4542751726476 1.0
C      1  0.7894993683882  0.3378050947640  0.5436827204065 1.0
C      1  0.3526387881680  0.5038731909900  0.4368254791904 1.0
C      1  0.6906904445880  0.7360233657865  0.6502768408230 1.0
C      1  0.5087256726259  0.7393710156953  0.2948472706776 1.0
C      1  0.4910569761168  0.3960904359484  0.2290028202842 1.0
C      1  0.7793859994707  0.4345782772245  0.3277476202635 1.0
C      1  0.8067204274650  0.4608752764913  0.4194582664190 1.0
C      1  0.6395205487286  0.7710498600939  0.5784796068067 1.0
C      1  0.3907583965028  0.5114609497874  0.8851385255383 1.0
C      1  0.2806570528394  0.5631258810007  0.2946400521196 1.0
C      1  0.6098897992327  0.2594480754473  0.3828935151375 1.0
C      1  0.6135055689175  0.1582275212686  0.7558128278341 1.0
C      1  0.4753310732569  0.5808663447083  0.5541395995414 1.0
C      1  0.5974953991614  0.7555733775549  0.4246870705581 1.0
C      1  0.3096904325801  0.2284591851596  0.3732765713908 1.0
C      1  0.5972897994610  0.7439616662089  0.3314698654511 1.0
C      1  0.5468018581554  0.3964277323238  0.6592862813731 1.0
C      1  0.5443858339744  0.2790997716792  0.3166442681151 1.0
C      1  0.1698081516949  0.4917153969349  0.5130850433409 1.0
C      1  0.2206186969493  0.3490694018291  0.5991580352454 1.0
C      1  0.2939450829776  0.6559578380993  0.4241562123447 1.0
C      1  0.3254672368084  0.4947137515115  0.5759738648339 1.0
C      1  0.4387877196868  0.5213343730918  0.2148125488937 1.0
C      1  0.3786155832510  0.5577224651266  0.5239440982214 1.0
C      1  0.3277343675450  0.3851585396640  0.7499497778993 1.0
C      1  0.4646338070479  0.2027904507618  0.4277233932274 1.0
C      1  0.3268679492686  0.7032571948476  0.3418193306575 1.0
C      1  0.6422504884095  0.3919058236800  0.2354852151614 1.0
C      1  0.2648309482887  0.2656655784115  0.5866896881647 1.0
C      1  0.5064435671860  0.5645288865519  0.3960662790144 1.0
C      1  0.7036675536818  0.2838878452918  0.3498515105631 1.0
C      1  0.4244399325070  0.6143045651099  0.2249215753246 1.0
C      1  0.3605614528334  0.7874859000334  0.3684317700412 1.0
C      1  0.5944969375922  0.5681310867996  0.3781052946068 1.0
C      1  0.6377867675308  0.6125928031550  0.7175393422715 1.0
C      1  0.7458592222855  0.6960033399312  0.4754770911686 1.0
C      1  0.2242762217276  0.4065771408968  0.5168834002470 1.0
C      1  0.5610943677691  0.2052195469370  0.4576603669816 1.0
C      1  0.1923967897405  0.5614984475666  0.4540297013946 1.0
C      1  0.4086606641719  0.3721530225426  0.5045254414732 1.0
C      1  0.4509360309024  0.7668276392074  0.3665742894616 1.0
C      1  0.4698879290687  0.7689454614905  0.5476935160065 1.0
C      1  0.7280407310397  0.5857481342455  0.6817073146468 1.0
C      1  0.2538057033533  0.5823918881385  0.7075969007517 1.0
C      1  0.2167244708166  0.6736857250455  0.5761338216996 1.0
C      1  0.3183097318734  0.5549149011251  0.8609850257580 1.0
END
