TITL C-5073-9374-43 -8.846 3375.00 -1474.66341713 0 0 180 () n - 1
REM
REM Run started: at 2020.12.26 22:18:50 in /gpfs/home/chem/mssmkc/CARBON/AIRSS/Generating-Clusters/Str-Search/Only-C1/C100-200
REM VASP from code version vasp.5.4.4.18Apr17-6-g9f103f2a35 (build Oct 11 2019 16:45:47) gamma-only
REM
REM
REM
REM
REM ./C.cell (efaf0b2bf1589a83377268d7ebe2c73f)
REM AIRSS Version 0.9.1 bugfix July 2018 build 013d7b7c2542+ Fri, 06 Jul 2018 19:26:36 +0100
REM compiler GCC version 6.3.0
REM options -cpp -iprefix /gpfs/warwick/csc/orac/software/Core/GCCcore/6.3.0/bin/../lib/gcc/x86_64-pc-linux-gnu/6.3.0/ -mtune=generic -march=x86-64 -g -O0
REM seed -1142183334 301985045 -882399485 -298740605 395147917 -171677960 129854483 -254243374 189881559 -612810888 152418367 496283507
REM
REM C.POTCAR (d86ddea03c3ceb6dc662c8ad6801f873)
REM 
CELL 1.54180   15.00000   15.00000   15.00000   90.00000   90.00000   90.00000
LATT -1
SFAC C  
C      1  0.4519650738449  0.2967829981403  0.3660865290026 1.0
C      1  0.2907910840918  0.1954908663918  0.4813799509214 1.0
C      1  0.2820853333536  0.2973606845162  0.6267694243558 1.0
C      1  0.4242653961325  0.4931227573944  0.4474225308595 1.0
C      1  0.6811137165150  0.3291540125188  0.6348657415448 1.0
C      1  0.2939758922702  0.4962792042142  0.7167917960980 1.0
C      1  0.5775162344657  0.8711639560812  0.4709756611086 1.0
C      1  0.4964329518963  0.3725887636655  0.5258870036115 1.0
C      1  0.2046351043406  0.5110876981292  0.6659254923578 1.0
C      1  0.7673068350656  0.4703366509568  0.2123355561594 1.0
C      1  0.5753064961444  0.8457880891129  0.5801461045965 1.0
C      1  0.7377904875985  0.2764035739068  0.2999010052551 1.0
C      1  0.6603970102241  0.7849318220373  0.5799859901414 1.0
C      1  0.3730371457957  0.1640919165893  0.4422854706132 1.0
C      1  0.5856019031458  0.4725140985612  0.2971065114851 1.0
C      1  0.4064796155549  0.3292860055029  0.8546012358893 1.0
C      1  0.5407173379878  0.7027143179412  0.2688744551692 1.0
C      1  0.4383238070195  0.2307045501657  0.2818535860800 1.0
C      1  0.4745051290179  0.5716698041469  0.1364806418793 1.0
C      1  0.4496857462514  0.6438808713045  0.5209979527219 1.0
C      1  0.6839503553874  0.7961070479133  0.3535987801084 1.0
C      1  0.2808596741210  0.6021985487500  0.1938727792716 1.0
C      1  0.6128059187760  0.4863180849282  0.5771976434493 1.0
C      1  0.5135329184393  0.6364614618713  0.4402011821339 1.0
C      1  0.8236321301891  0.5772640233506  0.3269665748864 1.0
C      1  0.3923268086764  0.2648440679943  0.7876197194781 1.0
C      1  0.7645384551934  0.5733880244562  0.6250433943405 1.0
C      1  0.1492079159892  0.5987537195247  0.5071140891636 1.0
C      1  0.4207540408869  0.6948134271876  0.7492299295447 1.0
C      1  0.3934121424103  0.6074711648593  0.7984605030600 1.0
C      1  0.3351147812536  0.5282765978499  0.4917668474173 1.0
C      1  0.3023768264755  0.4099254950381  0.7724030726616 1.0
C      1  0.3874720145389  0.5320019318398  0.1164016511648 1.0
C      1  0.4986700647033  0.1043324298630  0.3328405533985 1.0
C      1  0.3384252366999  0.4455221520512  0.5589672259495 1.0
C      1  0.3659895170599  0.3567131110796  0.3812766300122 1.0
C      1  0.6114183133552  0.8612706694774  0.7349490443634 1.0
C      1  0.4103215352170  0.3809531619499  0.6834735685155 1.0
C      1  0.6773386336794  0.7054151031767  0.7112693139395 1.0
C      1  0.7877922569689  0.3348488601801  0.3558961791199 1.0
C      1  0.7648552662727  0.2482881556074  0.5221894568911 1.0
C      1  0.2440689385592  0.7971765258285  0.6092484257350 1.0
C      1  0.6557150189632  0.3195308502633  0.4681582750416 1.0
C      1  0.6216629310439  0.2102840529950  0.7385795068841 1.0
C      1  0.6075445018239  0.5994749010074  0.5971594278518 1.0
C      1  0.2494639076014  0.5071148476933  0.1831295346584 1.0
C      1  0.8218454418271  0.4887869693643  0.2872431108536 1.0
C      1  0.4205721608315  0.5071368760906  0.3491171524014 1.0
C      1  0.5989804059778  0.7647059482961  0.7569607119907 1.0
C      1  0.3344608746698  0.3215561234070  0.7160751106255 1.0
C      1  0.1702355801378  0.3113686444046  0.4516847826494 1.0
C      1  0.3466347580707  0.7632934219244  0.3727406307505 1.0
C      1  0.7605138839200  0.6486199884282  0.3060636859127 1.0
C      1  0.6103023739901  0.2580729180026  0.3992825021500 1.0
C      1  0.8003005398096  0.7292111611129  0.5979891449317 1.0
C      1  0.6024482381151  0.8996508973481  0.6616861220133 1.0
C      1  0.8400205732136  0.5661425270127  0.4208662362257 1.0
C      1  0.5602312230360  0.1245481043722  0.5863437713865 1.0
C      1  0.6723220164632  0.8469295034391  0.4372338480660 1.0
C      1  0.3919680982370  0.6083175780764  0.3323233023679 1.0
C      1  0.5536174250509  0.2410684163738  0.8037365254367 1.0
C      1  0.7590892294839  0.3143346001975  0.4479546776225 1.0
C      1  0.3360366845736  0.7314716552573  0.7211029777348 1.0
C      1  0.2602836490579  0.3772710854249  0.5759921417136 1.0
C      1  0.3632492269882  0.6267962459766  0.4961976790173 1.0
C      1  0.5464903223312  0.3402810252029  0.3726097990796 1.0
C      1  0.3633927015484  0.4355702538614  0.3110206838199 1.0
C      1  0.4931620803769  0.6507148376308  0.6911787587624 1.0
C      1  0.3126295056807  0.5898758396271  0.2791093486743 1.0
C      1  0.5232683471244  0.5588653336189  0.7369524056331 1.0
C      1  0.7706368636994  0.4827352440272  0.6023486953344 1.0
C      1  0.6774773933164  0.2158619323621  0.3399235377672 1.0
C      1  0.4973553316165  0.3641524395933  0.6598067950303 1.0
C      1  0.7586857163661  0.7293478178157  0.3582128460315 1.0
C      1  0.5525669491884  0.3752984032255  0.1704788780536 1.0
C      1  0.6339217557231  0.6491305409646  0.8749238930561 1.0
C      1  0.4068448131579  0.4023445172019  0.4850715416060 1.0
C      1  0.5964578841139  0.2122649281193  0.2247756951080 1.0
C      1  0.3998254514714  0.8273568375747  0.5972445063973 1.0
C      1  0.4711266002093  0.5180034203707  0.6435969784080 1.0
C      1  0.8237453433285  0.3412661212251  0.5233348143768 1.0
C      1  0.3569821433871  0.4122264358223  0.8464237939864 1.0
C      1  0.5510317568036  0.1967604823557  0.4594333201296 1.0
C      1  0.5634758889490  0.0977734189899  0.4777403347898 1.0
C      1  0.6798367929774  0.6059619373708  0.2746443497348 1.0
C      1  0.4947318638526  0.1340042921442  0.7173437220638 1.0
C      1  0.1720117615587  0.3861769250165  0.2817922106508 1.0
C      1  0.4352945833968  0.6655391650393  0.1477986239238 1.0
C      1  0.1655787600897  0.5458629238601  0.4213578320117 1.0
C      1  0.1795612108944  0.7287905631179  0.6162676875327 1.0
C      1  0.6878815053743  0.4325827539463  0.6349742751007 1.0
C      1  0.6302929700652  0.6840740291626  0.5421186584798 1.0
C      1  0.1901627209076  0.4474450536677  0.4428061008506 1.0
C      1  0.4549454072388  0.2157653003056  0.4324601737889 1.0
C      1  0.6599622101067  0.5259245864622  0.3304964089805 1.0
C      1  0.2723823010885  0.3145960124842  0.3699949974224 1.0
C      1  0.8338327020664  0.4727134358820  0.4431003350892 1.0
C      1  0.5325502549351  0.9381427539043  0.4045237811332 1.0
C      1  0.3270932541657  0.4614956213367  0.1517976433164 1.0
C      1  0.6675408713208  0.2697255994574  0.5552327242157 1.0
C      1  0.5072422134662  0.7458218922548  0.7103185670861 1.0
C      1  0.3881943498024  0.8395826778095  0.4160150058760 1.0
C      1  0.5966543663714  0.4633506453937  0.1935456846544 1.0
C      1  0.5871241422071  0.1335450834737  0.6916228909936 1.0
C      1  0.2641086053268  0.8150477920878  0.5178932428162 1.0
C      1  0.8147722213019  0.7238999713912  0.4389506421563 1.0
C      1  0.6503795013150  0.3611788323161  0.7890209054432 1.0
C      1  0.6036285600911  0.6301564223554  0.2222174779931 1.0
C      1  0.3782600745429  0.4715825933042  0.6518894960786 1.0
C      1  0.6567522082982  0.5619728242155  0.8498975845442 1.0
C      1  0.5583318487942  0.5575104680612  0.1746689333787 1.0
C      1  0.2663327783489  0.6700416108242  0.7405612456752 1.0
C      1  0.1551135841724  0.5869351931973  0.6745574856783 1.0
C      1  0.5767612426180  0.2218966186527  0.5563535593016 1.0
C      1  0.7993746959337  0.7792330246402  0.5150407418014 1.0
C      1  0.4681704328029  0.2039883957687  0.7796018905665 1.0
C      1  0.4911677693356  0.3747559297893  0.8663839123905 1.0
C      1  0.6027542580064  0.3000333491954  0.1870148941023 1.0
C      1  0.5159111285228  0.5280298063002  0.3395223648899 1.0
C      1  0.4960536228408  0.6080470307430  0.6026759045857 1.0
C      1  0.4875309030275  0.8066945458362  0.6234943284991 1.0
C      1  0.5865301145481  0.6950837892375  0.4654763633351 1.0
C      1  0.3500266596406  0.6216932383356  0.1306781491796 1.0
C      1  0.1786504233412  0.3752917505243  0.3756687942891 1.0
C      1  0.5281387571797  0.8776888940499  0.3174572719972 1.0
C      1  0.4052321709537  0.2953118298348  0.2116233741959 1.0
C      1  0.5402943172748  0.0414132173149  0.4073492824007 1.0
C      1  0.6758523619355  0.5190347299234  0.4194329328290 1.0
C      1  0.6039229471579  0.4813128037656  0.4750089331930 1.0
C      1  0.4612778227812  0.5412849489570  0.8124948904165 1.0
C      1  0.8151866557317  0.6401058365287  0.5757972143928 1.0
C      1  0.1439664713260  0.5554511763892  0.3239273121380 1.0
C      1  0.6946149186696  0.4582256759861  0.1760398727817 1.0
C      1  0.2122637510827  0.7531818451167  0.4647559515858 1.0
C      1  0.4396781441311  0.2224088800926  0.6131823587948 1.0
C      1  0.8478347766665  0.2646005732182  0.5718233498392 1.0
C      1  0.5825783448291  0.7813369190871  0.4239698844620 1.0
C      1  0.4599501940359  0.3591623765727  0.1790974997009 1.0
C      1  0.2632001356464  0.5098704377015  0.4215038349964 1.0
C      1  0.6103092130131  0.7218815788056  0.8442357292152 1.0
C      1  0.4923495356935  0.6346713688933  0.3364246941981 1.0
C      1  0.6256572360928  0.5436142234030  0.7517055941248 1.0
C      1  0.4126171722471  0.1513530730804  0.3546864351364 1.0
C      1  0.2923435309838  0.2149967907654  0.5771296788602 1.0
C      1  0.8379434481276  0.6385616649047  0.4784874236109 1.0
C      1  0.3258212630276  0.7970964903145  0.6560497076767 1.0
C      1  0.3072056176257  0.5868518327427  0.7707443754930 1.0
C      1  0.5208038431773  0.1697594965288  0.2662475084307 1.0
C      1  0.6735629503685  0.6079570146992  0.6825347654384 1.0
C      1  0.1840363394217  0.6742601366735  0.6936308969982 1.0
C      1  0.7211043048942  0.8255226547881  0.5131035068859 1.0
C      1  0.5049777293596  0.2886194072108  0.5913528865098 1.0
C      1  0.8201752277241  0.4389903499703  0.5310960422922 1.0
C      1  0.1893336442720  0.3819066858323  0.5169511307133 1.0
C      1  0.5825363496732  0.7889942814996  0.3218326806296 1.0
C      1  0.2836110994381  0.5009804893382  0.3227833415848 1.0
C      1  0.2672046442154  0.7244419831535  0.3924908706398 1.0
C      1  0.4683277286071  0.7259155543111  0.2037834122193 1.0
C      1  0.3547540551798  0.8439636650194  0.5073375233177 1.0
C      1  0.1533385522967  0.5498902493572  0.5892550854269 1.0
C      1  0.6824700324666  0.2620643557403  0.2221225490548 1.0
C      1  0.4449264476507  0.4622771928349  0.8574781195869 1.0
C      1  0.1989225520625  0.4807961933688  0.2681081603524 1.0
C      1  0.4613139075012  0.1260850579186  0.6269755442728 1.0
C      1  0.6685623544152  0.2921967667075  0.7177557543148 1.0
C      1  0.3443305522506  0.6645397672120  0.4047033036685 1.0
C      1  0.7055727621895  0.4911569171800  0.8805331074012 1.0
C      1  0.5217063439654  0.5325668315842  0.4425135951197 1.0
C      1  0.5242164831482  0.4431412315069  0.6044442505201 1.0
C      1  0.1633389688440  0.6933336407410  0.5236767211267 1.0
C      1  0.7250559490827  0.7552432499645  0.6521013061735 1.0
C      1  0.8277875273592  0.4223659634841  0.3564615118792 1.0
C      1  0.3742859460241  0.3955603112013  0.2136900459689 1.0
C      1  0.6666900357020  0.4534241399996  0.7327020667395 1.0
C      1  0.7142807799848  0.4278923446025  0.8160262154529 1.0
C      1  0.2368711143680  0.2475601796877  0.4268610174370 1.0
C      1  0.3701827954666  0.1707279352562  0.6121980586567 1.0
C      1  0.5670353704175  0.3304654077439  0.8328251816691 1.0
C      1  0.5756530204652  0.3830733457225  0.4594765186894 1.0
C      1  0.4539355902536  0.8875216407364  0.3717737403953 1.0
END
