TITL C-5073-9374-27 -8.443 3375.00 -1465.18094055 0 0 179 () n - 1
REM
REM Run started: at 2020.12.26 06:18:27 in /gpfs/home/chem/mssmkc/CARBON/AIRSS/Generating-Clusters/Str-Search/Only-C1/C100-200
REM VASP from code version vasp.5.4.4.18Apr17-6-g9f103f2a35 (build Oct 11 2019 16:45:47) gamma-only
REM
REM
REM
REM
REM ./C.cell (efaf0b2bf1589a83377268d7ebe2c73f)
REM AIRSS Version 0.9.1 bugfix July 2018 build 013d7b7c2542+ Fri, 06 Jul 2018 19:26:36 +0100
REM compiler GCC version 6.3.0
REM options -cpp -iprefix /gpfs/warwick/csc/orac/software/Core/GCCcore/6.3.0/bin/../lib/gcc/x86_64-pc-linux-gnu/6.3.0/ -mtune=generic -march=x86-64 -g -O0
REM seed -516549826 -146482427 -569766200 26374531 2009830190 792976918 1908893055 -1517677385 1143062871 1158675457 1441057359 997993441
REM
REM C.POTCAR (d86ddea03c3ceb6dc662c8ad6801f873)
REM 
CELL 1.54180   15.00000   15.00000   15.00000   90.00000   90.00000   90.00000
LATT -1
SFAC C  
C      1  0.2438620380954  0.7206501489904  0.6844418231047 1.0
C      1  0.6173572160847  0.6972859147160  0.3261868103174 1.0
C      1  0.2377993951521  0.4217671591213  0.5619888050347 1.0
C      1  0.1348831404394  0.4844793286036  0.7028670297796 1.0
C      1  0.6972620446197  0.5809057878974  0.1346410824056 1.0
C      1  0.4362371890539  0.1726436752403  0.7268287275374 1.0
C      1  0.3134358607093  0.7750895395585  0.6515112911857 1.0
C      1  0.5570928508305  0.8348402758398  0.6352549852906 1.0
C      1  0.8108283379278  0.4824777990226  0.3969294248931 1.0
C      1  0.7354619735301  0.2108186215776  0.4841214655368 1.0
C      1  0.5194141485920  0.1368346759367  0.4072685763610 1.0
C      1  0.8770384921949  0.3037706809115  0.5302279306263 1.0
C      1  0.4153739629549  0.8861639825255  0.4709581687069 1.0
C      1  0.1744579488499  0.4154110416977  0.7279150773466 1.0
C      1  0.4125296536427  0.3115632518907  0.4546135366713 1.0
C      1  0.4499290981324  0.1549422836908  0.6414472616712 1.0
C      1  0.2359342773459  0.2080079223702  0.5714027646265 1.0
C      1  0.8415060742182  0.5621083880312  0.5331207678389 1.0
C      1  0.3476450560287  0.4043262798471  0.1540600497549 1.0
C      1  0.6915162792338  0.4561461149147  0.7279040913651 1.0
C      1  0.8227211576727  0.4711453863391  0.2999464756314 1.0
C      1  0.4175243296978  0.2951326954267  0.3545245830745 1.0
C      1  0.4877625389352  0.3571522756291  0.3150175969980 1.0
C      1  0.2816085651077  0.1472902399636  0.4203587895768 1.0
C      1  0.6105246581762  0.7652411952293  0.3930871147552 1.0
C      1  0.6262683278527  0.6028520738763  0.8391735208537 1.0
C      1  0.6093638492325  0.2504162645673  0.2637710900598 1.0
C      1  0.7583223181299  0.4270680307214  0.1697243797705 1.0
C      1  0.4864004877470  0.1748421893157  0.8078527701134 1.0
C      1  0.5610768356925  0.4438151832566  0.6152612272292 1.0
C      1  0.7879340376291  0.3963239494026  0.4346200274019 1.0
C      1  0.5584231213522  0.3251622618866  0.2728977541035 1.0
C      1  0.2889114486530  0.4333304725911  0.4675847904918 1.0
C      1  0.4783128540482  0.5827749537854  0.5572042128851 1.0
C      1  0.8143378164693  0.3159001596258  0.3930711453355 1.0
C      1  0.3313539958347  0.8536051680375  0.4276953019556 1.0
C      1  0.4656874312758  0.6256717910755  0.1520926019239 1.0
C      1  0.5389493400705  0.8906426351463  0.3381158615122 1.0
C      1  0.4045765512746  0.8630201365254  0.5622905013825 1.0
C      1  0.8950717207412  0.4050258845724  0.6236588536433 1.0
C      1  0.3720822935687  0.5844435232114  0.8300928060668 1.0
C      1  0.3811857609999  0.4047142317710  0.5006930807122 1.0
C      1  0.1857600085296  0.4140360124247  0.2293032707827 1.0
C      1  0.5595710398661  0.5332368995965  0.5775534377175 1.0
C      1  0.7612896256807  0.6099091749037  0.4918805123670 1.0
C      1  0.1020393086500  0.4105210492387  0.2016070417908 1.0
C      1  0.6760746558362  0.2112561798278  0.4073270860392 1.0
C      1  0.6812840138488  0.6546545895411  0.2769319337075 1.0
C      1  0.7428815531645  0.5601728943860  0.4023195971191 1.0
C      1  0.2689408279829  0.8131820656132  0.4914710689926 1.0
C      1  0.2815111579193  0.3947732304105  0.2157602479551 1.0
C      1  0.8196908992548  0.2572143837589  0.4699046494202 1.0
C      1  0.5418462660694  0.4124351239097  0.7809071535849 1.0
C      1  0.4593063910543  0.5473650391819  0.8464680880530 1.0
C      1  0.7361082280104  0.3921936476164  0.0867015921949 1.0
C      1  0.4630521777979  0.6825055945427  0.3329623080010 1.0
C      1  0.6811360922821  0.2011559472680  0.5657804843857 1.0
C      1  0.8690311368982  0.3114925572077  0.6269273613399 1.0
C      1  0.3289498656394  0.6248974255207  0.2468003340080 1.0
C      1  0.5748738064315  0.3143073238730  0.7659594543033 1.0
C      1  0.3497913733816  0.2501233401816  0.3173476700054 1.0
C      1  0.4094268739602  0.5749609276303  0.6270912737977 1.0
C      1  0.2143330248900  0.7393236855709  0.4702846994153 1.0
C      1  0.7780214113069  0.7995821978259  0.3443959292787 1.0
C      1  0.4137916937279  0.4576947034797  0.1516066319471 1.0
C      1  0.6985657529570  0.2508131755421  0.6430009197885 1.0
C      1  0.6481540233128  0.6394820568318  0.1856873670432 1.0
C      1  0.2322620072190  0.5940354938455  0.7611286346373 1.0
C      1  0.2458549611004  0.3856730965472  0.3832939253279 1.0
C      1  0.5517523087142  0.6755681518893  0.1763834998418 1.0
C      1  0.3158494540605  0.8250280793980  0.5746685558845 1.0
C      1  0.7123564112403  0.7444703700119  0.6426767890928 1.0
C      1  0.5386989174617  0.7830283534557  0.4497184883248 1.0
C      1  0.4709314272438  0.4464674285708  0.3660730578094 1.0
C      1  0.4972617519580  0.8688236246322  0.4247849512927 1.0
C      1  0.6269676800928  0.5245325408324  0.5081776218037 1.0
C      1  0.6550883584427  0.5152469024794  0.8738683032887 1.0
C      1  0.6100371396814  0.6183238259352  0.5982078356586 1.0
C      1  0.8741107015472  0.4872591935988  0.4810634398697 1.0
C      1  0.7252975040508  0.3827336699211  0.5918894054014 1.0
C      1  0.4926960763294  0.4197604442634  0.6865253447338 1.0
C      1  0.5347858517996  0.5268688700362  0.3703145044846 1.0
C      1  0.4908552086118  0.7147714792448  0.5044977610385 1.0
C      1  0.3873782933621  0.3944442781733  0.5986937829285 1.0
C      1  0.7205525369928  0.3968406107399  0.5025977430464 1.0
C      1  0.5143637286561  0.7002228722454  0.7943711569026 1.0
C      1  0.3072978432642  0.5231005838136  0.4178042210714 1.0
C      1  0.3020512602380  0.5373674543971  0.7845444133972 1.0
C      1  0.7878691899704  0.5981983822457  0.6970073507789 1.0
C      1  0.1803414383918  0.6692697607772  0.6310843960424 1.0
C      1  0.2120239309016  0.6857924342653  0.3860508946411 1.0
C      1  0.7668841331641  0.3119242635839  0.3099341368607 1.0
C      1  0.4815171537735  0.6108817297376  0.3894412315519 1.0
C      1  0.7103183795683  0.4308283039266  0.0148718336882 1.0
C      1  0.5157621852305  0.7740549634671  0.2060884562343 1.0
C      1  0.7486410548133  0.7500329458445  0.5578520662518 1.0
C      1  0.5485630507460  0.2991178691237  0.5857989460160 1.0
C      1  0.5530248543676  0.3872402229261  0.5256283579046 1.0
C      1  0.2650520778634  0.6807572683180  0.7676936185794 1.0
C      1  0.3902617832873  0.6775830351333  0.1834469247331 1.0
C      1  0.4652097493952  0.8335297033764  0.6320925953598 1.0
C      1  0.3823488447755  0.5487681121946  0.2626278080253 1.0
C      1  0.5629142268855  0.1684761056478  0.2572104194015 1.0
C      1  0.2074407605517  0.4568040288627  0.3218612711583 1.0
C      1  0.5573533438586  0.8483962575309  0.2584273834030 1.0
C      1  0.3264433930792  0.3549829765977  0.7977676298049 1.0
C      1  0.4246412692103  0.7284150592848  0.7762784813782 1.0
C      1  0.4066796749134  0.4750596017331  0.6652301755201 1.0
C      1  0.9047419947804  0.4068600540567  0.5270193870428 1.0
C      1  0.3619335644190  0.1519999993595  0.4810925016674 1.0
C      1  0.6245201537252  0.5111989883135  0.4107793922556 1.0
C      1  0.2713341188449  0.3848238399876  0.7200297471689 1.0
C      1  0.2708748375802  0.2254512158313  0.3631348600832 1.0
C      1  0.7855274770527  0.3928346216832  0.2543799594064 1.0
C      1  0.4183267220080  0.7626448269936  0.2115766693202 1.0
C      1  0.3427394333540  0.5866972202771  0.4855593699059 1.0
C      1  0.2107021437444  0.2940222652271  0.3890139031212 1.0
C      1  0.5311429285433  0.6147861070548  0.8379660140475 1.0
C      1  0.1832200414724  0.5716296522445  0.6759659752039 1.0
C      1  0.8062346012678  0.5519849078608  0.2562294012168 1.0
C      1  0.1643118800657  0.6795550727921  0.5386463627259 1.0
C      1  0.4667524667001  0.4492216908700  0.8407470537557 1.0
C      1  0.7610007294351  0.5282398888686  0.1738994608198 1.0
C      1  0.5363812576701  0.6970320875028  0.2746840576882 1.0
C      1  0.6818936221162  0.5915828105894  0.5454889217150 1.0
C      1  0.5285562026506  0.1164566551860  0.3137558552196 1.0
C      1  0.7953696721382  0.7180103014418  0.3824773127247 1.0
C      1  0.2970367703756  0.3575149442462  0.6215643714921 1.0
C      1  0.8581131491048  0.4775516824861  0.6700995384785 1.0
C      1  0.0862218349942  0.3755798181466  0.4795360741226 1.0
C      1  0.3528901836366  0.6781863260827  0.8108431467911 1.0
C      1  0.3732992118507  0.4844259522050  0.3396264341463 1.0
C      1  0.5882378403505  0.1883358168663  0.4414043439804 1.0
C      1  0.3186089855636  0.2602460307084  0.5996171290218 1.0
C      1  0.3245595774574  0.5706783323199  0.5738065192917 1.0
C      1  0.6304343372470  0.4605499227213  0.7951934160968 1.0
C      1  0.6922021850694  0.2503354487947  0.3204799930680 1.0
C      1  0.5369717359450  0.2435387489160  0.8060945697351 1.0
C      1  0.7649588996676  0.6232513278289  0.3224849284539 1.0
C      1  0.4378157136319  0.6232205369831  0.4758001231357 1.0
C      1  0.2659346157438  0.1381660040114  0.5095553926327 1.0
C      1  0.1258426783195  0.6023342348260  0.4952073785851 1.0
C      1  0.7786052280627  0.5016461992700  0.7204708132431 1.0
C      1  0.3453504866688  0.8108844480885  0.3516716165094 1.0
C      1  0.3047463890724  0.4167193275505  0.3086862247981 1.0
C      1  0.6340816483426  0.4292792129668  0.4737604137976 1.0
C      1  0.6513540096931  0.4055445050504  0.6510485374588 1.0
C      1  0.3137981488547  0.4778739516287  0.7073934417695 1.0
C      1  0.3723435295573  0.2485355834407  0.5096818585574 1.0
C      1  0.7748351142376  0.7084900566315  0.4790265764950 1.0
C      1  0.1702175716764  0.2658938581760  0.5442819600408 1.0
C      1  0.7254615362840  0.8616874914589  0.3224494212617 1.0
C      1  0.6853530563422  0.4847373925030  0.9515905566264 1.0
C      1  0.2573849278537  0.6363295995425  0.3131728456594 1.0
C      1  0.4483599731151  0.6694820286623  0.6505683632213 1.0
C      1  0.5977759838467  0.7315832452428  0.7567384984793 1.0
C      1  0.6663304913179  0.6696641830618  0.7810633738078 1.0
C      1  0.6175549591069  0.3085915946077  0.6714692933334 1.0
C      1  0.7365306386423  0.6731351484106  0.7142039426701 1.0
C      1  0.7741323403921  0.3096799820102  0.6362960806887 1.0
C      1  0.4023262281007  0.2418840002149  0.6613768968451 1.0
C      1  0.2237148260204  0.5486533352858  0.3576588436947 1.0
C      1  0.6209091356462  0.7807091691044  0.6765760247252 1.0
C      1  0.6294107850966  0.8473549125835  0.3290349205622 1.0
C      1  0.4459935311944  0.5357290713652  0.1867093033461 1.0
C      1  0.4690380545407  0.4015786127932  0.4630747248330 1.0
C      1  0.5244083156092  0.6724692534230  0.5865052141654 1.0
C      1  0.2577379202629  0.5151797609146  0.6216259498376 1.0
C      1  0.4573070813167  0.1191565307443  0.4824583556044 1.0
C      1  0.4585011560398  0.3279861146594  0.6371086961812 1.0
C      1  0.1397658992527  0.2941281189966  0.4573298395313 1.0
C      1  0.5015234023547  0.1385185718012  0.5622391092757 1.0
C      1  0.8472838828499  0.5635575444536  0.6262957710594 1.0
C      1  0.1537674185072  0.3650068148091  0.5470282984876 1.0
C      1  0.5808310684171  0.2007036451811  0.5411715512169 1.0
C      1  0.3896771384249  0.3954945053322  0.8349621343150 1.0
C      1  0.1639981542262  0.6050260972468  0.4131264971416 1.0
C      1  0.4083414204522  0.7620580834856  0.6831365040853 1.0
C      1  0.3994206790307  0.7583277671880  0.3091664008147 1.0
END
