TITL C-5073-9374-31 -5.51 3375.00 -944.30431203 0 0 116 () n - 1
REM
REM Run started: at 2020.12.26 08:42:44 in /gpfs/home/chem/mssmkc/CARBON/AIRSS/Generating-Clusters/Str-Search/Only-C1/C100-200
REM VASP from code version vasp.5.4.4.18Apr17-6-g9f103f2a35 (build Oct 11 2019 16:45:47) gamma-only
REM
REM
REM
REM
REM ./C.cell (efaf0b2bf1589a83377268d7ebe2c73f)
REM AIRSS Version 0.9.1 bugfix July 2018 build 013d7b7c2542+ Fri, 06 Jul 2018 19:26:36 +0100
REM compiler GCC version 6.3.0
REM options -cpp -iprefix /gpfs/warwick/csc/orac/software/Core/GCCcore/6.3.0/bin/../lib/gcc/x86_64-pc-linux-gnu/6.3.0/ -mtune=generic -march=x86-64 -g -O0
REM seed -1043375227 -72283541 -1847985569 33849632 1118408380 -1288488716 -1640967159 -1196884343 123674221 1122143407 320819471 -1220086276
REM
REM C.POTCAR (d86ddea03c3ceb6dc662c8ad6801f873)
REM 
CELL 1.54180   15.00000   15.00000   15.00000   90.00000   90.00000   90.00000
LATT -1
SFAC C  
C      1  0.7468337882738  0.6158812787230  0.6222558500491 1.0
C      1  0.6008297629738  0.4019624861915  0.5862955361857 1.0
C      1  0.6178050364999  0.5926491873209  0.4056289188515 1.0
C      1  0.7917840893574  0.5500358682526  0.3563133951416 1.0
C      1  0.4185805100532  0.4040145107347  0.7925646386180 1.0
C      1  0.2999057455495  0.3372461741075  0.4205665270499 1.0
C      1  0.3169758044403  0.7604356168376  0.4079340118756 1.0
C      1  0.7677285050482  0.6262560735667  0.5139382759566 1.0
C      1  0.4664507791309  0.4650972500456  0.3332489111661 1.0
C      1  0.2585285148158  0.6414355743396  0.5170080302465 1.0
C      1  0.7651030139067  0.4320331177076  0.6043513922081 1.0
C      1  0.6851917676092  0.2682654251782  0.6318243855131 1.0
C      1  0.5724999107971  0.4982374648856  0.2501868015920 1.0
C      1  0.7793029002527  0.7187435836809  0.4753933469804 1.0
C      1  0.5219927541480  0.6722626701761  0.5098395659453 1.0
C      1  0.5826489022768  0.3774826158838  0.7809292238687 1.0
C      1  0.3583335688309  0.7801210554105  0.5561837013661 1.0
C      1  0.6062888602993  0.2411959777264  0.6758185275598 1.0
C      1  0.4550403264131  0.8239943860810  0.3567256720603 1.0
C      1  0.4563412135834  0.6329429199746  0.2629625312940 1.0
C      1  0.4949978489190  0.2667851455150  0.2791662688602 1.0
C      1  0.2787189345539  0.6364537660792  0.6895783238045 1.0
C      1  0.2309772278297  0.6053869106570  0.6134240140593 1.0
C      1  0.4669054018926  0.2685769202952  0.7241978612759 1.0
C      1  0.6648416730629  0.6035129238245  0.5014248982395 1.0
C      1  0.2073941290040  0.5996225729995  0.4374247489956 1.0
C      1  0.6863503321309  0.6904004333058  0.6695401684389 1.0
C      1  0.5536933748874  0.4722425221299  0.6248129430403 1.0
C      1  0.4062094145149  0.2962042864348  0.2609964121412 1.0
C      1  0.2713231133919  0.3770542511368  0.3301962060881 1.0
C      1  0.5847451203219  0.5531494598702  0.6517621997332 1.0
C      1  0.7421797853751  0.5160390112494  0.6514409405754 1.0
C      1  0.7949551438783  0.3513196253903  0.4735338749862 1.0
C      1  0.3247214654926  0.4809266470836  0.7004701653202 1.0
C      1  0.2931674942787  0.4850196631003  0.4923175354944 1.0
C      1  0.5075500568983  0.2172767855912  0.3618840031687 1.0
C      1  0.5217262342432  0.6693528743404  0.1939056219206 1.0
C      1  0.6897466396696  0.4387936037283  0.3302941782353 1.0
C      1  0.5434241157908  0.4154266309489  0.3047442949977 1.0
C      1  0.6111650225233  0.6862255587574  0.5313923475643 1.0
C      1  0.3624588411111  0.2397327745999  0.6152232978062 1.0
C      1  0.5587922770788  0.2920867161156  0.7415443613680 1.0
C      1  0.5977828651004  0.1889672233487  0.5232758251510 1.0
C      1  0.3367043004996  0.5736630228692  0.5057064709926 1.0
C      1  0.6461512234777  0.5274425832643  0.3183393979414 1.0
C      1  0.3031261175479  0.6921293089681  0.3370940076735 1.0
C      1  0.4670842973156  0.4306278651098  0.6110179564482 1.0
C      1  0.2952041922535  0.7345499847633  0.4979382986849 1.0
C      1  0.5171612379248  0.3660002292514  0.5553344076895 1.0
C      1  0.4930840461260  0.6733431657676  0.3476132098505 1.0
C      1  0.5027785271527  0.8421669372622  0.5506060982192 1.0
C      1  0.4151827876276  0.8392780860171  0.5109216512330 1.0
C      1  0.5732571904298  0.5943532368875  0.7386828973365 1.0
C      1  0.3359247289911  0.3415451712607  0.2705347922897 1.0
C      1  0.4324929521116  0.5545068688790  0.4608140351307 1.0
C      1  0.3945046527663  0.4880327577273  0.6267266745152 1.0
C      1  0.5689927864489  0.8168832298110  0.5969902738790 1.0
C      1  0.3483903540781  0.4213450609239  0.4490230393252 1.0
C      1  0.8318432655464  0.4065232487135  0.4077021567012 1.0
C      1  0.3649802729945  0.2622037129025  0.4463355758065 1.0
C      1  0.4199716239233  0.4686169148869  0.4160203675688 1.0
C      1  0.3232879659440  0.2448240922157  0.5274229547940 1.0
C      1  0.6901337343141  0.3638041678410  0.5912386208139 1.0
C      1  0.3227140310945  0.3050929871119  0.6781414150596 1.0
C      1  0.2495419983328  0.3038548540317  0.5028689233801 1.0
C      1  0.2043565837862  0.4982459696625  0.4372131765532 1.0
C      1  0.3556540876729  0.6259662977739  0.7545304003867 1.0
C      1  0.5834657641082  0.2168252988644  0.4259961861044 1.0
C      1  0.4537157311979  0.2171991584133  0.6420541442570 1.0
C      1  0.8580037026147  0.4762382238252  0.4738362672052 1.0
C      1  0.7156116482910  0.4802431229338  0.7393246279066 1.0
C      1  0.2438679797387  0.5452260437405  0.2946624993454 1.0
C      1  0.4540655423160  0.6599457006628  0.5775709102512 1.0
C      1  0.6229544130955  0.3647888972300  0.3382402584365 1.0
C      1  0.2127833700268  0.3622304020963  0.5607930938698 1.0
C      1  0.5096582983409  0.7622522367023  0.3399537992898 1.0
C      1  0.3555663115744  0.6460401811077  0.2677816504726 1.0
C      1  0.5103147267418  0.4398595335684  0.7986887458228 1.0
C      1  0.2477833248976  0.3617878759813  0.6524329363757 1.0
C      1  0.4027302028903  0.7246692937976  0.6234258281370 1.0
C      1  0.5118007865308  0.6172369055643  0.4283764989567 1.0
C      1  0.3952738796117  0.3236531493656  0.7442211328334 1.0
C      1  0.6083272356640  0.4550270031566  0.1640240834144 1.0
C      1  0.8203132724999  0.5589657457968  0.4521216106643 1.0
C      1  0.6194497729145  0.3122404170328  0.4252896661362 1.0
C      1  0.4143189992104  0.5679429128684  0.5659257392600 1.0
C      1  0.6309532821846  0.6668046207974  0.7391301360484 1.0
C      1  0.2023844669620  0.5132860238495  0.6117846069498 1.0
C      1  0.4581294442943  0.2672409000582  0.4287919637701 1.0
C      1  0.6637349017168  0.5615397392524  0.5967475635938 1.0
C      1  0.2361963501738  0.4549145324388  0.6778628180605 1.0
C      1  0.7790767081842  0.4533485105603  0.3438698722637 1.0
C      1  0.6809778908709  0.2311446285331  0.5448522199983 1.0
C      1  0.2326784534359  0.6255154550724  0.3538517454594 1.0
C      1  0.7368658011656  0.7231787114211  0.4040378340454 1.0
C      1  0.6842251571000  0.6714506188158  0.2517053620996 1.0
C      1  0.8283219617453  0.4136798926224  0.5437406777299 1.0
C      1  0.5686429691254  0.3293240724291  0.2519162887095 1.0
C      1  0.2005499083513  0.4576235999235  0.5300880149124 1.0
C      1  0.3136059467447  0.5646518532528  0.2359343661846 1.0
C      1  0.5200400079014  0.3249486478063  0.4708110418415 1.0
C      1  0.6330394216529  0.7446424101038  0.6026240272244 1.0
C      1  0.7235401811272  0.5955570345004  0.3031170233082 1.0
C      1  0.3610963379359  0.4762148042682  0.7901167003568 1.0
C      1  0.6760900068994  0.6761918266240  0.3504655494057 1.0
C      1  0.5063530248127  0.5385076952497  0.7930151330340 1.0
C      1  0.5449370421411  0.1976394662371  0.6089526358011 1.0
C      1  0.6662980315350  0.4199354605126  0.7678382571361 1.0
C      1  0.6047173639919  0.6654716280799  0.2052541901515 1.0
C      1  0.5941336468905  0.3725385067650  0.1675494915510 1.0
C      1  0.3510149092639  0.6955320327156  0.6958430147047 1.0
C      1  0.4109989358493  0.5591851931345  0.7928158454941 1.0
C      1  0.2269161083866  0.4632720824659  0.3417068221493 1.0
C      1  0.4802719064849  0.5336777453418  0.2705182430401 1.0
C      1  0.3873227555134  0.8306850199205  0.4173812613763 1.0
C      1  0.7023662907248  0.3140759873110  0.4916213777939 1.0
END
