TITL C-5114-8076-6 -7.17 3375.00 -1212.51922136 0 0 149 (C1) n - 1
REM
REM Run started: at 2020.12.04 21:41:16 in /rds/project/t2_vol4/rds-t2-cs072/BORA/CARBON/AIRSS/Generating-Clusters/Str-Search/Only-C1/C100-200
REM VASP from code version vasp.5.4.4.18Apr17-6-g9f103f2a35 (build Oct 11 2019 16:45:47) gamma-only
REM
REM
REM
REM
REM ./C.cell (efaf0b2bf1589a83377268d7ebe2c73f)
REM AIRSS Version 0.9.1 bugfix July 2018 build 013d7b7c2542+ Fri, 06 Jul 2018 19:26:36 +0100
REM compiler GCC version 4.8.5 20150623 (Red Hat 4.8.5-39)
REM options -cpp -mtune=generic -march=x86-64 -g -O0
REM seed -1872017587 470840390 62443376 -270103175 -1268521406 1324265176 -57621463 1144460039 539427485 1782232806 193720949 -942617183
REM
REM C.POTCAR (d86ddea03c3ceb6dc662c8ad6801f873)
REM 
CELL 1.54180   15.00000   15.00000   15.00000   90.00000   90.00000   90.00000
LATT -1
SFAC C  
C      1  0.2219430519783  0.2843292501157  0.5757776076252 1.0
C      1  0.5687550343631  0.6600217212526  0.2815879265616 1.0
C      1  0.8633264069122  0.5019606878437  0.6424578405308 1.0
C      1  0.6119601195297  0.1994193268226  0.6977004310085 1.0
C      1  0.7101549949604  0.2149353440300  0.6753271151062 1.0
C      1  0.1565182032208  0.4395578363615  0.4928686757805 1.0
C      1  0.6463309375179  0.5637263739625  0.6776939169748 1.0
C      1  0.5981470049332  0.8714421431180  0.2822280532392 1.0
C      1  0.3681259676575  0.3769988387257  0.4463511845412 1.0
C      1  0.7650558722907  0.6571976693650  0.4986669467359 1.0
C      1  0.2485806683321  0.7683959084529  0.5487789264761 1.0
C      1  0.5269154284959  0.6635992022372  0.7331402339765 1.0
C      1  0.7336345298535  0.2995201201494  0.7120159385348 1.0
C      1  0.3688085782078  0.2951304946338  0.3837007281935 1.0
C      1  0.7322324165708  0.1968822399495  0.5176213388864 1.0
C      1  0.3975113958644  0.6460359487630  0.1875537247214 1.0
C      1  0.4713673328677  0.3322158466588  0.7018914724663 1.0
C      1  0.2366638523374  0.6111865101891  0.6294585791109 1.0
C      1  0.2759672593338  0.2096683353564  0.6072146888731 1.0
C      1  0.8112574184751  0.3689881753572  0.4404729470565 1.0
C      1  0.6697949254106  0.3830703043185  0.3591218031637 1.0
C      1  0.3446021926743  0.3631350102443  0.2443430000955 1.0
C      1  0.1305027662397  0.5471196283465  0.3675650553528 1.0
C      1  0.4339991339620  0.4833543145980  0.5582786665178 1.0
C      1  0.1772405581113  0.4436905328895  0.5855198581306 1.0
C      1  0.5756930625746  0.6059820483770  0.5188746584706 1.0
C      1  0.2215910658803  0.5124857028427  0.7318327060783 1.0
C      1  0.7044407006463  0.6786232925221  0.7379348125122 1.0
C      1  0.5917646615587  0.2555471901706  0.7735175775869 1.0
C      1  0.6085695251821  0.2061786780955  0.2587803343581 1.0
C      1  0.4167265791489  0.7308149961847  0.4690653200983 1.0
C      1  0.5608682722253  0.1643886846635  0.3149251015226 1.0
C      1  0.3370314092954  0.2509479936136  0.7643753598436 1.0
C      1  0.3789471871837  0.4839910862503  0.8957853366410 1.0
C      1  0.6583432005893  0.6134622470224  0.2680163651750 1.0
C      1  0.2632117053704  0.7026224579743  0.3028041291858 1.0
C      1  0.3703392313629  0.4783170451846  0.3252940959666 1.0
C      1  0.5518562082044  0.1709948674935  0.5350402041292 1.0
C      1  0.4882586052090  0.7504907630312  0.5444161826532 1.0
C      1  0.4609608393128  0.3116627754180  0.5485294294233 1.0
C      1  0.4815645325734  0.1422923675619  0.4775978110451 1.0
C      1  0.2533149390292  0.2032958333666  0.4528195150501 1.0
C      1  0.5353364342868  0.1711372347534  0.3999368671828 1.0
C      1  0.5911616106213  0.5693098610342  0.8395783978685 1.0
C      1  0.4658563314817  0.4518382785148  0.8797094618832 1.0
C      1  0.5241100708921  0.3252917429607  0.4717102439502 1.0
C      1  0.8537847330996  0.4071322893855  0.5221318234234 1.0
C      1  0.4097431099719  0.3101496741166  0.7816167048343 1.0
C      1  0.4646353311359  0.4347205321798  0.3273236077802 1.0
C      1  0.5861301437369  0.2339763370127  0.4619897679750 1.0
C      1  0.4570703367849  0.9077419153768  0.5588912575251 1.0
C      1  0.2299523655909  0.6247970403843  0.2615820953091 1.0
C      1  0.7155771580050  0.7649017822959  0.7472711916572 1.0
C      1  0.6101979540004  0.4404609866988  0.4018128209306 1.0
C      1  0.6854577478733  0.4935937007208  0.1521594609863 1.0
C      1  0.4647781459975  0.9087734687362  0.3596835972730 1.0
C      1  0.4655368818973  0.3652168496152  0.8439255692749 1.0
C      1  0.5683581868579  0.5605419305199  0.2691397618715 1.0
C      1  0.1832471529658  0.5461868952314  0.2887497364392 1.0
C      1  0.5299853839988  0.5795811920329  0.4267706053978 1.0
C      1  0.7198548099191  0.8512772227966  0.7526434287707 1.0
C      1  0.2181600176324  0.7568689445540  0.4608227660130 1.0
C      1  0.5675111960207  0.6974741740782  0.5185833421096 1.0
C      1  0.3125537914642  0.6584905840423  0.2338330393392 1.0
C      1  0.5724552135084  0.8362203979714  0.4452679156672 1.0
C      1  0.2340784245665  0.3890492608050  0.3490880290203 1.0
C      1  0.3430344964499  0.2081075042324  0.4196961560543 1.0
C      1  0.6843340168393  0.3593162815948  0.2635745820550 1.0
C      1  0.4003387580061  0.8574273957687  0.3728518831519 1.0
C      1  0.4535994710975  0.3549929911796  0.3948845071375 1.0
C      1  0.3567245299864  0.4880529906657  0.6285254070904 1.0
C      1  0.2284418362615  0.4967058775512  0.8175679266924 1.0
C      1  0.3014659856177  0.1612029458277  0.5294486750886 1.0
C      1  0.8866252913296  0.4995402724870  0.4943899147591 1.0
C      1  0.2337718676669  0.3703580511807  0.6145562717823 1.0
C      1  0.3115571108380  0.4440688138531  0.3973157062327 1.0
C      1  0.1728327364165  0.5233536287463  0.4427375891440 1.0
C      1  0.2215390600119  0.4624697653307  0.2711897618319 1.0
C      1  0.7460505958620  0.1813620869652  0.5978264860847 1.0
C      1  0.3659927457529  0.7789012897463  0.4069162734552 1.0
C      1  0.6383714470405  0.3294875621141  0.1416178745238 1.0
C      1  0.6692803851599  0.4756689842436  0.7143578777134 1.0
C      1  0.8662076714071  0.5583969166036  0.5668760580991 1.0
C      1  0.6517465852465  0.2736837398803  0.2204862609189 1.0
C      1  0.6001772467603  0.5114334534035  0.1199397210816 1.0
C      1  0.4364335355044  0.4046932113667  0.2324442530578 1.0
C      1  0.2741652051078  0.5262099999607  0.4424291387304 1.0
C      1  0.1846045996360  0.5247663687099  0.6409278503839 1.0
C      1  0.4381869704259  0.5589566583792  0.1651179328457 1.0
C      1  0.1806628275872  0.3643411291385  0.4361942238394 1.0
C      1  0.2996211685747  0.4877201304116  0.8695466262680 1.0
C      1  0.5477795905335  0.1983114530619  0.6284847734979 1.0
C      1  0.4818410550447  0.2692226232850  0.6277724914289 1.0
C      1  0.7492483210358  0.6491309932902  0.4165748299676 1.0
C      1  0.3928788082760  0.3825391778885  0.5418560624587 1.0
C      1  0.2566736793859  0.6979274372457  0.6158235028798 1.0
C      1  0.5557961805885  0.8896771061463  0.3639317171830 1.0
C      1  0.5455885772007  0.5028764479747  0.3531923159726 1.0
C      1  0.7253441068769  0.3262374323156  0.4217606407464 1.0
C      1  0.6160199490958  0.6244612634124  0.7603633199203 1.0
C      1  0.5294345519517  0.4653412803961  0.5891860279972 1.0
C      1  0.6922299433205  0.4014179370115  0.1775132516923 1.0
C      1  0.5812658186979  0.7386449056776  0.4327300627943 1.0
C      1  0.5867210130791  0.8118729417861  0.2254520674991 1.0
C      1  0.7867660204162  0.5612550261703  0.2752606142896 1.0
C      1  0.5518961908429  0.6703971722869  0.3768427142476 1.0
C      1  0.7338589392890  0.6191319250632  0.3332518137622 1.0
C      1  0.4552263006676  0.7160321983856  0.1870699043708 1.0
C      1  0.4365327423984  0.5588317778751  0.4827070622435 1.0
C      1  0.5756808739252  0.4117417300693  0.4937413558602 1.0
C      1  0.3861798877360  0.1456936905210  0.4781685227221 1.0
C      1  0.2726900326448  0.7476057375511  0.3873397375079 1.0
C      1  0.3458169914266  0.7392260306597  0.6516251777167 1.0
C      1  0.4610250516579  0.7223158308630  0.7724024459570 1.0
C      1  0.8439705897703  0.4256975629483  0.3703312127602 1.0
C      1  0.3118944223905  0.4543688229869  0.2305495037809 1.0
C      1  0.3114654545068  0.2169581430246  0.6929834724126 1.0
C      1  0.6513699639751  0.3257416297198  0.7592640311187 1.0
C      1  0.5079393176961  0.2948231072903  0.7949751829072 1.0
C      1  0.8477586765860  0.4064136159508  0.6192329988530 1.0
C      1  0.7223431530509  0.5616718436719  0.2064720894536 1.0
C      1  0.3024880060960  0.3206452040654  0.3124225623303 1.0
C      1  0.3408453640289  0.5803216835899  0.4669066055806 1.0
C      1  0.8062056082848  0.5348993386555  0.7068162505914 1.0
C      1  0.8471034471221  0.5019203825161  0.3179233889118 1.0
C      1  0.3953841485702  0.4808485548618  0.1807787822055 1.0
C      1  0.7894245650302  0.3732482000278  0.6891604823565 1.0
C      1  0.5406383833208  0.5123718041980  0.8718814276701 1.0
C      1  0.7958664690644  0.6250877567453  0.5780757532831 1.0
C      1  0.4265130938889  0.6867897317468  0.6039456724154 1.0
C      1  0.5179011252265  0.8459707922790  0.5234042946552 1.0
C      1  0.3875743152198  0.7440634311769  0.7408562991454 1.0
C      1  0.2037925822612  0.2818596463565  0.4808536950733 1.0
C      1  0.5377048082474  0.7319275049840  0.2168967476434 1.0
C      1  0.7462146157345  0.6111736802531  0.6707578452575 1.0
C      1  0.6866550749018  0.2500732192629  0.4577068645651 1.0
C      1  0.3760116091883  0.8868901304991  0.5732699299600 1.0
C      1  0.5300388282845  0.4075533099030  0.6761355112681 1.0
C      1  0.4965957722639  0.6286342544572  0.6545677528111 1.0
C      1  0.7181481995669  0.9377180310011  0.7555145509069 1.0
C      1  0.5368338190143  0.5436600584982  0.1734208159222 1.0
C      1  0.8880406815912  0.5036885895913  0.4027812959778 1.0
C      1  0.6100706520635  0.4067924811192  0.7242714616173 1.0
C      1  0.3172401903631  0.8209692841409  0.5944964494384 1.0
C      1  0.3926085495006  0.6476714231450  0.5133485995333 1.0
C      1  0.5645250274380  0.5625253317918  0.6082615006333 1.0
C      1  0.2947179195845  0.5467520930032  0.6712634915386 1.0
C      1  0.7579200020945  0.4586453212778  0.7306456147210 1.0
C      1  0.3255245856391  0.4021020776515  0.6141910000811 1.0
END
