TITL C-51517-1692-1 -6.122 3375.00 -1023.22107364 0 0 124 (C1) n - 1
REM
REM Run started: at 2021.01.17 20:45:26 in /rds/project/t2_vol4/rds-t2-cs072/BORA/CARBON/AIRSS/Generating-Clusters/Str-Search/Only-C1/C100-200
REM VASP from code version vasp.5.4.4.18Apr17-6-g9f103f2a35 (build Oct 11 2019 16:45:47) gamma-only
REM
REM
REM
REM
REM ./C.cell (efaf0b2bf1589a83377268d7ebe2c73f)
REM AIRSS Version 0.9.1 bugfix July 2018 build 013d7b7c2542+ Fri, 06 Jul 2018 19:26:36 +0100
REM compiler GCC version 4.8.5 20150623 (Red Hat 4.8.5-39)
REM options -cpp -mtune=generic -march=x86-64 -g -O0
REM seed 84002926 -2043813658 739492477 65987072 -870382941 590703911 -1912508286 255132041 1620820756 357152846 2111463823 1828339968
REM
REM C.POTCAR (d86ddea03c3ceb6dc662c8ad6801f873)
REM 
CELL 1.54180   15.00000   15.00000   15.00000   90.00000   90.00000   90.00000
LATT -1
SFAC C  
C      1  0.5407531682463  0.4882065962220  0.7650080697818 1.0
C      1  0.5758323746663  0.8115480092481  0.5766390165680 1.0
C      1  0.4799834942629  0.3606386638243  0.8408633384530 1.0
C      1  0.7746022008977  0.6690202387977  0.3262128088890 1.0
C      1  0.5091428495712  0.2205175409257  0.3355801865943 1.0
C      1  0.5142077857104  0.5699481917753  0.1343352385058 1.0
C      1  0.6018972254539  0.6475426820894  0.4896210075016 1.0
C      1  0.6640302057977  0.2540372391828  0.5263116891492 1.0
C      1  0.6906733347214  0.5323167810376  0.7665001134980 1.0
C      1  0.8270345454997  0.6070234225014  0.3619995227741 1.0
C      1  0.4994697560142  0.8174009291455  0.3430491051307 1.0
C      1  0.6011454427677  0.4485770962483  0.5725802952744 1.0
C      1  0.6057457635695  0.2726727734855  0.7768897746366 1.0
C      1  0.6397226439633  0.2681582395340  0.3342463892733 1.0
C      1  0.7814956432073  0.3986887653846  0.4846722599679 1.0
C      1  0.1212044993692  0.3678728096325  0.5395678324985 1.0
C      1  0.3779886612796  0.3108721182877  0.3626889461023 1.0
C      1  0.3008112741148  0.7811354561678  0.3424151441444 1.0
C      1  0.4308986477549  0.3938092499156  0.3342943812608 1.0
C      1  0.4273290986013  0.8092158739740  0.5033185289310 1.0
C      1  0.7034104640487  0.7260564792225  0.6439825629951 1.0
C      1  0.2992502819702  0.7393162089249  0.4222761544983 1.0
C      1  0.4811053559170  0.7969081922617  0.5807016223468 1.0
C      1  0.5926491485403  0.2017662875693  0.3829014258640 1.0
C      1  0.2578903180906  0.2108303590443  0.4854587174427 1.0
C      1  0.4327671056975  0.2325429072485  0.3837945046363 1.0
C      1  0.7059743359345  0.6925252019996  0.3931779806225 1.0
C      1  0.3966508328197  0.4323861384657  0.2468676186435 1.0
C      1  0.8411987150399  0.4028070645794  0.3124854470761 1.0
C      1  0.3434730546397  0.7651183225031  0.5046964187304 1.0
C      1  0.5269618748705  0.3806271760014  0.3285831054901 1.0
C      1  0.5251428719859  0.2397590157239  0.6084595692607 1.0
C      1  0.5467767679559  0.2993795240508  0.8317880390611 1.0
C      1  0.3248041213173  0.6600424981177  0.7311635253621 1.0
C      1  0.4965287575601  0.7824131271186  0.2554027081489 1.0
C      1  0.5328619264559  0.5171168125102  0.4154044285541 1.0
C      1  0.5737406122096  0.6117127718274  0.4058029915078 1.0
C      1  0.7311534510705  0.6862113067781  0.2374720519608 1.0
C      1  0.5122829650103  0.2010860251991  0.5231263993047 1.0
C      1  0.7200039973899  0.3153663805532  0.4742844475858 1.0
C      1  0.4043592291838  0.7649434429826  0.2258412037761 1.0
C      1  0.4178476544968  0.5220424503479  0.6719961041455 1.0
C      1  0.2749762987861  0.5650022794102  0.3954357323345 1.0
C      1  0.7679210822803  0.5221747692752  0.7069268758263 1.0
C      1  0.6271473158493  0.6602167359341  0.3447513800389 1.0
C      1  0.3525054145988  0.4479075340363  0.5004000837556 1.0
C      1  0.5562037997305  0.5066640785170  0.5208932722951 1.0
C      1  0.2237431330294  0.2795732425881  0.4327313930958 1.0
C      1  0.7452350981804  0.6953805134724  0.5627108868142 1.0
C      1  0.6558274374823  0.4391652306528  0.6462870591287 1.0
C      1  0.2556314776694  0.6373883496683  0.5332713358028 1.0
C      1  0.4045816039978  0.5266040482377  0.2836511466837 1.0
C      1  0.6887827538670  0.3279235357790  0.3833136957416 1.0
C      1  0.4201891577515  0.5098076051334  0.8638485716002 1.0
C      1  0.6666166375728  0.6294190999452  0.7739019682189 1.0
C      1  0.5545332138165  0.7172583114289  0.2132199441873 1.0
C      1  0.2803505802824  0.5073920929732  0.7804363631034 1.0
C      1  0.7413512058595  0.4686096499710  0.4174824510543 1.0
C      1  0.4533544680941  0.7456471083282  0.6568461833502 1.0
C      1  0.4352836168621  0.4973606434652  0.3785146541901 1.0
C      1  0.5963456263205  0.2052505766196  0.4759144811000 1.0
C      1  0.3886590742941  0.3646428692320  0.8048886227954 1.0
C      1  0.4973128770954  0.5466741565714  0.6988807907698 1.0
C      1  0.6289894581486  0.4680138862012  0.7371402408451 1.0
C      1  0.3142222625392  0.7073998353663  0.5761752172834 1.0
C      1  0.3635947302007  0.6028181297074  0.2418900139326 1.0
C      1  0.6549427854114  0.2544339837466  0.7061544942346 1.0
C      1  0.4690270247724  0.8287533100503  0.4195480913349 1.0
C      1  0.4067040551566  0.6715056561015  0.1983939237670 1.0
C      1  0.5443358676019  0.7089161324077  0.6949208557794 1.0
C      1  0.6394985160942  0.3740941976187  0.1748688979868 1.0
C      1  0.2683799782327  0.1684082081344  0.5717148950231 1.0
C      1  0.2492431536976  0.4028610683218  0.3353375826631 1.0
C      1  0.1876477913854  0.4301937330259  0.4082614316789 1.0
C      1  0.2033235475091  0.5132886137188  0.4473090372430 1.0
C      1  0.7938633807325  0.6063541838158  0.6766367466230 1.0
C      1  0.4991897592189  0.6531951162105  0.1686482534550 1.0
C      1  0.3629615163826  0.7085342970906  0.6599625139939 1.0
C      1  0.7192868755296  0.3851833571920  0.1988658084425 1.0
C      1  0.8364943352091  0.4341529345980  0.4019966873663 1.0
C      1  0.2844614269403  0.6030252875470  0.7766524821148 1.0
C      1  0.2980883612780  0.5517930490975  0.2945130876012 1.0
C      1  0.2858069450119  0.3193343235582  0.3674371116634 1.0
C      1  0.2931470440749  0.4535329979999  0.2716443987445 1.0
C      1  0.4740214037732  0.4135416857129  0.1775536679488 1.0
C      1  0.2656208688594  0.1301339955745  0.6505935549967 1.0
C      1  0.5132506143200  0.6412517916470  0.8451413238899 1.0
C      1  0.1634240383151  0.3494784519020  0.4586243281990 1.0
C      1  0.4983771137850  0.4568067462929  0.8412021775264 1.0
C      1  0.5507303636264  0.3540719424265  0.1990270468894 1.0
C      1  0.4288834298281  0.1948526856742  0.4750510503695 1.0
C      1  0.2081297861424  0.5519422979069  0.5401299275569 1.0
C      1  0.4950007431507  0.4887087040673  0.1291777473835 1.0
C      1  0.3478069602806  0.4575108282615  0.8262888056193 1.0
C      1  0.5397069624104  0.6183013529071  0.6463535071889 1.0
C      1  0.4467354461135  0.5981803433742  0.8762755261172 1.0
C      1  0.5823540488598  0.4451003974653  0.3650555634859 1.0
C      1  0.3561083350044  0.4083974523961  0.5792445210606 1.0
C      1  0.7527981422881  0.4547728908425  0.6419894108907 1.0
C      1  0.4498256518348  0.2761156534396  0.6552633472714 1.0
C      1  0.3783383306311  0.3306682887340  0.6291420364832 1.0
C      1  0.3298802093322  0.7986140720735  0.2662965501935 1.0
C      1  0.2674770288450  0.6523182853548  0.4401827844451 1.0
C      1  0.1875095578830  0.4989408051803  0.6198329702307 1.0
C      1  0.8001335433948  0.4591343629651  0.5611363195398 1.0
C      1  0.3420952208908  0.1825649621370  0.5043809498177 1.0
C      1  0.3583111032517  0.5098606473696  0.4380130103953 1.0
C      1  0.3931984684746  0.3205007176426  0.7215826144335 1.0
C      1  0.6152472463497  0.7619480317070  0.6422674297079 1.0
C      1  0.6248218462353  0.2529472664293  0.6200338363074 1.0
C      1  0.5556302030212  0.2970664840871  0.2850039572720 1.0
C      1  0.1329698899746  0.4268043822237  0.5973157561773 1.0
C      1  0.7303533289398  0.6697180443794  0.7153783911773 1.0
C      1  0.8250697506554  0.5454613696039  0.5288093153871 1.0
C      1  0.5616210867398  0.5990531499296  0.5598374992732 1.0
C      1  0.3452919460921  0.4809888062777  0.6462948216498 1.0
C      1  0.8072261839137  0.6221390371485  0.5826189782454 1.0
C      1  0.7988916928115  0.3921581861280  0.2412047392698 1.0
C      1  0.2577649472791  0.4881166739511  0.6864534809871 1.0
C      1  0.6722282651896  0.4247893784337  0.3713992632906 1.0
C      1  0.6896615477810  0.6940071669394  0.4838430505364 1.0
C      1  0.5769917019915  0.6716468742448  0.7871500542983 1.0
C      1  0.6398944424389  0.6891051556246  0.2528430450431 1.0
C      1  0.8160551030696  0.5362652283858  0.4271683998333 1.0
END
