TITL C-5114-8076-9 -5.314 3375.00 -921.96705973 0 0 113 (C1) n - 1
REM
REM Run started: at 2020.12.05 01:19:38 in /rds/project/t2_vol4/rds-t2-cs072/BORA/CARBON/AIRSS/Generating-Clusters/Str-Search/Only-C1/C100-200
REM VASP from code version vasp.5.4.4.18Apr17-6-g9f103f2a35 (build Oct 11 2019 16:45:47) gamma-only
REM
REM
REM
REM
REM ./C.cell (efaf0b2bf1589a83377268d7ebe2c73f)
REM AIRSS Version 0.9.1 bugfix July 2018 build 013d7b7c2542+ Fri, 06 Jul 2018 19:26:36 +0100
REM compiler GCC version 4.8.5 20150623 (Red Hat 4.8.5-39)
REM options -cpp -mtune=generic -march=x86-64 -g -O0
REM seed 1574825306 -1681326873 -1487699363 574511919 -1140371241 535397318 -1800884250 -1143674919 -1719564947 588053072 2131585603 395884026
REM
REM C.POTCAR (d86ddea03c3ceb6dc662c8ad6801f873)
REM 
CELL 1.54180   15.00000   15.00000   15.00000   90.00000   90.00000   90.00000
LATT -1
SFAC C  
C      1  0.5727286235536  0.6862681579231  0.2547765092519 1.0
C      1  0.6887208024114  0.4796670210516  0.2808862651024 1.0
C      1  0.4327475878597  0.2711522007286  0.6835177887278 1.0
C      1  0.6386583461690  0.6684796039026  0.3866003380956 1.0
C      1  0.6013657125582  0.4307564936641  0.2661710293153 1.0
C      1  0.3297592043548  0.7391243154149  0.3491192670183 1.0
C      1  0.4284170871736  0.5104902475058  0.5885621748980 1.0
C      1  0.6451006936735  0.6285839901525  0.2379874152876 1.0
C      1  0.1614588968467  0.5915526925166  0.4860854579752 1.0
C      1  0.7132265792447  0.6653749916168  0.4527720297629 1.0
C      1  0.4897947344815  0.1863744115452  0.3451768323952 1.0
C      1  0.7748840424871  0.5937349495682  0.4601357680474 1.0
C      1  0.2426578880637  0.4690878418301  0.3973161741338 1.0
C      1  0.7580752629260  0.3676394160633  0.4993022908403 1.0
C      1  0.5184417925312  0.7966129244245  0.3653016995667 1.0
C      1  0.6362601710925  0.4313116701509  0.6994970422919 1.0
C      1  0.4388468163726  0.7323340124402  0.7261487290449 1.0
C      1  0.5908736292908  0.5632460677337  0.4923821162094 1.0
C      1  0.3806834209797  0.4917173891354  0.7519621599785 1.0
C      1  0.4477981899383  0.4048562945460  0.1928724430395 1.0
C      1  0.7325333889377  0.6242317948101  0.6092104610555 1.0
C      1  0.4151030050950  0.6662974162087  0.5043367593085 1.0
C      1  0.4019381475140  0.4343442916865  0.5268620800933 1.0
C      1  0.3885424939181  0.6365065983307  0.2234976308776 1.0
C      1  0.4704240764180  0.3847048739758  0.8167028123452 1.0
C      1  0.3720136398576  0.3727978299409  0.2386629043055 1.0
C      1  0.3592084588478  0.3092353569876  0.3098460904319 1.0
C      1  0.4104495465767  0.6481825973722  0.7738072405193 1.0
C      1  0.5345742509370  0.6384626427753  0.6267732213323 1.0
C      1  0.1736121373163  0.5009908210563  0.4533320264564 1.0
C      1  0.6296155086506  0.2047642439068  0.4401580600170 1.0
C      1  0.5048630147518  0.3346785999959  0.3431300433824 1.0
C      1  0.5361905513159  0.7141477977087  0.7067799503729 1.0
C      1  0.6964861771862  0.5621663336585  0.2309551352445 1.0
C      1  0.6298919875751  0.4152105212123  0.5939142061563 1.0
C      1  0.4420346107629  0.6110368552575  0.5826617045094 1.0
C      1  0.3672829263194  0.4541797585111  0.1846898698003 1.0
C      1  0.3607864415944  0.4117154172775  0.7028944496795 1.0
C      1  0.6081417899378  0.4241607267810  0.4315613909869 1.0
C      1  0.4555024776577  0.8548800299218  0.5222072364574 1.0
C      1  0.6114726549278  0.4880185407320  0.3544102442966 1.0
C      1  0.5839671553082  0.3359848762071  0.2905532657094 1.0
C      1  0.1809892651899  0.4526545250621  0.5400806004896 1.0
C      1  0.4844522305430  0.5973469863394  0.8144802419000 1.0
C      1  0.4159387178201  0.3437643911829  0.7450740372290 1.0
C      1  0.7399749064852  0.4478755314809  0.3582608576947 1.0
C      1  0.3196207694999  0.6732937391451  0.2791374849732 1.0
C      1  0.2683681241435  0.5945874393248  0.6004362657368 1.0
C      1  0.6903866225260  0.5760768713379  0.6788598749624 1.0
C      1  0.4717419650427  0.4893575810721  0.7945046769016 1.0
C      1  0.8205522387183  0.4898378275137  0.5750194311207 1.0
C      1  0.3696411527138  0.2877572730177  0.6044763835635 1.0
C      1  0.6227188816094  0.3130868540533  0.8141077671528 1.0
C      1  0.8104880530455  0.4434422549886  0.4923612252893 1.0
C      1  0.6534985039678  0.3368211666408  0.7312577040444 1.0
C      1  0.6135264303848  0.2298167866031  0.6212048554270 1.0
C      1  0.7765765045321  0.4398774148360  0.6410505523364 1.0
C      1  0.3597442889031  0.5762957041564  0.6322142198535 1.0
C      1  0.3021755985060  0.5335960449657  0.3548678854102 1.0
C      1  0.6801042804631  0.2863658675524  0.6532818946864 1.0
C      1  0.4796764351388  0.5966344635220  0.3575908974744 1.0
C      1  0.5905105199159  0.5794648016708  0.7008588140841 1.0
C      1  0.3622217743425  0.5808349098411  0.7295855354321 1.0
C      1  0.4270980281464  0.4594526844698  0.4310752905966 1.0
C      1  0.3948661875447  0.5478557912319  0.1850299969491 1.0
C      1  0.3123661037040  0.3126437814738  0.3935438924253 1.0
C      1  0.2470870042890  0.3745637989648  0.5333061261119 1.0
C      1  0.4295304106458  0.8399470249396  0.6022490094050 1.0
C      1  0.7966277093469  0.5796435903811  0.5563442795251 1.0
C      1  0.3374069148829  0.3864418750470  0.5979963853235 1.0
C      1  0.6809719193941  0.6900382558965  0.5503302398017 1.0
C      1  0.6176810967836  0.4785696160414  0.5147046333949 1.0
C      1  0.4463052186867  0.6686490082516  0.4178071672112 1.0
C      1  0.4019733533608  0.5264508759891  0.3749182867777 1.0
C      1  0.4259506513389  0.7573727986177  0.3771070934961 1.0
C      1  0.5467047938606  0.3424894017869  0.8378675766156 1.0
C      1  0.3357143233899  0.2580774213973  0.4707106384370 1.0
C      1  0.2062824286472  0.6732016945973  0.4754649153818 1.0
C      1  0.4961037304462  0.4587577587096  0.6370368807024 1.0
C      1  0.3323406187583  0.7158203494960  0.5097763227588 1.0
C      1  0.4248223029850  0.2665685466865  0.5222085844806 1.0
C      1  0.7881117639726  0.5030767583290  0.4185996190526 1.0
C      1  0.6059359268389  0.7718581185722  0.6702329976540 1.0
C      1  0.5909214653288  0.6429793683323  0.5476412398108 1.0
C      1  0.2820807238922  0.2732687292683  0.5475821568324 1.0
C      1  0.6603225972497  0.7711534525771  0.6073014125455 1.0
C      1  0.7227075284953  0.3611155560016  0.5928788790631 1.0
C      1  0.5501059663237  0.4863361852632  0.7136045049222 1.0
C      1  0.5890391252255  0.7365011009100  0.3363278218337 1.0
C      1  0.7012544536391  0.3647699364772  0.4174536690353 1.0
C      1  0.6324323920378  0.2562428563150  0.3093304349510 1.0
C      1  0.4717214944575  0.8298179541991  0.4368745325654 1.0
C      1  0.4445903802507  0.2615656732104  0.3259587440997 1.0
C      1  0.5794180979263  0.1846993325431  0.3576434917949 1.0
C      1  0.2614036540477  0.6764771062788  0.5569419831780 1.0
C      1  0.5578533694548  0.6371207789767  0.7727798970191 1.0
C      1  0.1956354268197  0.5427904656725  0.5700907872596 1.0
C      1  0.5073082865707  0.3934646227818  0.4235935054206 1.0
C      1  0.5808702473990  0.5775098414240  0.3917425934261 1.0
C      1  0.4895090220753  0.5447809423430  0.1996391849732 1.0
C      1  0.4026973340491  0.7981146647456  0.6753480829178 1.0
C      1  0.5259989579605  0.4594378943894  0.2076416202168 1.0
C      1  0.4739010610755  0.3607436613620  0.5152506038260 1.0
C      1  0.5337361514558  0.3887824269797  0.5880513549424 1.0
C      1  0.5111053725762  0.2263251182470  0.6458926030283 1.0
C      1  0.2783685187443  0.7281655438127  0.4288197907633 1.0
C      1  0.2689926556010  0.5992970733903  0.3016100318756 1.0
C      1  0.4988674801938  0.2074564560709  0.5523940162941 1.0
C      1  0.2658279685373  0.3840581699774  0.4321409562096 1.0
C      1  0.6830187104108  0.2708619933935  0.3891556378681 1.0
C      1  0.5926063400539  0.2031063760719  0.5277423539654 1.0
C      1  0.4880451263516  0.6299398633506  0.2542873721128 1.0
C      1  0.7177380178684  0.4877867542210  0.6957390810659 1.0
END
