TITL C-54277-7662-15 -1.185 3375.00 -188.23425546 0 0 24 (C1) n - 1
REM
REM Run started: at 2020.12.24 14:29:01 in /rds/project/t2_vol4/rds-t2-cs072/BORA/CARBON/AIRSS/Generating-Clusters/Str-Search/Only-C1/C10-100
REM VASP from code version vasp.5.4.4.18Apr17-6-g9f103f2a35 (build Oct 11 2019 16:45:47) gamma-only
REM
REM
REM
REM
REM ./C.cell (67c5d0192afd7a3ce4a0888e5fe73b87)
REM AIRSS Version 0.9.1 bugfix July 2018 build 013d7b7c2542+ Fri, 06 Jul 2018 19:26:36 +0100
REM compiler GCC version 4.8.5 20150623 (Red Hat 4.8.5-39)
REM options -cpp -mtune=generic -march=x86-64 -g -O0
REM seed -1639185860 -944657016 -765240102 315110530 -998415824 1348796557 2142590224 -1488789996 1677228746 1004364605 -1982790720 575524340
REM
REM C.POTCAR (d86ddea03c3ceb6dc662c8ad6801f873)
REM 
CELL 1.54180   15.00000   15.00000   15.00000   90.00000   90.00000   90.00000
LATT -1
SFAC C  
C      1  0.3959460374555  0.4354586237640  0.5170217506768 1.0
C      1  0.4354880231507  0.4602484152044  0.5989008833909 1.0
C      1  0.4884910124832  0.5370208765412  0.6271942077672 1.0
C      1  0.5214035253672  0.5806293438288  0.4641990970050 1.0
C      1  0.4987479360979  0.4049432762895  0.3524533656066 1.0
C      1  0.4594741092662  0.7311751885408  0.5325946740040 1.0
C      1  0.3805877846870  0.7573543804059  0.4893109416150 1.0
C      1  0.6480487504274  0.4885470681713  0.4972695403769 1.0
C      1  0.6182613565421  0.5246924851809  0.5793547025281 1.0
C      1  0.4356995131382  0.3463694961187  0.4936863343704 1.0
C      1  0.4123468529245  0.4389941767043  0.3693292153612 1.0
C      1  0.4388362776565  0.3479804659483  0.3995394360337 1.0
C      1  0.4258557375835  0.5885136301141  0.4463614676466 1.0
C      1  0.5059711442866  0.3937030222509  0.6240969969693 1.0
C      1  0.5869953628515  0.5246080542145  0.4274724132307 1.0
C      1  0.5324899936947  0.6962865785378  0.5617781740961 1.0
C      1  0.3886767335293  0.4960041272877  0.4392399322154 1.0
C      1  0.6332439617086  0.3970607128399  0.4585003135969 1.0
C      1  0.5608363403501  0.4744488399356  0.6374899315569 1.0
C      1  0.3929741203144  0.6699822821637  0.4725558589810 1.0
C      1  0.5445314893338  0.6000907600860  0.5630949073295 1.0
C      1  0.5997127410069  0.3335249167177  0.5128193133758 1.0
C      1  0.5147686933182  0.3330923560339  0.5518223076146 1.0
C      1  0.5806124028261  0.4392710231200  0.3839143346514 1.0
END
