TITL C-54277-7662-4 -3.758 3375.00 -633.04261308 0 0 78 (C1) n - 1
REM
REM Run started: at 2020.12.24 10:34:06 in /rds/project/t2_vol4/rds-t2-cs072/BORA/CARBON/AIRSS/Generating-Clusters/Str-Search/Only-C1/C10-100
REM VASP from code version vasp.5.4.4.18Apr17-6-g9f103f2a35 (build Oct 11 2019 16:45:47) gamma-only
REM
REM
REM
REM
REM ./C.cell (67c5d0192afd7a3ce4a0888e5fe73b87)
REM AIRSS Version 0.9.1 bugfix July 2018 build 013d7b7c2542+ Fri, 06 Jul 2018 19:26:36 +0100
REM compiler GCC version 4.8.5 20150623 (Red Hat 4.8.5-39)
REM options -cpp -mtune=generic -march=x86-64 -g -O0
REM seed -29907054 1622704185 -874203519 -762184835 -136031283 905738712 -579921408 -977937566 -1709727174 -1166734724 -124183111 1160120922
REM
REM C.POTCAR (d86ddea03c3ceb6dc662c8ad6801f873)
REM 
CELL 1.54180   15.00000   15.00000   15.00000   90.00000   90.00000   90.00000
LATT -1
SFAC C  
C      1  0.7504446731872  0.5933824796404  0.4550207793885 1.0
C      1  0.6722303409289  0.7179478730101  0.6427875528603 1.0
C      1  0.2624677681335  0.5621179305630  0.3431466213723 1.0
C      1  0.5496189052053  0.4093955303920  0.4725648108315 1.0
C      1  0.5650624749253  0.2283768696196  0.5274333956040 1.0
C      1  0.5436006470863  0.5687278321800  0.5475509987736 1.0
C      1  0.4828587764640  0.3325174399803  0.6992729528569 1.0
C      1  0.5910542283593  0.7621511871759  0.4227277942653 1.0
C      1  0.5744179290881  0.3610703370543  0.6928818779349 1.0
C      1  0.5608793404426  0.3248046459957  0.4076859086868 1.0
C      1  0.5722756384200  0.6360006087186  0.3242754130817 1.0
C      1  0.4961997988530  0.7641804451748  0.4293658826434 1.0
C      1  0.5732843088808  0.3967325686623  0.2464592246654 1.0
C      1  0.4879028981505  0.4986355585016  0.6886648368017 1.0
C      1  0.7150686207015  0.6655024876778  0.4032359309758 1.0
C      1  0.6223603306557  0.7777363519062  0.5131116395841 1.0
C      1  0.5723261890990  0.4533762179195  0.7182184055700 1.0
C      1  0.4892559397648  0.6017795988473  0.7147047641526 1.0
C      1  0.2863906684022  0.5412651209650  0.6954229909451 1.0
C      1  0.7538613777205  0.5018770691788  0.4697730215309 1.0
C      1  0.3673955854027  0.4458798451193  0.2771825607737 1.0
C      1  0.6337889324096  0.3599680009189  0.4692276683923 1.0
C      1  0.7283143454885  0.4738534134714  0.6827178872379 1.0
C      1  0.4653166250350  0.7661721674722  0.5198520841876 1.0
C      1  0.3837111581484  0.7143376502375  0.5231476077456 1.0
C      1  0.3134829175858  0.3598430224852  0.5401480237664 1.0
C      1  0.4267971544379  0.4542488026930  0.2086926674900 1.0
C      1  0.6502300916933  0.3427734355527  0.6279985594177 1.0
C      1  0.7241415605303  0.4103510045962  0.6143766553485 1.0
C      1  0.7594554994922  0.4303872556963  0.5258506001215 1.0
C      1  0.5392786771224  0.2338609954878  0.4345151027115 1.0
C      1  0.4784864932293  0.1894528060633  0.3786334788026 1.0
C      1  0.2553101591369  0.4368336014933  0.5405183350650 1.0
C      1  0.4516617176262  0.2844083100233  0.6234901447347 1.0
C      1  0.5661757337206  0.6545022549440  0.7073254238576 1.0
C      1  0.6658916112221  0.6420497972207  0.6980592064822 1.0
C      1  0.4182887478320  0.4167836448350  0.6897192104822 1.0
C      1  0.4075475688173  0.2267879047890  0.3573160995920 1.0
C      1  0.2644620521262  0.3278419185994  0.3868654557363 1.0
C      1  0.3281256643127  0.4605110404774  0.6969016318555 1.0
C      1  0.5484352028188  0.4668751056925  0.3888978589170 1.0
C      1  0.7186171546140  0.4061120658977  0.4356389380980 1.0
C      1  0.5228903947384  0.3859787744867  0.3359235411779 1.0
C      1  0.6364902968267  0.7002425464459  0.3629380621065 1.0
C      1  0.5095032656416  0.4351010883969  0.1937272956357 1.0
C      1  0.7069629225021  0.5612180202715  0.7156447978259 1.0
C      1  0.2216822313915  0.5619465869815  0.4286506878820 1.0
C      1  0.3207807000206  0.6334868277705  0.6880133691284 1.0
C      1  0.6992318964585  0.7365125011902  0.5524372775307 1.0
C      1  0.5734844480900  0.5820424047792  0.4731809805264 1.0
C      1  0.5443543723463  0.7763473992786  0.5743838812389 1.0
C      1  0.6294189046132  0.2979676580952  0.5484216423059 1.0
C      1  0.2365979444669  0.4167621336053  0.3754127440648 1.0
C      1  0.2976714716752  0.4980377937389  0.6067148828511 1.0
C      1  0.3664174573296  0.6483187952188  0.5966080260812 1.0
C      1  0.4045691896229  0.3657368112383  0.5877258738205 1.0
C      1  0.3755463734471  0.5355261618152  0.4628219482877 1.0
C      1  0.7173443801490  0.3888096909285  0.3385513733658 1.0
C      1  0.2789825939386  0.4738293577991  0.3097526690563 1.0
C      1  0.4843241277505  0.6575951053704  0.3172082821711 1.0
C      1  0.4166456657612  0.3953698319723  0.3547133594926 1.0
C      1  0.2178544181375  0.4681178199650  0.4572258770375 1.0
C      1  0.3162071762307  0.6002224187934  0.4178875417900 1.0
C      1  0.4087504843437  0.6496996002777  0.6897818570186 1.0
C      1  0.5741514889791  0.5543935926768  0.3828722429409 1.0
C      1  0.6657849236737  0.3926236702301  0.2723666263393 1.0
C      1  0.4853530934399  0.2177240861807  0.5733630392330 1.0
C      1  0.4660219730148  0.4262664115470  0.5259248487971 1.0
C      1  0.7455744243087  0.6819011528231  0.4906950169556 1.0
C      1  0.3602246132451  0.3071004994341  0.3732399492852 1.0
C      1  0.6535187028221  0.4874741702859  0.7385894126556 1.0
C      1  0.3607686982396  0.6881048899581  0.4333798350465 1.0
C      1  0.4738833103232  0.5130656258727  0.5844915111381 1.0
C      1  0.3076955377143  0.3057512204376  0.4642536444649 1.0
C      1  0.4362638200073  0.7108035433550  0.3754821381627 1.0
C      1  0.5772627318508  0.7381065646102  0.6534210810069 1.0
C      1  0.4120441244846  0.4549257267067  0.4415908599456 1.0
C      1  0.3792661351444  0.5514776205337  0.5612236202928 1.0
END
