TITL C-54277-7662-17 -4.382 3375.00 -730.69951937 0 0 90 (C1) n - 1
REM
REM Run started: at 2020.12.24 15:35:59 in /rds/project/t2_vol4/rds-t2-cs072/BORA/CARBON/AIRSS/Generating-Clusters/Str-Search/Only-C1/C10-100
REM VASP from code version vasp.5.4.4.18Apr17-6-g9f103f2a35 (build Oct 11 2019 16:45:47) gamma-only
REM
REM
REM
REM
REM ./C.cell (67c5d0192afd7a3ce4a0888e5fe73b87)
REM AIRSS Version 0.9.1 bugfix July 2018 build 013d7b7c2542+ Fri, 06 Jul 2018 19:26:36 +0100
REM compiler GCC version 4.8.5 20150623 (Red Hat 4.8.5-39)
REM options -cpp -mtune=generic -march=x86-64 -g -O0
REM seed 755940778 218153579 -235293255 1168479674 270027745 404968057 -830290940 535195100 -1058135923 10380390 1722925786 1211903733
REM
REM C.POTCAR (d86ddea03c3ceb6dc662c8ad6801f873)
REM 
CELL 1.54180   15.00000   15.00000   15.00000   90.00000   90.00000   90.00000
LATT -1
SFAC C  
C      1  0.6814251153558  0.4169673050315  0.3432617544535 1.0
C      1  0.3547241108209  0.4246863880389  0.5930939947584 1.0
C      1  0.6438740848897  0.3527732597599  0.2805089640650 1.0
C      1  0.4849994102649  0.5563318673610  0.7684515285537 1.0
C      1  0.5701379869703  0.3826610184751  0.5739817670604 1.0
C      1  0.4145710316859  0.7536627465127  0.4847892247313 1.0
C      1  0.5136707959968  0.6782173854073  0.6590405318389 1.0
C      1  0.3665271639372  0.3774462741478  0.4080392782844 1.0
C      1  0.4692960375034  0.5617793426373  0.5365486150750 1.0
C      1  0.6516848836557  0.2844480251429  0.4770098877201 1.0
C      1  0.4049308402294  0.5647054317223  0.2677886751886 1.0
C      1  0.5906762318944  0.2361263543383  0.4071454327673 1.0
C      1  0.5754827707792  0.5176452717720  0.4155317500136 1.0
C      1  0.5773713242869  0.7431698432509  0.6148566804784 1.0
C      1  0.7785000768029  0.6793617450215  0.5747686201660 1.0
C      1  0.5617219513443  0.7832298909127  0.5308605773366 1.0
C      1  0.5077122007316  0.5690512924205  0.4426989049520 1.0
C      1  0.7030566666017  0.4869039480466  0.2814309696889 1.0
C      1  0.4207426642781  0.7217368776215  0.6526703751722 1.0
C      1  0.6259875762547  0.4426278329259  0.4226259053734 1.0
C      1  0.4515107637699  0.1585878104720  0.4799003329593 1.0
C      1  0.3383864235411  0.4266676650496  0.4887306980793 1.0
C      1  0.3326254433465  0.5682481154707  0.8054907767123 1.0
C      1  0.3873899076807  0.5042736811587  0.5405096664707 1.0
C      1  0.3760811508289  0.6055498205181  0.5339375633578 1.0
C      1  0.6349289015426  0.7038338013447  0.3576064276281 1.0
C      1  0.4235698240892  0.2680700871113  0.6157352926657 1.0
C      1  0.5196452374933  0.4206832684018  0.6554424642237 1.0
C      1  0.3776347071608  0.6627620966728  0.4482782849615 1.0
C      1  0.8063448985603  0.3599479096979  0.4505093076145 1.0
C      1  0.2703859525307  0.2875692012974  0.6715989572943 1.0
C      1  0.2228567632137  0.6556285354099  0.4394672355283 1.0
C      1  0.3191636787879  0.5771910134394  0.3203703101232 1.0
C      1  0.6093931228587  0.3131537396747  0.6262156649372 1.0
C      1  0.2582034970807  0.4783707346095  0.4517558193489 1.0
C      1  0.2085730154607  0.5108124507683  0.6070372525318 1.0
C      1  0.4001418374984  0.6935826768743  0.7453437891739 1.0
C      1  0.2724259372633  0.6507090106697  0.6647951231495 1.0
C      1  0.5473586969394  0.4960753198344  0.2313335552439 1.0
C      1  0.7101933833770  0.6854716489782  0.4212526509905 1.0
C      1  0.7442875457001  0.3060316163958  0.4549754866635 1.0
C      1  0.6077043222239  0.3780417094008  0.4889685680169 1.0
C      1  0.4065949198906  0.4014568892134  0.2823079611747 1.0
C      1  0.3152107808146  0.6422445313932  0.7505726085082 1.0
C      1  0.4513244110808  0.4779816277439  0.2499554989208 1.0
C      1  0.2029830231480  0.5184137918724  0.5119193568189 1.0
C      1  0.7915763177567  0.6229597492076  0.6345320766384 1.0
C      1  0.5490876267886  0.1596373590784  0.4588432441916 1.0
C      1  0.8228964328524  0.4497964875866  0.4681980274413 1.0
C      1  0.4848066230646  0.6526363840573  0.7564512976140 1.0
C      1  0.2812384284573  0.4978528610632  0.3571883799802 1.0
C      1  0.7929244180593  0.5284532860309  0.6306942625881 1.0
C      1  0.3816308960379  0.7617779898428  0.5711581006772 1.0
C      1  0.3285125846590  0.4194171253874  0.3339924838555 1.0
C      1  0.5615875668790  0.5920526804671  0.2422140277836 1.0
C      1  0.2034099585380  0.6064259391534  0.6157755720130 1.0
C      1  0.2594138386688  0.4356276247849  0.6423717163066 1.0
C      1  0.5678161062555  0.1819662496842  0.5524042701248 1.0
C      1  0.6377474967075  0.6331145726318  0.2891522290412 1.0
C      1  0.7456479790900  0.4695546501846  0.6860599556397 1.0
C      1  0.8136345381519  0.5070103681852  0.5392568348737 1.0
C      1  0.6851014670839  0.4206392549324  0.7169988018003 1.0
C      1  0.4544018311438  0.6340708376965  0.3995045008370 1.0
C      1  0.6369053157272  0.2409973845755  0.5697889950524 1.0
C      1  0.2231812334994  0.3616575042857  0.6801188717696 1.0
C      1  0.7984799524876  0.5406264762016  0.4503254289953 1.0
C      1  0.7540012133438  0.6026225631529  0.3935231179879 1.0
C      1  0.5166282597722  0.2921322682224  0.3603246930506 1.0
C      1  0.4261104718999  0.3207888454444  0.3487100718927 1.0
C      1  0.4763230162325  0.6314554689568  0.2573301198187 1.0
C      1  0.3907478861001  0.1825016186295  0.4164643923477 1.0
C      1  0.2965692640240  0.6492207499694  0.3872072475235 1.0
C      1  0.1907878656591  0.6180473707335  0.5137008258098 1.0
C      1  0.7221890795953  0.7179426262909  0.5116894124705 1.0
C      1  0.4791437325739  0.6936712641140  0.3273669441884 1.0
C      1  0.4732895044282  0.1977855628919  0.5681145978650 1.0
C      1  0.3764444755140  0.2295270507634  0.3470941949237 1.0
C      1  0.6468736600740  0.7546259504710  0.5536934702570 1.0
C      1  0.5151872501369  0.5836440012830  0.6201205454705 1.0
C      1  0.3458019236733  0.6753098682187  0.6016594269360 1.0
C      1  0.6063161852901  0.3736704580425  0.6989564118836 1.0
C      1  0.4323171599053  0.3659600393028  0.6286949437962 1.0
C      1  0.7100691505854  0.5744667158852  0.3109793220823 1.0
C      1  0.5915447272273  0.2808777601752  0.3151413847762 1.0
C      1  0.5470086300715  0.7431215328043  0.3737715296645 1.0
C      1  0.6251945485070  0.4410850232779  0.2396166423942 1.0
C      1  0.4077721337749  0.5315032844445  0.8160217898408 1.0
C      1  0.5061983572504  0.7780129925099  0.4571051695232 1.0
C      1  0.5139845902012  0.5168822217533  0.6836278428137 1.0
C      1  0.3374852320860  0.2439791236056  0.6449429346848 1.0
END
