TITL C-54277-7662-26 -3.34 3375.00 -574.63095850 0 0 72 (C1) n - 1
REM
REM Run started: at 2020.12.24 19:02:54 in /rds/project/t2_vol4/rds-t2-cs072/BORA/CARBON/AIRSS/Generating-Clusters/Str-Search/Only-C1/C10-100
REM VASP from code version vasp.5.4.4.18Apr17-6-g9f103f2a35 (build Oct 11 2019 16:45:47) gamma-only
REM
REM
REM
REM
REM ./C.cell (67c5d0192afd7a3ce4a0888e5fe73b87)
REM AIRSS Version 0.9.1 bugfix July 2018 build 013d7b7c2542+ Fri, 06 Jul 2018 19:26:36 +0100
REM compiler GCC version 4.8.5 20150623 (Red Hat 4.8.5-39)
REM options -cpp -mtune=generic -march=x86-64 -g -O0
REM seed -808646646 -224608854 1977405815 1395402041 1761326881 103408403 2948843 435929370 750108386 -243087528 2069514218 -662342972
REM
REM C.POTCAR (d86ddea03c3ceb6dc662c8ad6801f873)
REM 
CELL 1.54180   15.00000   15.00000   15.00000   90.00000   90.00000   90.00000
LATT -1
SFAC C  
C      1  0.7899623289717  0.4412966027968  0.5283083036745 1.0
C      1  0.5771782773381  0.5010797770323  0.1977721733005 1.0
C      1  0.3822329306033  0.3689706906934  0.6749648203093 1.0
C      1  0.3749098199811  0.7196878549130  0.4475871914077 1.0
C      1  0.6523973155094  0.3409045303298  0.6535493818722 1.0
C      1  0.3109037746877  0.5779157251760  0.6518928985910 1.0
C      1  0.2849258544004  0.4445198606477  0.4239814348293 1.0
C      1  0.4645898304987  0.6602538830390  0.5615484050245 1.0
C      1  0.4776435251206  0.6036643305107  0.7112156148516 1.0
C      1  0.3605187077938  0.3595539386027  0.5785940381373 1.0
C      1  0.5443042592081  0.7590102200567  0.4526872593711 1.0
C      1  0.2918829224418  0.3430232314289  0.4322391350884 1.0
C      1  0.6296472526891  0.7110977079788  0.4190456489581 1.0
C      1  0.4937994217139  0.3243977882475  0.3915733242201 1.0
C      1  0.3147263402210  0.3140411181587  0.5135032921947 1.0
C      1  0.4689107967061  0.7049508952712  0.3163078815447 1.0
C      1  0.4681303773488  0.3376717293724  0.3017400634066 1.0
C      1  0.5932993644618  0.2615183741130  0.5203315617413 1.0
C      1  0.5846365795501  0.3023180580607  0.7037869608668 1.0
C      1  0.3931557500168  0.5516196967348  0.6985001575815 1.0
C      1  0.7332140899375  0.5281210142357  0.4992630886837 1.0
C      1  0.3045152904207  0.6368687298036  0.5749574261126 1.0
C      1  0.2401206300857  0.5160713168464  0.6437322160941 1.0
C      1  0.5208573917796  0.3533481925443  0.7532532015093 1.0
C      1  0.7022333006595  0.6052166200466  0.5578518107528 1.0
C      1  0.4314857463782  0.4913347863260  0.2828242175869 1.0
C      1  0.5398832872301  0.4688405454987  0.4504436465506 1.0
C      1  0.5276992326064  0.3455974561446  0.2285364345207 1.0
C      1  0.4784071016458  0.6254304621505  0.2800107991692 1.0
C      1  0.7160321302171  0.3657471928447  0.5039686265342 1.0
C      1  0.5499613669459  0.5371437097593  0.7263047862640 1.0
C      1  0.7032464380791  0.5373442375082  0.3092971206507 1.0
C      1  0.6135801963021  0.6110481521764  0.4206533023633 1.0
C      1  0.5646011041163  0.4075753781923  0.1878813421585 1.0
C      1  0.5460317798659  0.7593797897700  0.6265375197502 1.0
C      1  0.6441403664870  0.5361572706005  0.6922233911165 1.0
C      1  0.5485218491504  0.4705216999207  0.6368452117624 1.0
C      1  0.3094693721491  0.3844878638672  0.3445443649691 1.0
C      1  0.5266811190946  0.5638779908998  0.4255978007598 1.0
C      1  0.5062917353587  0.4477542143879  0.7297340280145 1.0
C      1  0.6822073333720  0.6083895354531  0.6488225120612 1.0
C      1  0.5178190976847  0.2302401246269  0.5697925623054 1.0
C      1  0.4577874939717  0.7426636389158  0.3998144895466 1.0
C      1  0.2101524803482  0.4852386404169  0.5713562987704 1.0
C      1  0.6376520628393  0.6592358216254  0.5077150865863 1.0
C      1  0.5473680484615  0.8056560754317  0.5478400058066 1.0
C      1  0.4939695260228  0.5423843415163  0.2261108290704 1.0
C      1  0.3763145123715  0.4674847446893  0.4518202088193 1.0
C      1  0.5116844110209  0.2498711228803  0.6578524959068 1.0
C      1  0.7013152153534  0.4525301064356  0.5593942801378 1.0
C      1  0.6558480266591  0.5307328993745  0.2411117581452 1.0
C      1  0.5839405519121  0.2994384819012  0.4329580213614 1.0
C      1  0.3261698822341  0.6373175921062  0.4288437797524 1.0
C      1  0.4471403515729  0.3075483314832  0.7082456371523 1.0
C      1  0.6825716053412  0.5342765439329  0.4069289721714 1.0
C      1  0.4682998056523  0.5761710043067  0.5094564202777 1.0
C      1  0.6700845556348  0.3049822418169  0.5658307870877 1.0
C      1  0.4103677207167  0.4583531158479  0.7079197548475 1.0
C      1  0.6269952890883  0.4501231726720  0.4145177631861 1.0
C      1  0.3940219333769  0.5628183355880  0.4350868020836 1.0
C      1  0.5518302945363  0.7018838416036  0.5366674009145 1.0
C      1  0.4209678472857  0.4223723259201  0.5311261550941 1.0
C      1  0.3745443525430  0.7004444580325  0.5413373400687 1.0
C      1  0.6463763589798  0.4437572444286  0.6405215929057 1.0
C      1  0.4975485459111  0.4865461604961  0.5539040328050 1.0
C      1  0.3891760160384  0.4006058957856  0.2959272097071 1.0
C      1  0.2639485624772  0.6014441797315  0.4948982620191 1.0
C      1  0.4600710842164  0.4052193411463  0.4414871098833 1.0
C      1  0.6552143365675  0.3627073220473  0.4242078457593 1.0
C      1  0.4913491557346  0.6809748105634  0.6569665726880 1.0
C      1  0.4514878709246  0.5592102293036  0.3537954115858 1.0
C      1  0.2310463133790  0.5100155832331  0.4841528191987 1.0
END
