TITL C-54277-7662-27 -1.858 3375.00 -312.04956083 0 0 38 (C1) n - 1
REM
REM Run started: at 2020.12.24 19:21:03 in /rds/project/t2_vol4/rds-t2-cs072/BORA/CARBON/AIRSS/Generating-Clusters/Str-Search/Only-C1/C10-100
REM VASP from code version vasp.5.4.4.18Apr17-6-g9f103f2a35 (build Oct 11 2019 16:45:47) gamma-only
REM
REM
REM
REM
REM ./C.cell (67c5d0192afd7a3ce4a0888e5fe73b87)
REM AIRSS Version 0.9.1 bugfix July 2018 build 013d7b7c2542+ Fri, 06 Jul 2018 19:26:36 +0100
REM compiler GCC version 4.8.5 20150623 (Red Hat 4.8.5-39)
REM options -cpp -mtune=generic -march=x86-64 -g -O0
REM seed -1878910887 -1503254747 653852345 -988989354 244893375 1724704278 587622642 -1187690654 -1753809122 822008906 -469185911 716755397
REM
REM C.POTCAR (d86ddea03c3ceb6dc662c8ad6801f873)
REM 
CELL 1.54180   15.00000   15.00000   15.00000   90.00000   90.00000   90.00000
LATT -1
SFAC C  
C      1  0.3560603371286  0.4511912023136  0.3904668862920 1.0
C      1  0.6522324651939  0.3907041268304  0.4301524934309 1.0
C      1  0.4725561100999  0.6267835631277  0.6977638471964 1.0
C      1  0.6944614126979  0.6287602131014  0.4412115475666 1.0
C      1  0.5241274625073  0.3593976472684  0.6069067472313 1.0
C      1  0.5173183096086  0.3209730829716  0.5135310001930 1.0
C      1  0.4497719485313  0.3964135744559  0.6529050926329 1.0
C      1  0.4423791940088  0.4768821729678  0.7042416847457 1.0
C      1  0.6374770632722  0.6399129177382  0.5174255078698 1.0
C      1  0.3617207277434  0.3590383633515  0.5125237660984 1.0
C      1  0.3631133149700  0.5242117318370  0.6647342449849 1.0
C      1  0.5930172310153  0.5858779786516  0.3288683048472 1.0
C      1  0.4425044243484  0.3409108363188  0.4606017324772 1.0
C      1  0.6105294272738  0.3918696252571  0.5807770486057 1.0
C      1  0.6546310548026  0.4757992068485  0.5609312114709 1.0
C      1  0.5067544039901  0.5451612476941  0.3304569599983 1.0
C      1  0.5152381097653  0.4476969447503  0.3424403072907 1.0
C      1  0.3914703118629  0.6254834690838  0.5390336898429 1.0
C      1  0.3618862344930  0.5466392818795  0.4029737697505 1.0
C      1  0.6577419730282  0.5160232934427  0.3409985564013 1.0
C      1  0.6087343407132  0.3419537688841  0.4959927291668 1.0
C      1  0.5221584375960  0.5516684667754  0.5242464769567 1.0
C      1  0.7137712723814  0.5385763393280  0.4175475521322 1.0
C      1  0.3059680929202  0.4204395559700  0.4648022401536 1.0
C      1  0.6117349199912  0.4321033056730  0.3536386472640 1.0
C      1  0.4757092710465  0.6305686918667  0.4747730408108 1.0
C      1  0.3271534724544  0.5710077570157  0.4911211240266 1.0
C      1  0.3114146937997  0.4672939339556  0.6128625877524 1.0
C      1  0.3653212723294  0.3857597845347  0.6032973637294 1.0
C      1  0.6155548627970  0.6583205344098  0.3872271932001 1.0
C      1  0.4011132278833  0.6104986741516  0.6326524508058 1.0
C      1  0.7016721466428  0.4649341670255  0.4773549965766 1.0
C      1  0.2841726870549  0.4941853488829  0.5259520965007 1.0
C      1  0.5611214946488  0.6812279097979  0.4634499639725 1.0
C      1  0.4413140533782  0.4020436148141  0.3831629008772 1.0
C      1  0.6058417360942  0.5627683305571  0.5632927221138 1.0
C      1  0.4998511969307  0.5492499237706  0.7232677785926 1.0
C      1  0.4424014049966  0.5876693126974  0.3864136364418 1.0
END
