TITL C-55241-359-3 -0.084 3375.00 0 0 0 271 (C1) n - 1
REM
REM Run started: at 2020.03.06 12:46:42 in /rds/user/bk393/hpc-work/AIRSS.pl-DENE/CARBON/New-Try
REM VASP from code version vasp.5.4.4.18Apr17-6-g9f103f2a35 (build Oct 11 2019 16:45:47) gamma-only
REM
REM
REM
REM
REM ./C.cell (67df479faaa1345d4e7bfe0367c0c0c2)
REM AIRSS Version 0.9.1 bugfix July 2018 build 013d7b7c2542+ Fri, 06 Jul 2018 19:26:36 +0100
REM compiler GCC version 4.8.5 20150623 (Red Hat 4.8.5-39)
REM options -cpp -mtune=generic -march=x86-64 -g -O0
REM seed 1723703878 96940948 -1348400822 -825488316 -290515754 -1285896487 2026873441 -814652850 1744643197 224716148 2033244470 -1482380712
REM
REM C.POTCAR (d86ddea03c3ceb6dc662c8ad6801f873)
REM 
CELL 1.54180   15.00000   15.00000   15.00000   90.00000   90.00000   90.00000
LATT -1
SFAC C  
C      1  0.7461103479994  0.0529371274586  0.2913454096036 1.0
C      1  0.8300565204579  0.4335565351516  0.5818049658404 1.0
C      1  0.4282467652054  0.3993466023408  0.9035177370947 1.0
C      1  0.4748392426421  0.8511586863880  0.2433081141265 1.0
C      1  0.3228348177385  0.7868833832793  0.4242711639404 1.0
C      1  0.3759109712241  0.2181486246769  0.5499084781430 1.0
C      1  0.1961313930137  0.7722131858940  0.3457430004424 1.0
C      1  0.3705748376695  0.6373789613679  0.2865416756435 1.0
C      1  0.7485309591960  0.3839445775858  0.5284297658105 1.0
C      1  0.2491928700612  0.3750228565503  0.3925021094460 1.0
C      1  0.6115809669564  0.2177369663638  0.7664183155688 1.0
C      1  0.3410720278632  0.6629320331617  0.8116814501195 1.0
C      1  0.7628152737355  0.3333451156055  0.1197640648507 1.0
C      1  0.2061228845861  0.5229737688745  0.5917718563896 1.0
C      1  0.8532925151677  0.3708218241892  0.7517763391973 1.0
C      1  0.5145182441620  0.3475430787929  0.4388604117656 1.0
C      1  0.1012941692766  0.4415426092812  0.3480752753051 1.0
C      1  0.2939058224666  0.5767458564359  0.5744607073686 1.0
C      1  0.6727988680012  0.2611888141225  0.8301993333413 1.0
C      1  0.9174931795042  0.5933262500892  0.4276475138867 1.0
C      1  0.2870266341928  0.6138765547747  0.3356769752055 1.0
C      1  0.6951786894324  0.3685757248200  0.1840688593734 1.0
C      1  0.8940088902184  0.7314131518982  0.5233093381870 1.0
C      1  0.2292814031233  0.8193509598984  0.4242973662633 1.0
C      1  0.1350678739137  0.2712306437488  0.3001992758861 1.0
C      1  0.7367004466937  0.3889012073622  0.2701848908200 1.0
C      1  0.5736980433970  0.5029382496835  0.7772301673494 1.0
C      1  0.2370496246159  0.8026851976561  0.7471272004254 1.0
C      1  0.2422695134284  0.5314070426438  0.4954537880735 1.0
C      1  0.8307928753586  0.8280846398064  0.6585703774794 1.0
C      1  0.4858240062074  0.2556190486210  0.6511900111095 1.0
C      1  0.0585739695057  0.4328479276595  0.7195076800913 1.0
C      1  0.5270799309205  0.5090056965269  0.2926447098054 1.0
C      1  0.8496076975777  0.2300921537888  0.6789237164741 1.0
C      1  0.3844986053542  0.4495165599139  0.4568415956972 1.0
C      1  0.2888807351643  0.4556579310660  0.4424743900858 1.0
C      1  0.8431583010633  0.3801103840518  0.5025853487025 1.0
C      1  0.4548912115484  0.9228739852788  0.3953061810278 1.0
C      1  0.8046327445750  0.3390062720256  0.3108361334888 1.0
C      1  0.7591186376879  0.5896569959004  0.8553952583044 1.0
C      1  0.7163745948477  0.4748573082318  0.9264311756246 1.0
C      1  0.6320235955270  0.7839013513073  0.8281166421962 1.0
C      1  0.6475666972740  0.2407261949946  0.4003749885531 1.0
C      1  0.4268773966630  0.1779065166622  0.6260626711339 1.0
C      1  0.4589024359047  0.8577308709334  0.6118558739099 1.0
C      1  0.6933112925789  0.7491779234140  0.2822516035122 1.0
C      1  0.4718616983652  0.7058691105048  0.6174151695026 1.0
C      1  0.5234207915963  0.7667202719657  0.4731071570546 1.0
C      1  0.4009950570689  0.9690956699503  0.4762754635440 1.0
C      1  0.4804542664471  0.6001673132047  0.5011450828755 1.0
C      1  0.2060487125925  0.6302595787852  0.4665459471509 1.0
C      1  0.5343505950222  0.9869074974471  0.3920189438286 1.0
C      1  0.5861624892462  0.3647821520124  0.6875254544339 1.0
C      1  0.2108555309413  0.8198189675895  0.5877196341806 1.0
C      1  0.2225296051653  0.2277703993127  0.3071099171514 1.0
C      1  0.1993415458119  0.7181068632081  0.7573882434829 1.0
C      1  0.5891260830809  0.5629716983717  0.8468988343703 1.0
C      1  0.8308896844998  0.4158825583874  0.8347663859306 1.0
C      1  0.6826821837155  0.4542114429370  0.3044889110141 1.0
C      1  0.6166082560009  0.5016930688551  0.2532461719566 1.0
C      1  0.7350640485307  0.1132895647995  0.6452136750542 1.0
C      1  0.3217666580650  0.4504770389835  0.0825112735422 1.0
C      1  0.6274856271348  0.9547949036119  0.5429730531542 1.0
C      1  0.4838862509424  0.5783308261827  0.9624326062704 1.0
C      1  0.6536867878292  0.7837614465775  0.3697253496962 1.0
C      1  0.2724378116009  0.6715322896235  0.5379181033454 1.0
C      1  0.6263218208166  0.1751341455492  0.1476696637061 1.0
C      1  0.2380400828609  0.1291066672203  0.5233498986586 1.0
C      1  0.4163812728491  0.1499664879444  0.2416426127671 1.0
C      1  0.4713975150996  0.2612738020151  0.4931338044741 1.0
C      1  0.9712330102964  0.5107409660808  0.4283183777746 1.0
C      1  0.6280436417126  0.7895122229130  0.2112372612337 1.0
C      1  0.5331011985218  0.3687161337107  0.1251681223038 1.0
C      1  0.7230675509261  0.1829651455635  0.1715253416096 1.0
C      1  0.2035365533207  0.5908351741188  0.8638314271115 1.0
C      1  0.7160299304063  0.6230813752477  0.4032690500510 1.0
C      1  0.5078956820910  0.1035590771679  0.7390161650706 1.0
C      1  0.8814598490231  0.7657356155764  0.6053115341658 1.0
C      1  0.6279564388769  0.6400176528310  0.4275792415310 1.0
C      1  0.7042922192397  0.4680783898023  0.3954003663107 1.0
C      1  0.6529262448672  0.5466355721899  0.5914905806231 1.0
C      1  0.6291229721287  0.3052636957709  0.9141430340114 1.0
C      1  0.1841304651115  0.3113044144488  0.1587822708393 1.0
C      1  0.7756379985328  0.2467308296247  0.1382997638440 1.0
C      1  0.3481793832784  0.1954975572333  0.3952143389527 1.0
C      1  0.2495623038896  0.5021160465690  0.1149463816519 1.0
C      1  0.0985994653567  0.2971725123976  0.6399387760245 1.0
C      1  0.7036915469407  0.1370583345154  0.2658287365383 1.0
C      1  0.1893877642125  0.7875419713967  0.2575467641455 1.0
C      1  0.4109652164161  0.2371437921451  0.1993534618672 1.0
C      1  0.4177611774751  0.8763994789340  0.3159678314268 1.0
C      1  0.7429747177866  0.6518525235396  0.6606852107188 1.0
C      1  0.3874733251299  0.3318923226536  0.3231125523167 1.0
C      1  0.2071485525254  0.6767551279085  0.1283804804970 1.0
C      1  0.5708660930147  0.9461783699534  0.4654004134655 1.0
C      1  0.3409207337538  0.1417563481248  0.3028266200658 1.0
C      1  0.4945160360797  0.7024227881370  0.1590376597312 1.0
C      1  0.8457196184245  0.2882178132622  0.3616338452888 1.0
C      1  0.5125998621790  0.9209055543278  0.6732291224385 1.0
C      1  0.1967068149089  0.7394443478971  0.1857017176615 1.0
C      1  0.7065169006092  0.1863201942728  0.3577590486021 1.0
C      1  0.2915069988034  0.4518676533938  0.3386515241504 1.0
C      1  0.5819769049809  0.3982169490672  0.5037277382906 1.0
C      1  0.5678463343413  0.5678529631495  0.4533422162023 1.0
C      1  0.5988119649943  0.3542965694226  0.1947851415341 1.0
C      1  0.2778571066158  0.1942628927163  0.7743499431820 1.0
C      1  0.1018756183859  0.3493967999327  0.7290090951374 1.0
C      1  0.6118823368798  0.4963178567994  0.5171897762101 1.0
C      1  0.3525342908695  0.3700585856162  0.6827444444456 1.0
C      1  0.0166621813263  0.4166719848449  0.5670490289766 1.0
C      1  0.5031026456480  0.4135136340342  0.6738446762921 1.0
C      1  0.4997237765181  0.6147683276909  0.6034138425475 1.0
C      1  0.2332305837463  0.5904830631764  0.1246495216453 1.0
C      1  0.0717855666471  0.5296945689164  0.6969077475441 1.0
C      1  0.9369669367116  0.5627268195157  0.5778009409566 1.0
C      1  0.8758627086888  0.7455007420762  0.6982039592767 1.0
C      1  0.4929939964640  0.8495244186534  0.7525857093003 1.0
C      1  0.5271951812596  0.6261301868349  0.8953165544868 1.0
C      1  0.2739836237076  0.5131135038380  0.8800089514212 1.0
C      1  0.4588751875792  0.3102885307046  0.9025475029283 1.0
C      1  0.9494133390925  0.5346217288455  0.2296689340184 1.0
C      1  0.9053227417392  0.6436500422829  0.3425267667747 1.0
C      1  0.2002872845699  0.8446797102448  0.5032586438203 1.0
C      1  0.6640045488032  0.8566438031213  0.6525514440419 1.0
C      1  0.1504125609676  0.3777259470051  0.4025912627235 1.0
C      1  0.9851904944742  0.4888546465549  0.5171045958880 1.0
C      1  0.8142760679439  0.6458891967341  0.2151791326883 1.0
C      1  0.7145249804822  0.9551623055976  0.5061922928401 1.0
C      1  0.4302813564074  0.5355227224129  0.4347879108151 1.0
C      1  0.4076466226974  0.8184811362828  0.6993240285686 1.0
C      1  0.1626661589053  0.2307676837162  0.6488743192013 1.0
C      1  0.7300287662359  0.5176788988578  0.1300273918713 1.0
C      1  0.8833351962564  0.2898126629861  0.6151585561066 1.0
C      1  0.4581208889677  0.4146978291115  0.1525999104329 1.0
C      1  0.9929176893032  0.4625962004940  0.2611979112785 1.0
C      1  0.5469081074779  0.3000909575407  0.0545484398513 1.0
C      1  0.8303825823082  0.2799547763054  0.7590390573433 1.0
C      1  0.2378393212355  0.8583913302702  0.6708324185567 1.0
C      1  0.1483134141588  0.5800665242366  0.6589154968520 1.0
C      1  0.5980651296255  0.6135150816895  0.6199723804686 1.0
C      1  0.8236712528645  0.5732047450024  0.4726957260395 1.0
C      1  0.4441634111681  0.4797664410716  0.2380001893486 1.0
C      1  0.3484393664399  0.5541926735170  0.6575537848178 1.0
C      1  0.7009957402022  0.3776328454576  0.9199566960518 1.0
C      1  0.5227311003193  0.0764152364495  0.3652273239049 1.0
C      1  0.7661947796811  0.0041383393517  0.3547496263449 1.0
C      1  0.4084553375911  0.2660564002218  0.8241081452293 1.0
C      1  0.0996491868197  0.2819793597435  0.3876414741359 1.0
C      1  0.5449859152879  0.2489430282310  0.5669835094121 1.0
C      1  0.8310294587909  0.7430262864517  0.4469196789539 1.0
C      1  0.3753907508267  0.5113090757133  0.0288588922767 1.0
C      1  0.2488443819414  0.5244203134347  0.2880197462410 1.0
C      1  0.6084074930898  0.7285510866050  0.4341131267229 1.0
C      1  0.1233099723660  0.3310610777837  0.2265692428107 1.0
C      1  0.5716523062855  0.2934911136905  0.3659618713116 1.0
C      1  0.2209249021683  0.2025793785283  0.5759903016024 1.0
C      1  0.5919512334636  0.7155616041972  0.1562118652181 1.0
C      1  0.3104833619623  0.4692529676438  0.8018889518360 1.0
C      1  0.6990322811758  0.7356981053299  0.8330269655500 1.0
C      1  0.5231468653748  0.1365489255640  0.2868893834133 1.0
C      1  0.1724752757636  0.6724843289814  0.6720033985640 1.0
C      1  0.8432212423647  0.2373086644796  0.4426625845206 1.0
C      1  0.4290551312544  0.3847449437544  0.3989449370102 1.0
C      1  0.0406712763819  0.6644082992269  0.5064988484851 1.0
C      1  0.1026856963017  0.5912774432657  0.2665954065437 1.0
C      1  0.3465467150741  0.7221024305566  0.4851050971637 1.0
C      1  0.5418787810116  0.2959468239136  0.9546027626308 1.0
C      1  0.3420426249942  0.5259304528588  0.9402611601189 1.0
C      1  0.0681441705754  0.3388998839626  0.5576164478543 1.0
C      1  0.4449202594514  0.5664013950386  0.6771818167418 1.0
C      1  0.4610845127179  0.1078222265188  0.4237556999590 1.0
C      1  0.3846288965849  0.4271590353916  0.3061639055288 1.0
C      1  0.3839355846472  0.7326579688952  0.2729051146146 1.0
C      1  0.1012901374876  0.3201732160226  0.4669834827111 1.0
C      1  0.2796693043329  0.3544727373437  0.6164489872903 1.0
C      1  0.7670349927771  0.6728015988592  0.8152386769367 1.0
C      1  0.1994633739943  0.2317822589888  0.7428523211513 1.0
C      1  0.3764406524371  0.6353011717886  0.7184845928346 1.0
C      1  0.1262013648030  0.6436013772272  0.3261908215998 1.0
C      1  0.8922436458332  0.6013079000587  0.2566856416538 1.0
C      1  0.1456826865047  0.5053354828249  0.2795115588226 1.0
C      1  0.5275032666559  0.8583182720161  0.4289502001128 1.0
C      1  0.8856920320814  0.3862113290781  0.6584651710551 1.0
C      1  0.4446429072775  0.9940364382122  0.6371203003351 1.0
C      1  0.7581851112769  0.5402509666545  0.4067434250908 1.0
C      1  0.5825262082323  0.2232401679947  0.0820651849125 1.0
C      1  0.2555659463336  0.2742561018760  0.1369034810210 1.0
C      1  0.2977430838384  0.2851565413644  0.3576393199408 1.0
C      1  0.6038225785378  0.9301677637668  0.6304495397485 1.0
C      1  0.3838945493961  0.6133658430335  0.3846831726935 1.0
C      1  0.6452008095333  0.5391869475737  0.1717703087394 1.0
C      1  0.5389378595885  0.7942699066242  0.8143607358651 1.0
C      1  0.5589423872325  0.2734949520166  0.7182163929159 1.0
C      1  0.4996272645747  0.4959725275639  0.7161989596854 1.0
C      1  0.2419182283483  0.6627986978921  0.8218981087304 1.0
C      1  0.1520205470530  0.3012674957938  0.7910507054173 1.0
C      1  0.6267745475806  0.6760196561420  0.2551388544060 1.0
C      1  0.4053861626437  0.7024672003147  0.8556875229263 1.0
C      1  0.1170799848389  0.6440863368801  0.4932469091604 1.0
C      1  0.8068281955171  0.1493582389824  0.6617238753496 1.0
C      1  0.3656280574653  0.1799602047923  0.7953886652580 1.0
C      1  0.5896074474102  0.8467856030023  0.3509866009372 1.0
C      1  0.7547401539479  0.6126533091354  0.1516413661618 1.0
C      1  0.7479880661060  0.4263949723482  0.1216572487909 1.0
C      1  0.3477166940352  0.2910408738937  0.1474707863367 1.0
C      1  0.8101341409799  0.6852492582451  0.7260625289360 1.0
C      1  0.7629709419057  0.1890988971420  0.4399761425214 1.0
C      1  0.6065559206807  0.3337303845768  0.5791017863793 1.0
C      1  0.2893798798579  0.5417353308000  0.1974436833500 1.0
C      1  0.4411944035851  0.3525259917855  0.6457952727694 1.0
C      1  0.3688591178603  0.7991646799407  0.3378803558839 1.0
C      1  0.6171832783506  0.1777788572302  0.5630037129336 1.0
C      1  0.7744852613213  0.2668395046511  0.8357306683432 1.0
C      1  0.9850123465094  0.5348640485170  0.6594336004809 1.0
C      1  0.6040466677688  0.1353399625252  0.2292699081699 1.0
C      1  0.4359133392096  0.6835500219128  0.4587240038742 1.0
C      1  0.6557655082114  0.6383454975453  0.1675358341075 1.0
C      1  0.4072711279517  0.7199205553234  0.6760253246622 1.0
C      1  0.2416368139050  0.4385648357019  0.6335679375544 1.0
C      1  0.3723031680132  0.3351411870965  0.7735989493035 1.0
C      1  0.5146265286513  0.5265436323837  0.3803608947991 1.0
C      1  0.4191848203672  0.9394787612609  0.5651597881449 1.0
C      1  0.4626616769828  0.2882769950332  0.2701915936232 1.0
C      1  0.8314951523382  0.5345518089311  0.5694401223629 1.0
C      1  0.3749921221244  0.4101856638546  0.8271839815996 1.0
C      1  0.8470780205337  0.7188714341573  0.3505658077940 1.0
C      1  0.7527006772295  0.8637883491773  0.6599678117895 1.0
C      1  0.4438205381584  0.6205360208552  0.1345469493387 1.0
C      1  0.3717826712689  0.3805660323213  0.1225652870560 1.0
C      1  0.6242744620416  0.4178064051141  0.7626750685618 1.0
C      1  0.5551377521165  0.3304397710152  0.2712266645078 1.0
C      1  0.4228875007690  0.1053767711746  0.7703253443070 1.0
C      1  0.6494547584753  0.6882861125779  0.6500483148210 1.0
C      1  0.7870844461204  0.7184764683595  0.2757889926297 1.0
C      1  0.3919145797158  0.0638641038667  0.4674933310580 1.0
C      1  0.6531783774819  0.3623838610270  0.8285457324847 1.0
C      1  0.7952249080226  0.4970257048473  0.8690531590061 1.0
C      1  0.2899816459320  0.2687590683508  0.5746083840034 1.0
C      1  0.6422929689356  0.1275385563341  0.6365557380922 1.0
C      1  0.6976157840112  0.3052198418544  0.5548192614966 1.0
C      1  0.4455178737885  0.7646106182003  0.2092555461016 1.0
C      1  0.4331848151709  0.4868840789063  0.9475776511925 1.0
C      1  0.9490587607207  0.6461809113157  0.5147433919737 1.0
C      1  0.3148343915143  0.8498520828042  0.7207824097203 1.0
C      1  0.3286219827628  0.1425593845004  0.4865652136715 1.0
C      1  0.1695382084460  0.5204774180672  0.9033294594056 1.0
C      1  0.2151346696719  0.7220072434255  0.6020489064392 1.0
C      1  0.6743170774233  0.4282285780756  0.4749401058071 1.0
C      1  0.3107590445810  0.4669532303861  0.7016056110080 1.0
C      1  0.7574640120923  0.9687778127347  0.4363329550549 1.0
C      1  0.3890293397632  0.5711149156873  0.2090143948915 1.0
C      1  0.6165561913851  0.7735307065540  0.6318991132848 1.0
C      1  0.4395328984047  0.0875149897426  0.6646071620956 1.0
C      1  0.2516790842034  0.1463853697837  0.2821989630789 1.0
C      1  0.4931526876954  0.7157077224292  0.8618010992350 1.0
C      1  0.2082746498281  0.6681950106605  0.3693755805038 1.0
C      1  0.6854158371226  0.2232912153475  0.4989212886268 1.0
C      1  0.5677124411832  0.8485366354805  0.2582693331643 1.0
C      1  0.6755160289721  0.5513704454913  0.8919972323619 1.0
C      1  0.0890442723735  0.4220605367894  0.2468808383968 1.0
C      1  0.5942633511787  0.1285645352024  0.7257688002928 1.0
C      1  0.4374556107852  0.5863938368792  0.0508503328097 1.0
C      1  0.9784963053329  0.4336001273280  0.6582507461459 1.0
C      1  0.0062486410406  0.4643422259207  0.3572438353698 1.0
C      1  0.7870879563725  0.3442146297141  0.8863842184145 1.0
C      1  0.5030495574576  0.2243529254440  0.3351270000692 1.0
C      1  0.4480718499140  0.2026406091300  0.4137915568555 1.0
C      1  0.5205647426866  0.7795741785517  0.5791662635611 1.0
C      1  0.7814997491351  0.6663728973781  0.4584148452024 1.0
C      1  0.7477520636525  0.5738550365702  0.6130652050458 1.0
C      1  0.8721697234985  0.2923552268083  0.5204229335748 1.0
END
