TITL C-56577-9891-4 -0.723 3375.00 -103.99529565 0 0 14 (C1) n - 1
REM
REM Run started: at 2020.12.23 21:31:14 in /rds/project/t2_vol4/rds-t2-cs072/BORA/CARBON/AIRSS/Generating-Clusters/Str-Search/Only-C1/C10-100
REM VASP from code version vasp.5.4.4.18Apr17-6-g9f103f2a35 (build Oct 11 2019 16:45:47) gamma-only
REM
REM
REM
REM
REM ./C.cell (67c5d0192afd7a3ce4a0888e5fe73b87)
REM AIRSS Version 0.9.1 bugfix July 2018 build 013d7b7c2542+ Fri, 06 Jul 2018 19:26:36 +0100
REM compiler GCC version 4.8.5 20150623 (Red Hat 4.8.5-39)
REM options -cpp -mtune=generic -march=x86-64 -g -O0
REM seed 891522401 1264085319 1629433860 345810366 844295697 327262762 -1622575751 1188400428 872477575 -1960919246 -1400846648 1387592044
REM
REM C.POTCAR (d86ddea03c3ceb6dc662c8ad6801f873)
REM 
CELL 1.54180   15.00000   15.00000   15.00000   90.00000   90.00000   90.00000
LATT -1
SFAC C  
C      1  0.7014552719677  0.3069913520037  0.5270652617790 1.0
C      1  0.4774060328711  0.6887611258287  0.5466316420436 1.0
C      1  0.5310657247723  0.7492146981086  0.5790963126997 1.0
C      1  0.3898104000432  0.4105387479677  0.4096240943925 1.0
C      1  0.4878060262398  0.4157848621715  0.4293168373209 1.0
C      1  0.3836788350747  0.5595314592197  0.4790105386109 1.0
C      1  0.4253081368900  0.6292182838574  0.5166222646210 1.0
C      1  0.6301195693985  0.3399940877810  0.4893131672789 1.0
C      1  0.4363889837422  0.4938739623710  0.4188043896722 1.0
C      1  0.5599585030531  0.3732334657200  0.4565324083876 1.0
C      1  0.5902361744898  0.7994173704019  0.6180501549702 1.0
C      1  0.3186986037134  0.4400912849016  0.4623848212609 1.0
C      1  0.7702747234795  0.2773831681013  0.5697471231259 1.0
C      1  0.2977931142647  0.5159661315661  0.4978010838368 1.0
END
