TITL C-56577-9891-36 -3.552 3375.00 -605.45351799 0 0 74 (C1) n - 1
REM
REM Run started: at 2020.12.24 08:25:16 in /rds/project/t2_vol4/rds-t2-cs072/BORA/CARBON/AIRSS/Generating-Clusters/Str-Search/Only-C1/C10-100
REM VASP from code version vasp.5.4.4.18Apr17-6-g9f103f2a35 (build Oct 11 2019 16:45:47) gamma-only
REM
REM
REM
REM
REM ./C.cell (67c5d0192afd7a3ce4a0888e5fe73b87)
REM AIRSS Version 0.9.1 bugfix July 2018 build 013d7b7c2542+ Fri, 06 Jul 2018 19:26:36 +0100
REM compiler GCC version 4.8.5 20150623 (Red Hat 4.8.5-39)
REM options -cpp -mtune=generic -march=x86-64 -g -O0
REM seed -1670156066 749085130 -822782429 2084906285 1416850328 1188451895 -1830126632 659363529 1947944370 569611094 1317561554 -326069945
REM
REM C.POTCAR (d86ddea03c3ceb6dc662c8ad6801f873)
REM 
CELL 1.54180   15.00000   15.00000   15.00000   90.00000   90.00000   90.00000
LATT -1
SFAC C  
C      1  0.5263531052970  0.5019470281616  0.7189399724992 1.0
C      1  0.3491338777345  0.4975504924343  0.3571204327847 1.0
C      1  0.4648445356291  0.4924059455663  0.6349122023774 1.0
C      1  0.2855503056221  0.4535299028324  0.6011515901359 1.0
C      1  0.2947280041452  0.5683356490532  0.7077257597838 1.0
C      1  0.7958305623302  0.5921813095439  0.4804552977901 1.0
C      1  0.2765237008374  0.5236047729481  0.2928488801589 1.0
C      1  0.6531835052220  0.6737288871636  0.3017837308210 1.0
C      1  0.7351201715637  0.6268421887581  0.3358212199588 1.0
C      1  0.5246742098322  0.6973446851924  0.4191404235586 1.0
C      1  0.4762755375432  0.2666994859594  0.4991517284622 1.0
C      1  0.3891219142931  0.4647397404419  0.5926023041175 1.0
C      1  0.6544979607046  0.5302851455790  0.2530532122472 1.0
C      1  0.5021224466357  0.4960565118718  0.4238560991355 1.0
C      1  0.3595104654707  0.6418050349178  0.7365062628424 1.0
C      1  0.7074461612239  0.3847399200079  0.5890334158443 1.0
C      1  0.5160078639454  0.6030416438285  0.2421048142613 1.0
C      1  0.6506296760743  0.6248544097428  0.6147628819543 1.0
C      1  0.7319579501088  0.4731008429003  0.5659135073303 1.0
C      1  0.4513238978445  0.6545476385318  0.7417593720621 1.0
C      1  0.4564798215695  0.3737712849651  0.7832800176874 1.0
C      1  0.4271743363864  0.6817304053562  0.4185122522756 1.0
C      1  0.7242182915531  0.5328653337493  0.3197235839195 1.0
C      1  0.5883077072746  0.4634415398716  0.2610921227263 1.0
C      1  0.2843162633235  0.4762525184550  0.6997651093138 1.0
C      1  0.7597093829020  0.6547692626098  0.4217103312326 1.0
C      1  0.4456351858103  0.4737217019763  0.3357491855776 1.0
C      1  0.6784604403062  0.5330600946162  0.6213542511297 1.0
C      1  0.6827812063745  0.7056341016303  0.4525005627996 1.0
C      1  0.3835878364442  0.6629505475656  0.5040607587820 1.0
C      1  0.5742479542351  0.6504616832874  0.6674374894199 1.0
C      1  0.5916879811548  0.3008821850489  0.6104220260913 1.0
C      1  0.4878209178212  0.6965273838212  0.6546542829157 1.0
C      1  0.4201745062374  0.2842821534753  0.6486798748433 1.0
C      1  0.5280772294266  0.3333432323119  0.3448399206924 1.0
C      1  0.3084526671777  0.3778366418463  0.7127393454451 1.0
C      1  0.5071329383386  0.4386350356468  0.7920127952042 1.0
C      1  0.5363588439010  0.5555104812352  0.4915679882891 1.0
C      1  0.4096262779322  0.4382060471763  0.5050816040437 1.0
C      1  0.2819882476034  0.6219933777739  0.6224064885767 1.0
C      1  0.3935735500254  0.3318899724862  0.7300229127750 1.0
C      1  0.5059591071466  0.5093440154248  0.2650703541135 1.0
C      1  0.7642904267037  0.5050297106789  0.4784800535860 1.0
C      1  0.6025423470744  0.3875448936999  0.3190172326890 1.0
C      1  0.6701413046019  0.3889498522260  0.3866379748472 1.0
C      1  0.3800802979938  0.2866103728928  0.4954374947485 1.0
C      1  0.5574357912548  0.6463902530333  0.4927616086329 1.0
C      1  0.3393152264281  0.6881416774666  0.6530517932272 1.0
C      1  0.6333052222850  0.3795562828325  0.6498354972266 1.0
C      1  0.3747396563995  0.3326842900316  0.2534701521801 1.0
C      1  0.2799946181156  0.5075409295139  0.5137177486132 1.0
C      1  0.3195140931193  0.5930799132251  0.3263600407715 1.0
C      1  0.3486024383722  0.2938794935666  0.5853128927624 1.0
C      1  0.6031537455406  0.4731634113688  0.6548007342539 1.0
C      1  0.2845301620641  0.3545781460941  0.6222549350330 1.0
C      1  0.5021223414767  0.2721651953376  0.5956238368195 1.0
C      1  0.4515206456832  0.6630062112962  0.2642808716758 1.0
C      1  0.5297042492201  0.5998911157151  0.7356870594672 1.0
C      1  0.5373969858439  0.4855130982197  0.5683013322249 1.0
C      1  0.6614033550733  0.3139165800120  0.5401702320806 1.0
C      1  0.3891625929657  0.6566873049784  0.3327289938483 1.0
C      1  0.6128401898177  0.7158559933070  0.3779267754708 1.0
C      1  0.3304998367642  0.4488697364107  0.4452858465666 1.0
C      1  0.6127303571919  0.6173462879609  0.2375270295266 1.0
C      1  0.7277524142718  0.4682116956553  0.3932966526514 1.0
C      1  0.3333055436754  0.3395566896718  0.4259992903917 1.0
C      1  0.5012446248122  0.4273470311098  0.4909275099297 1.0
C      1  0.3493938673835  0.3247294531902  0.3367576118307 1.0
C      1  0.4435877862658  0.3705134123513  0.3153243761028 1.0
C      1  0.6370086634367  0.3230690612835  0.4526513141871 1.0
C      1  0.6424639897774  0.6719403164435  0.5294290193502 1.0
C      1  0.5424368703827  0.2979846454314  0.4323244002148 1.0
C      1  0.3035782946610  0.5999201230264  0.5304027873656 1.0
C      1  0.4135958163415  0.7018760862041  0.5928906357451 1.0
END
