TITL C-56577-9891-1 -1.286 3375.00 -197.36794496 0 0 25 (C1) n - 1
REM
REM Run started: at 2020.12.23 20:40:30 in /rds/project/t2_vol4/rds-t2-cs072/BORA/CARBON/AIRSS/Generating-Clusters/Str-Search/Only-C1/C10-100
REM VASP from code version vasp.5.4.4.18Apr17-6-g9f103f2a35 (build Oct 11 2019 16:45:47) gamma-only
REM
REM
REM
REM
REM ./C.cell (67c5d0192afd7a3ce4a0888e5fe73b87)
REM AIRSS Version 0.9.1 bugfix July 2018 build 013d7b7c2542+ Fri, 06 Jul 2018 19:26:36 +0100
REM compiler GCC version 4.8.5 20150623 (Red Hat 4.8.5-39)
REM options -cpp -mtune=generic -march=x86-64 -g -O0
REM seed 398333945 119011298 -372972052 -1303591089 606468729 -1774118782 307968411 472049150 -1745520648 490392485 -20806751 1850366957
REM
REM C.POTCAR (d86ddea03c3ceb6dc662c8ad6801f873)
REM 
CELL 1.54180   15.00000   15.00000   15.00000   90.00000   90.00000   90.00000
LATT -1
SFAC C  
C      1  0.7818184672880  0.4700534114622  0.5922500070250 1.0
C      1  0.3354936723935  0.6480186868387  0.6081033431628 1.0
C      1  0.5738659735083  0.4590873331711  0.4332406028476 1.0
C      1  0.3821221373706  0.6278693659634  0.6786361884412 1.0
C      1  0.7561200798595  0.4568728718668  0.4289919567095 1.0
C      1  0.5320063682089  0.4459127450204  0.5191980608374 1.0
C      1  0.3903313116832  0.4421502319459  0.5828033918958 1.0
C      1  0.6263940725825  0.4778150676787  0.6551367947736 1.0
C      1  0.4100444419906  0.5330450057532  0.2630107138443 1.0
C      1  0.3326582401500  0.5487216855792  0.2973763175642 1.0
C      1  0.4998851420509  0.4790621355744  0.3688498296628 1.0
C      1  0.7086586751607  0.4754417027062  0.6424923281373 1.0
C      1  0.6619504325470  0.4587909005685  0.4050059915282 1.0
C      1  0.2984550413489  0.5762888792326  0.5529806259704 1.0
C      1  0.7948422597696  0.4571093638218  0.5099010995833 1.0
C      1  0.5436939535254  0.4627692103917  0.6157327777506 1.0
C      1  0.4930838044907  0.5109803745310  0.2819789479333 1.0
C      1  0.3243504906935  0.5009274354854  0.6105846824365 1.0
C      1  0.3342280429706  0.5254230453811  0.3920309977413 1.0
C      1  0.4368467339901  0.4416949382168  0.5022766258481 1.0
C      1  0.4157996921321  0.4752607535154  0.4186767827126 1.0
C      1  0.4550911814839  0.4680506166593  0.6540906298710 1.0
C      1  0.7290402403919  0.4624724575727  0.3401114380567 1.0
C      1  0.2913027669147  0.5619081194421  0.4639869077345 1.0
C      1  0.3919168774954  0.5342737616215  0.6825528579322 1.0
END
