TITL C-56577-9891-20 -2.009 3375.00 -320.24703263 0 0 40 (C1) n - 1
REM
REM Run started: at 2020.12.24 02:45:52 in /rds/project/t2_vol4/rds-t2-cs072/BORA/CARBON/AIRSS/Generating-Clusters/Str-Search/Only-C1/C10-100
REM VASP from code version vasp.5.4.4.18Apr17-6-g9f103f2a35 (build Oct 11 2019 16:45:47) gamma-only
REM
REM
REM
REM
REM ./C.cell (67c5d0192afd7a3ce4a0888e5fe73b87)
REM AIRSS Version 0.9.1 bugfix July 2018 build 013d7b7c2542+ Fri, 06 Jul 2018 19:26:36 +0100
REM compiler GCC version 4.8.5 20150623 (Red Hat 4.8.5-39)
REM options -cpp -mtune=generic -march=x86-64 -g -O0
REM seed 1035391284 1619635431 -1069891098 87773279 1946245793 -186546659 567672356 -1728524087 305935363 1535605589 1305376704 -1109068450
REM
REM C.POTCAR (d86ddea03c3ceb6dc662c8ad6801f873)
REM 
CELL 1.54180   15.00000   15.00000   15.00000   90.00000   90.00000   90.00000
LATT -1
SFAC C  
C      1  0.7105569458484  0.5596625040974  0.4542973565059 1.0
C      1  0.4339064509127  0.4633963404587  0.7199470990846 1.0
C      1  0.5013413637526  0.3851141355874  0.3584682273665 1.0
C      1  0.5875824361622  0.3376172323234  0.5741374222232 1.0
C      1  0.3004075041055  0.5687125533931  0.5636135029633 1.0
C      1  0.4407630981115  0.3252059107383  0.5163759237733 1.0
C      1  0.7027407441244  0.4681446086982  0.4733968848531 1.0
C      1  0.4928671883970  0.3333567912860  0.5994528455649 1.0
C      1  0.4208412080170  0.4941945599524  0.4688745362523 1.0
C      1  0.4731963332864  0.5474976324442  0.5018054174901 1.0
C      1  0.4196663203356  0.5518971448584  0.6854979530766 1.0
C      1  0.4734045355562  0.6310654688208  0.5522996452845 1.0
C      1  0.4754212828256  0.3855268148328  0.6767061686541 1.0
C      1  0.3963871893654  0.4957185489846  0.2899112379983 1.0
C      1  0.3027558177698  0.4047942392410  0.5759332830485 1.0
C      1  0.2776639675155  0.4857444021236  0.5275289049656 1.0
C      1  0.6444147758104  0.4064302080157  0.4283519843243 1.0
C      1  0.3461770740386  0.5925512670310  0.6413755977747 1.0
C      1  0.5885541370571  0.5967732229025  0.3068985121345 1.0
C      1  0.3789143536284  0.5822115303400  0.3003061400736 1.0
C      1  0.3414647957225  0.4429035703832  0.4652551230435 1.0
C      1  0.6053261339564  0.6854422624626  0.4479218880064 1.0
C      1  0.3486300123631  0.3551464109741  0.5091184158269 1.0
C      1  0.5742960883594  0.5232259926696  0.6728311499129 1.0
C      1  0.5895554429961  0.4301205952606  0.3510558236147 1.0
C      1  0.7069710863917  0.4522639658119  0.5668780199126 1.0
C      1  0.3683803345766  0.6418431762084  0.5662880970297 1.0
C      1  0.4055379705014  0.6484029061028  0.3457398485805 1.0
C      1  0.5649117015717  0.6693491187029  0.3567090275565 1.0
C      1  0.5916619584374  0.3437936448814  0.4793435377667 1.0
C      1  0.6545636622779  0.3896606131339  0.6142359224043 1.0
C      1  0.5027165300516  0.3344643396446  0.4422846168131 1.0
C      1  0.5025748249042  0.5848555507042  0.6472364950163 1.0
C      1  0.6776239125080  0.6341136693128  0.4725428303387 1.0
C      1  0.4307202250781  0.4211139165591  0.3098889718933 1.0
C      1  0.4750786579073  0.6906619766013  0.3865989447607 1.0
C      1  0.5165183624334  0.6896833273485  0.4803336118988 1.0
C      1  0.5974869125367  0.5136103313521  0.3140706531567 1.0
C      1  0.5266762688789  0.4522038554482  0.7191737059387 1.0
C      1  0.6517423919271  0.4815255603084  0.6373149731169 1.0
END
