TITL C-56577-9891-24 -3.679 3375.00 -629.83889896 0 0 77 (C1) n - 1
REM
REM Run started: at 2020.12.24 04:35:30 in /rds/project/t2_vol4/rds-t2-cs072/BORA/CARBON/AIRSS/Generating-Clusters/Str-Search/Only-C1/C10-100
REM VASP from code version vasp.5.4.4.18Apr17-6-g9f103f2a35 (build Oct 11 2019 16:45:47) gamma-only
REM
REM
REM
REM
REM ./C.cell (67c5d0192afd7a3ce4a0888e5fe73b87)
REM AIRSS Version 0.9.1 bugfix July 2018 build 013d7b7c2542+ Fri, 06 Jul 2018 19:26:36 +0100
REM compiler GCC version 4.8.5 20150623 (Red Hat 4.8.5-39)
REM options -cpp -mtune=generic -march=x86-64 -g -O0
REM seed -647967995 1082990097 -1533375440 107944344 -1234419982 -236917919 -843799794 -863742051 -1340746828 1368025043 -651323883 849678875
REM
REM C.POTCAR (d86ddea03c3ceb6dc662c8ad6801f873)
REM 
CELL 1.54180   15.00000   15.00000   15.00000   90.00000   90.00000   90.00000
LATT -1
SFAC C  
C      1  0.5823722100079  0.5163217258804  0.3754962917587 1.0
C      1  0.5316169641650  0.4891615377858  0.7638696520830 1.0
C      1  0.5537894770352  0.8010743294415  0.4389861254681 1.0
C      1  0.6011399554232  0.3706242832124  0.5242353679759 1.0
C      1  0.6140664229835  0.3598266864745  0.4292340480166 1.0
C      1  0.5593957911412  0.6811372464523  0.5883961739264 1.0
C      1  0.3950161071757  0.5396487246655  0.6721795878542 1.0
C      1  0.5543833719142  0.5531003201897  0.1817597855327 1.0
C      1  0.6255929030782  0.5998640712625  0.3393346865004 1.0
C      1  0.5692762717075  0.6509181436003  0.4159525922719 1.0
C      1  0.2995780620368  0.6112660739751  0.4855348877255 1.0
C      1  0.6140306910383  0.4067429603135  0.2681977351912 1.0
C      1  0.6215449403348  0.6833818998831  0.5051230205793 1.0
C      1  0.4478298248361  0.6103300615034  0.7175344834865 1.0
C      1  0.3843729377706  0.7316368017027  0.5621498623167 1.0
C      1  0.4879745967475  0.4892854564461  0.2014504304047 1.0
C      1  0.7245715515937  0.5706231041002  0.3559702091025 1.0
C      1  0.5298950260933  0.2843222967010  0.6541504181452 1.0
C      1  0.5902915838120  0.2843044819403  0.3767424258058 1.0
C      1  0.7448248975045  0.5059999065598  0.2953773880002 1.0
C      1  0.6090612695447  0.6073399433491  0.2378113310469 1.0
C      1  0.2758757333121  0.4083068638572  0.5999419227963 1.0
C      1  0.7610345337030  0.4393416044767  0.7000251966857 1.0
C      1  0.6860298762109  0.4249679431602  0.7348885106054 1.0
C      1  0.6820685662085  0.6027001635782  0.5157291871301 1.0
C      1  0.3870343800144  0.3204682104200  0.7025231132807 1.0
C      1  0.6380152676154  0.5473768262645  0.5792799080780 1.0
C      1  0.2528980812074  0.5878083749626  0.5635114741628 1.0
C      1  0.5175657915469  0.5653490685476  0.4291981526606 1.0
C      1  0.3233094023797  0.4542852044477  0.3774509125740 1.0
C      1  0.6107832900103  0.4274335276407  0.3659418923094 1.0
C      1  0.5863285209953  0.6044808510367  0.6410820595343 1.0
C      1  0.5370809413172  0.5727369192142  0.7188432257258 1.0
C      1  0.4056459378529  0.4867312746343  0.5067961531088 1.0
C      1  0.6478247640806  0.5404274678026  0.1815039533938 1.0
C      1  0.5200422946857  0.4036437127633  0.2387062064854 1.0
C      1  0.3394495007567  0.7034760959028  0.6431997103606 1.0
C      1  0.4135722814110  0.6923652180195  0.4028210114022 1.0
C      1  0.4529878220650  0.3591251360276  0.7624959770042 1.0
C      1  0.2867992045952  0.3551507743429  0.5209604112186 1.0
C      1  0.4311077481770  0.5107516589941  0.5883103380888 1.0
C      1  0.5864980825203  0.4650200460432  0.5488054476092 1.0
C      1  0.4762351377405  0.7252249190527  0.6070160872989 1.0
C      1  0.3505549392725  0.2974227345358  0.4082143745083 1.0
C      1  0.4169525710067  0.2452514537873  0.5511996682507 1.0
C      1  0.5059842838249  0.2583332614081  0.4084400017870 1.0
C      1  0.3503938656708  0.5354474999617  0.4357331489049 1.0
C      1  0.4353047351659  0.2640508477421  0.6427859385047 1.0
C      1  0.3522080300916  0.4695716581474  0.7343222779077 1.0
C      1  0.4011555033470  0.5965163516488  0.2893565575721 1.0
C      1  0.8217301645634  0.5301932762521  0.4873371673903 1.0
C      1  0.5965067167436  0.4159682138791  0.7492840987802 1.0
C      1  0.4237384396378  0.5898922187535  0.3877620864690 1.0
C      1  0.2524821188677  0.5009984067972  0.6081926305597 1.0
C      1  0.3784486709353  0.4390920491601  0.2991086019725 1.0
C      1  0.4078866030122  0.5124248481371  0.2457207133528 1.0
C      1  0.2939595562931  0.5441072997690  0.6876074391784 1.0
C      1  0.6308899486004  0.7820945623745  0.4748574228473 1.0
C      1  0.5418158372191  0.3390604947962  0.7305671327655 1.0
C      1  0.4405899949320  0.4490198759891  0.7842759954668 1.0
C      1  0.4263099894437  0.6933635670611  0.6858859737994 1.0
C      1  0.6845752047840  0.4679623659460  0.2344734035005 1.0
C      1  0.3424872581901  0.2763738100270  0.5033410944938 1.0
C      1  0.5002552396323  0.2470612283576  0.5029365602172 1.0
C      1  0.8362443020096  0.4970250669794  0.5657844526414 1.0
C      1  0.2990636269229  0.3781982775052  0.4242386664508 1.0
C      1  0.3543775450832  0.6926955241254  0.4812502295305 1.0
C      1  0.2753579364816  0.6377809571959  0.6456093426196 1.0
C      1  0.4440183958583  0.3676658165310  0.2934488597309 1.0
C      1  0.5031413228821  0.5081115980705  0.5117711963373 1.0
C      1  0.8233525509073  0.4603315078634  0.6419299197221 1.0
C      1  0.5638314379374  0.2924446705111  0.5643827237668 1.0
C      1  0.7506009301521  0.5740176608302  0.4498928519533 1.0
C      1  0.5052919182952  0.7280179881090  0.4078710485933 1.0
C      1  0.3757214155185  0.6818550611867  0.3034282789695 1.0
C      1  0.3250325699105  0.3877674583600  0.6820858614273 1.0
C      1  0.4309243624577  0.2958001715728  0.3583869253231 1.0
END
