TITL C-56577-9891-13 -1.905 3375.00 -309.27041261 0 0 38 (C1) n - 1
REM
REM Run started: at 2020.12.24 00:27:14 in /rds/project/t2_vol4/rds-t2-cs072/BORA/CARBON/AIRSS/Generating-Clusters/Str-Search/Only-C1/C10-100
REM VASP from code version vasp.5.4.4.18Apr17-6-g9f103f2a35 (build Oct 11 2019 16:45:47) gamma-only
REM
REM
REM
REM
REM ./C.cell (67c5d0192afd7a3ce4a0888e5fe73b87)
REM AIRSS Version 0.9.1 bugfix July 2018 build 013d7b7c2542+ Fri, 06 Jul 2018 19:26:36 +0100
REM compiler GCC version 4.8.5 20150623 (Red Hat 4.8.5-39)
REM options -cpp -mtune=generic -march=x86-64 -g -O0
REM seed 119377693 1147081941 435790920 -468535176 11309477 755756229 -1201710996 147450505 1811656511 1298681438 1149889686 2139647019
REM
REM C.POTCAR (d86ddea03c3ceb6dc662c8ad6801f873)
REM 
CELL 1.54180   15.00000   15.00000   15.00000   90.00000   90.00000   90.00000
LATT -1
SFAC C  
C      1  0.4196376807999  0.6200352371484  0.5157699532015 1.0
C      1  0.6256878347717  0.5558056476465  0.6283467670451 1.0
C      1  0.5105628232923  0.6231718814366  0.3067390180740 1.0
C      1  0.4466389695324  0.4830512911262  0.2897171161804 1.0
C      1  0.4404509612497  0.3481324039299  0.4843892277092 1.0
C      1  0.6233136871296  0.6361184684750  0.4806002525383 1.0
C      1  0.5187539421735  0.3704022771911  0.6875475726725 1.0
C      1  0.7083002833614  0.4394743391033  0.5453720881081 1.0
C      1  0.4271518120319  0.5754215770880  0.2963911485553 1.0
C      1  0.3497683636599  0.5468844554363  0.5083982976068 1.0
C      1  0.5036822370466  0.6899343510070  0.3770502190212 1.0
C      1  0.6697033315569  0.4202980973533  0.6951064716289 1.0
C      1  0.5232903233450  0.3158078718722  0.6090024350515 1.0
C      1  0.4253509908219  0.6594354814312  0.4261942083123 1.0
C      1  0.3133028482617  0.4515721754256  0.3874749225900 1.0
C      1  0.5409407117625  0.4701991359002  0.3189815414195 1.0
C      1  0.4776947690430  0.5780772871911  0.6716195890063 1.0
C      1  0.3936757934477  0.5465600546136  0.6901904590759 1.0
C      1  0.6334452590984  0.6068747767417  0.3910776472925 1.0
C      1  0.6898148046171  0.4833043958274  0.6250963214842 1.0
C      1  0.5932909412238  0.3623097208961  0.4534600290877 1.0
C      1  0.3892202527455  0.4246211663214  0.3403661511998 1.0
C      1  0.4473006653798  0.3710368066663  0.3933748907312 1.0
C      1  0.6751641480109  0.3945734072695  0.4832175733178 1.0
C      1  0.5771351118890  0.4385081667448  0.7164595353603 1.0
C      1  0.3701613943828  0.6060792315462  0.3666634448629 1.0
C      1  0.4901815590354  0.6212765350999  0.5841200281045 1.0
C      1  0.3894185323947  0.3851502184682  0.5599010977498 1.0
C      1  0.3440766428513  0.4695712568135  0.5699480593912 1.0
C      1  0.4405808082183  0.3528585888443  0.6363791874383 1.0
C      1  0.3232507970810  0.5399871343096  0.4170182766538 1.0
C      1  0.5905818566865  0.6914903646175  0.4136653010044 1.0
C      1  0.5574683124842  0.5299875000233  0.6912990682904 1.0
C      1  0.5815520521980  0.5597877885476  0.3247995749942 1.0
C      1  0.5300347633970  0.3210401120156  0.5150444058804 1.0
C      1  0.3302802443887  0.5033002315570  0.6575913698438 1.0
C      1  0.5871014318861  0.6125693450649  0.5643714710407 1.0
C      1  0.5420328587439  0.3952913192494  0.3772551784749 1.0
END
