TITL C-64657-3097-1 -8.581 3375.00 -1465.35438237 0 0 180 (C1) n - 1
REM
REM Run started: at 2020.12.12 10:37:12 in /rds/project/t2_vol4/rds-t2-cs072/BORA/CARBON/AIRSS/Generating-Clusters/Str-Search/Only-C1/C100-200
REM VASP from code version vasp.5.4.4.18Apr17-6-g9f103f2a35 (build Oct 11 2019 16:45:47) gamma-only
REM
REM
REM
REM
REM ./C.cell (efaf0b2bf1589a83377268d7ebe2c73f)
REM AIRSS Version 0.9.1 bugfix July 2018 build 013d7b7c2542+ Fri, 06 Jul 2018 19:26:36 +0100
REM compiler GCC version 4.8.5 20150623 (Red Hat 4.8.5-39)
REM options -cpp -mtune=generic -march=x86-64 -g -O0
REM seed -889441979 226248101 1840153820 -672819149 -604478344 -1884373542 -904654500 1526371783 -1760662476 -63035953 -1400418160 -1263520579
REM
REM C.POTCAR (d86ddea03c3ceb6dc662c8ad6801f873)
REM 
CELL 1.54180   15.00000   15.00000   15.00000   90.00000   90.00000   90.00000
LATT -1
SFAC C  
C      1  0.5888144700376  0.1281648516363  0.6231165262401 1.0
C      1  0.3462692082532  0.6119621615148  0.4769081746364 1.0
C      1  0.7065269361747  0.7211804847237  0.3579029585591 1.0
C      1  0.7857454102100  0.7645794204865  0.5716658935926 1.0
C      1  0.4649500214490  0.4373305371971  0.6071495155983 1.0
C      1  0.4844727940237  0.4344123579434  0.8225859771227 1.0
C      1  0.2933155854075  0.5865801620531  0.6445866558013 1.0
C      1  0.2133450188534  0.6638757860919  0.8025221064342 1.0
C      1  0.2952382057221  0.2482377688474  0.3857956680019 1.0
C      1  0.3924837940502  0.4016960003432  0.4615494949249 1.0
C      1  0.2052967448087  0.4849206626407  0.3851292409753 1.0
C      1  0.3935888148183  0.5019111137380  0.1835225861928 1.0
C      1  0.2882976283576  0.3532585217806  0.7242946364640 1.0
C      1  0.4062793164162  0.4881133252130  0.7803558919077 1.0
C      1  0.2234617681232  0.5800784019286  0.2183242633069 1.0
C      1  0.1918886449962  0.3491055214425  0.5782353314917 1.0
C      1  0.6877731237260  0.4601375355701  0.8383949169557 1.0
C      1  0.5332679701555  0.4648231329878  0.5347405050739 1.0
C      1  0.5946722084986  0.3251440148129  0.5480716023891 1.0
C      1  0.2721097001460  0.7970278838541  0.5326817082771 1.0
C      1  0.2908647872472  0.4946624689508  0.3427806847632 1.0
C      1  0.5013577535439  0.5434400460517  0.4701605133283 1.0
C      1  0.2836849862389  0.4109747042029  0.3003777336513 1.0
C      1  0.6297316563315  0.3372993661244  0.7656728444249 1.0
C      1  0.1209136218528  0.5201521033926  0.3430553832554 1.0
C      1  0.6041092943412  0.5788222715657  0.1466776745866 1.0
C      1  0.4994806085480  0.1078877938841  0.5897462908939 1.0
C      1  0.4576938894256  0.5786102115779  0.2210886793045 1.0
C      1  0.5275222972293  0.2979867706463  0.6067920857363 1.0
C      1  0.3532425766051  0.5492635928312  0.3874004517105 1.0
C      1  0.6272966845480  0.4835410655500  0.8913081230048 1.0
C      1  0.4205520784575  0.8039927666608  0.7049468199159 1.0
C      1  0.5089817718017  0.5442730800178  0.2954373851912 1.0
C      1  0.4123379750052  0.5830453705686  0.7745018887237 1.0
C      1  0.2175018629088  0.2649902806875  0.5321148776125 1.0
C      1  0.1642361082072  0.5982443308375  0.7818304194522 1.0
C      1  0.2130916887586  0.2707272000675  0.4322658575278 1.0
C      1  0.7904757067503  0.6841446778984  0.5084089886404 1.0
C      1  0.7067580489215  0.6939268810482  0.1906272461009 1.0
C      1  0.3847922604736  0.2546816545572  0.7993158866188 1.0
C      1  0.5159008483752  0.6306433000224  0.1566162531470 1.0
C      1  0.3623213916844  0.2196323121684  0.4485784298768 1.0
C      1  0.5758980003919  0.4072339334957  0.3285793864269 1.0
C      1  0.5589899579169  0.8380005842802  0.3278815865188 1.0
C      1  0.7847501028902  0.3989160263988  0.7127858868745 1.0
C      1  0.0901744596779  0.3961184095842  0.4398475507207 1.0
C      1  0.7392128990322  0.3830189624332  0.5274393836439 1.0
C      1  0.8258277521032  0.5252712163018  0.3612310369378 1.0
C      1  0.4247669215700  0.7370619632499  0.2423937557465 1.0
C      1  0.1544440983036  0.5683700528907  0.2646280129257 1.0
C      1  0.6890398429320  0.2119947670698  0.3212465233624 1.0
C      1  0.3519476204009  0.8663930751358  0.6898936650070 1.0
C      1  0.0609117532234  0.4669659378409  0.3876189434392 1.0
C      1  0.7594302303514  0.2296620880982  0.5254678773599 1.0
C      1  0.5608500735103  0.4701031842710  0.2565648120381 1.0
C      1  0.5559735492585  0.3823581486877  0.4771031024854 1.0
C      1  0.8711088658705  0.6138800897284  0.4943989157907 1.0
C      1  0.5397029603028  0.3834220084734  0.7544664700778 1.0
C      1  0.3190362737869  0.7742560829784  0.3729808145667 1.0
C      1  0.6412128055044  0.7448266315592  0.7557716251877 1.0
C      1  0.4610628733698  0.2459569479417  0.5619868806039 1.0
C      1  0.3468984164449  0.6409410973020  0.7139383038597 1.0
C      1  0.5486486192574  0.8561686164471  0.4890846209386 1.0
C      1  0.5714318334339  0.6256576737697  0.6374433715362 1.0
C      1  0.2203410573765  0.4673006832942  0.4813219200954 1.0
C      1  0.4622975402772  0.8381124100562  0.4576866085949 1.0
C      1  0.1606309918736  0.4307845824535  0.7986873173919 1.0
C      1  0.3130604468014  0.4379644047040  0.4982190910179 1.0
C      1  0.7571980824548  0.5145340590159  0.2915425989118 1.0
C      1  0.7947975467344  0.3602738614023  0.3882561634091 1.0
C      1  0.7140683868227  0.6281073648275  0.5487086454220 1.0
C      1  0.4938806388354  0.6948221068197  0.5128387496644 1.0
C      1  0.3027922835238  0.6827038719959  0.7970127602865 1.0
C      1  0.8226555112773  0.5709573955805  0.7140757669263 1.0
C      1  0.3447657626800  0.3534191398249  0.2569911797842 1.0
C      1  0.6307949104640  0.7441239328130  0.4169857259172 1.0
C      1  0.5127337701437  0.3334948987080  0.3375801276808 1.0
C      1  0.5369854563115  0.4705500853654  0.9040814027561 1.0
C      1  0.3366768187199  0.2624650487926  0.7210325044682 1.0
C      1  0.3636728550824  0.6956019372595  0.4177199121445 1.0
C      1  0.4769790707690  0.0879865872731  0.4264013688029 1.0
C      1  0.6378380937921  0.8540350934523  0.5211207798506 1.0
C      1  0.2766436394224  0.1995341181807  0.5694329572999 1.0
C      1  0.2832387095525  0.9123291611910  0.4754298127805 1.0
C      1  0.4171287647564  0.5093528275069  0.0868128307715 1.0
C      1  0.5355336784871  0.0928653073748  0.4993262840983 1.0
C      1  0.3588550626326  0.5933827849568  0.0873725183371 1.0
C      1  0.4516198546626  0.3665560641769  0.8982260050084 1.0
C      1  0.5912667850387  0.5857988672000  0.3313545334796 1.0
C      1  0.8946311427463  0.3726614852446  0.6006901252397 1.0
C      1  0.6580064678537  0.5224943897541  0.4299559339703 1.0
C      1  0.8212256172843  0.4504629380957  0.4187722044669 1.0
C      1  0.3931888993837  0.6308457308302  0.3480639863463 1.0
C      1  0.3810650700795  0.0907988918409  0.4342589928739 1.0
C      1  0.6285629513358  0.4804108862956  0.5809865835131 1.0
C      1  0.7035242080694  0.5321271664796  0.5210585534382 1.0
C      1  0.9039606301312  0.5423665335222  0.5368227945338 1.0
C      1  0.5374166599758  0.6891947840139  0.8379926549744 1.0
C      1  0.6145441610125  0.6576676129645  0.7902454853706 1.0
C      1  0.3032871202954  0.6312989412659  0.5637992574413 1.0
C      1  0.5787869304883  0.6840328274936  0.4599830807165 1.0
C      1  0.6265031618032  0.1170655198519  0.5314486703016 1.0
C      1  0.4726302185089  0.3455043075131  0.4296087250185 1.0
C      1  0.5847614023386  0.7754236638660  0.2580890218537 1.0
C      1  0.4012271836554  0.7130394337968  0.6550483992301 1.0
C      1  0.4093280714434  0.2894970753976  0.8716453559792 1.0
C      1  0.6121479584949  0.4300711331436  0.4089371570040 1.0
C      1  0.7645383884604  0.3498383746216  0.2955382925741 1.0
C      1  0.1502894292652  0.3309031683147  0.3891972960707 1.0
C      1  0.2089133932166  0.3611009480556  0.7915702327842 1.0
C      1  0.8635656209118  0.4700141400972  0.5905155348901 1.0
C      1  0.4501896178086  0.6535589573116  0.8347703559701 1.0
C      1  0.4021497695996  0.4016803386870  0.2017441391892 1.0
C      1  0.3161127960440  0.5883586230340  0.1857532475154 1.0
C      1  0.3329347097423  0.4456216849050  0.7366035637268 1.0
C      1  0.6018178273299  0.5882576413848  0.7269848565266 1.0
C      1  0.6770869121401  0.4160201099740  0.1806283337764 1.0
C      1  0.6094640255711  0.4884744105438  0.1794093230855 1.0
C      1  0.4507076888274  0.5447406866933  0.3784375190379 1.0
C      1  0.7680751753352  0.3129363767023  0.4695782906900 1.0
C      1  0.6018859571862  0.5329165305245  0.6593187964605 1.0
C      1  0.5022173766831  0.3694334974439  0.6712266504237 1.0
C      1  0.6777770909652  0.6342899994092  0.1388740071465 1.0
C      1  0.3340076666582  0.2029693095822  0.6472202633724 1.0
C      1  0.3435411048214  0.7309291956431  0.5687614266165 1.0
C      1  0.3873336207404  0.4259418643842  0.5523489737663 1.0
C      1  0.7798604598843  0.6853136298368  0.4049088448405 1.0
C      1  0.2733307653273  0.8227240254772  0.4357672391649 1.0
C      1  0.5427721627638  0.3093086058439  0.1863556470142 1.0
C      1  0.1764585843537  0.5121495742477  0.7568137793706 1.0
C      1  0.3441059430710  0.2650005908852  0.3013238109373 1.0
C      1  0.2918309022267  0.9057417435400  0.6495340655669 1.0
C      1  0.4676800520316  0.8396722204094  0.3584129197724 1.0
C      1  0.8422624525937  0.6109020486994  0.4003173676244 1.0
C      1  0.8251707608918  0.3313267481904  0.6488163219679 1.0
C      1  0.6966909048426  0.1603441443569  0.4870369686032 1.0
C      1  0.6927224644565  0.1713858199456  0.3931634221404 1.0
C      1  0.4292250730565  0.1366119387718  0.3584038426582 1.0
C      1  0.5014806320093  0.2710689576692  0.2719532808426 1.0
C      1  0.6791289521863  0.5513910223769  0.3343646034685 1.0
C      1  0.4385239782491  0.2659541771393  0.4755438508003 1.0
C      1  0.6788610975396  0.7386911165113  0.2657108748697 1.0
C      1  0.4655691240628  0.4251161656046  0.0623458846253 1.0
C      1  0.4178244710649  0.7515595031977  0.4896463853722 1.0
C      1  0.4489608139611  0.6105382987123  0.0771292674563 1.0
C      1  0.4742640717500  0.3695492445782  0.1409483101374 1.0
C      1  0.8251034021911  0.4828716988562  0.6849985917593 1.0
C      1  0.7943361788829  0.2499415368217  0.6080599206518 1.0
C      1  0.2390842078031  0.3921457572772  0.6470371424490 1.0
C      1  0.7469769026942  0.4318949983357  0.2432329433936 1.0
C      1  0.2024759771306  0.3914407206174  0.3411568023016 1.0
C      1  0.4880851714462  0.4171220441666  0.9683530975157 1.0
C      1  0.2578978319849  0.8873920893818  0.5637687421542 1.0
C      1  0.6997488811903  0.2852873084071  0.2649354237630 1.0
C      1  0.6641854860685  0.3865287226987  0.5770854436835 1.0
C      1  0.6335980186264  0.2497287566901  0.7406388291248 1.0
C      1  0.6546915262923  0.6689314041282  0.6070878554426 1.0
C      1  0.3963057469881  0.7983718293325  0.3103676353366 1.0
C      1  0.7853087771237  0.4664244655514  0.5151637157853 1.0
C      1  0.4810053962318  0.6577609475230  0.6056964224439 1.0
C      1  0.4129448801710  0.1621342964325  0.5936340796456 1.0
C      1  0.4234585644306  0.2101879833678  0.2960660817590 1.0
C      1  0.4930080483131  0.8218725869892  0.7537683672999 1.0
C      1  0.6126056157237  0.1868026506918  0.6888634380247 1.0
C      1  0.7098490777690  0.3960047515806  0.7731386866420 1.0
C      1  0.5584227317857  0.7784713583940  0.7941349497137 1.0
C      1  0.8202360407731  0.6526618477352  0.6957941658312 1.0
C      1  0.6978761161035  0.8122916229471  0.5801147728072 1.0
C      1  0.3704939719675  0.6974891967036  0.8601437466623 1.0
C      1  0.6384604928573  0.3274626576642  0.1966274548366 1.0
C      1  0.5821126610804  0.5889157271898  0.4316655670119 1.0
C      1  0.4465359212842  0.6076410862324  0.5203033364599 1.0
C      1  0.6140544633826  0.8413744684487  0.4169287920353 1.0
C      1  0.5151240540930  0.7259236510356  0.2112277774871 1.0
C      1  0.6850915315234  0.7508818215085  0.6654774067799 1.0
C      1  0.1525378852129  0.4133754956647  0.5153374125564 1.0
C      1  0.3459460705856  0.1482100094613  0.5135904505671 1.0
C      1  0.2583711150627  0.4928559801973  0.6831450403963 1.0
C      1  0.7855065055193  0.7313714044430  0.6615343454590 1.0
C      1  0.3860093656699  0.6438140825690  0.2483281267315 1.0
END
