TITL C-64795-8012-2 -7.037 3375.00 -1238.64887263 0 0 151 (C1) n - 1
REM
REM Run started: at 2020.12.12 11:15:35 in /rds/project/t2_vol4/rds-t2-cs072/BORA/CARBON/AIRSS/Generating-Clusters/Str-Search/Only-C1/C100-200
REM VASP from code version vasp.5.4.4.18Apr17-6-g9f103f2a35 (build Oct 11 2019 16:45:47) gamma-only
REM
REM
REM
REM
REM ./C.cell (efaf0b2bf1589a83377268d7ebe2c73f)
REM AIRSS Version 0.9.1 bugfix July 2018 build 013d7b7c2542+ Fri, 06 Jul 2018 19:26:36 +0100
REM compiler GCC version 4.8.5 20150623 (Red Hat 4.8.5-39)
REM options -cpp -mtune=generic -march=x86-64 -g -O0
REM seed 187004399 -896934514 1710312588 -1885585451 -1638807410 1297784629 1116509153 2108701427 -1803972027 -1955932535 1666086320 946852992
REM
REM C.POTCAR (d86ddea03c3ceb6dc662c8ad6801f873)
REM 
CELL 1.54180   15.00000   15.00000   15.00000   90.00000   90.00000   90.00000
LATT -1
SFAC C  
C      1  0.7494142999286  0.3596776926977  0.6589178058547 1.0
C      1  0.7433128506273  0.2648961067238  0.2908679870395 1.0
C      1  0.1999245395675  0.6040367999304  0.4233782463222 1.0
C      1  0.3563113242060  0.1831032789163  0.4179344590946 1.0
C      1  0.3614762395732  0.5915340106061  0.4112238110936 1.0
C      1  0.7274192758991  0.5302068334741  0.2425333526568 1.0
C      1  0.6774058047776  0.2045617861574  0.6215106571426 1.0
C      1  0.7261032421772  0.7087727235896  0.6045979252963 1.0
C      1  0.3086325666837  0.3173202150448  0.7421859296751 1.0
C      1  0.1779726099190  0.3512559232652  0.4861656385416 1.0
C      1  0.7050690371061  0.4995204567300  0.7247026502628 1.0
C      1  0.6045995942668  0.5490416914862  0.4263597768189 1.0
C      1  0.2458402748618  0.3993019065478  0.7363435008635 1.0
C      1  0.6241697743448  0.6948396599867  0.2124157325336 1.0
C      1  0.5135769305411  0.1447544023092  0.4369732666821 1.0
C      1  0.5974884997627  0.7390165143717  0.5299361858254 1.0
C      1  0.1366736067031  0.5593234893910  0.5846434387964 1.0
C      1  0.3292467921670  0.3331009208925  0.2641949257785 1.0
C      1  0.6058334460043  0.1469308720491  0.4561734983944 1.0
C      1  0.5691352106671  0.2918410475125  0.3955258293044 1.0
C      1  0.4315701564927  0.5168734698231  0.3983175288624 1.0
C      1  0.8259847667847  0.4050898661938  0.6751013405705 1.0
C      1  0.5488473707113  0.8447444832529  0.6475444484666 1.0
C      1  0.7365869535855  0.7498509612765  0.4271098008852 1.0
C      1  0.4307423688600  0.7101357928589  0.7287107139778 1.0
C      1  0.4732228715137  0.4361394865958  0.8428947539211 1.0
C      1  0.5886715941506  0.6102685109387  0.1829909632920 1.0
C      1  0.7445500469156  0.4372112166354  0.2829947423685 1.0
C      1  0.3557130008175  0.2923731375225  0.6487063749266 1.0
C      1  0.8157927611952  0.5181468149365  0.4182639540745 1.0
C      1  0.3625013716392  0.7050349583012  0.6598456438957 1.0
C      1  0.4439835609329  0.7548301156560  0.5274573299398 1.0
C      1  0.3298180232409  0.2313775046070  0.5625132990128 1.0
C      1  0.6381682601541  0.6669888978014  0.5882338783699 1.0
C      1  0.6327443946831  0.2046273042497  0.5324161449186 1.0
C      1  0.4207325513662  0.4537303058191  0.4777568369403 1.0
C      1  0.4883103416420  0.8709156409528  0.7148080876507 1.0
C      1  0.5737040263363  0.4086228054527  0.6378943736857 1.0
C      1  0.8094749373161  0.4923879297349  0.6911264802748 1.0
C      1  0.2819993509247  0.4754287709572  0.7865094663767 1.0
C      1  0.4861755290528  0.6376667014437  0.7385903109727 1.0
C      1  0.6226893066517  0.2512878150022  0.6960402658915 1.0
C      1  0.7005473585458  0.6909713189335  0.2748726317233 1.0
C      1  0.4096135964385  0.4469035271721  0.6925420097562 1.0
C      1  0.5676498003475  0.7680473275340  0.2357579189065 1.0
C      1  0.5611326835381  0.7054701685118  0.4450893191271 1.0
C      1  0.2597349308078  0.3296363838478  0.4283140506656 1.0
C      1  0.4648312279143  0.3410209985311  0.8414772570065 1.0
C      1  0.7340374957298  0.2748913600012  0.3867215065338 1.0
C      1  0.5490028129061  0.3076621854376  0.6462429311250 1.0
C      1  0.5119720516827  0.4762635110317  0.7008358433090 1.0
C      1  0.5999085967066  0.7974042219254  0.3235180276450 1.0
C      1  0.5339941401970  0.2778327770917  0.8328829779920 1.0
C      1  0.6894774641740  0.7582255826765  0.3428892116060 1.0
C      1  0.3874856539821  0.2604172090843  0.2645211233387 1.0
C      1  0.5361622705205  0.7832627434796  0.3892495906805 1.0
C      1  0.4739565927957  0.1939389288120  0.6085477477254 1.0
C      1  0.4746031487998  0.5675295139876  0.6769980728802 1.0
C      1  0.4967124626039  0.5779216751983  0.1861512355061 1.0
C      1  0.4627191521993  0.2499594176189  0.2022729324584 1.0
C      1  0.1636962327148  0.7104711948763  0.5861228806610 1.0
C      1  0.8017901421519  0.6047554072272  0.3685409395267 1.0
C      1  0.3030129845206  0.2458099970165  0.4710489434586 1.0
C      1  0.6243181548898  0.5780263504205  0.5833670350976 1.0
C      1  0.5456304871122  0.2487736854041  0.5600338136526 1.0
C      1  0.4052888846757  0.7152275711950  0.2238322469924 1.0
C      1  0.5595926748558  0.4345009486059  0.5434831701842 1.0
C      1  0.3428270654616  0.4379393216594  0.5435664388440 1.0
C      1  0.8345375863403  0.5436950007825  0.5074867277063 1.0
C      1  0.4208026299770  0.1326478214656  0.4726601023608 1.0
C      1  0.1463836467192  0.4656017814656  0.6059458742842 1.0
C      1  0.3343763950683  0.5722857843326  0.2171350318547 1.0
C      1  0.7530190455891  0.6116552462324  0.2891391262890 1.0
C      1  0.2191384497872  0.6285455435666  0.7165391938719 1.0
C      1  0.2576694092997  0.5685418944263  0.7860557674445 1.0
C      1  0.3219928050035  0.7124016700124  0.8168292611190 1.0
C      1  0.2902848258204  0.6213982916099  0.2809509700551 1.0
C      1  0.7949736962270  0.5466307098276  0.6063535670582 1.0
C      1  0.6737887051220  0.4287422913559  0.6577515620148 1.0
C      1  0.5434855192197  0.3939866879499  0.3833772453088 1.0
C      1  0.5004052419314  0.4804815689138  0.2163608020734 1.0
C      1  0.5953977172988  0.3566430356673  0.1655161680139 1.0
C      1  0.1856815189028  0.4230443658449  0.6730430113171 1.0
C      1  0.2599547520513  0.4012743198478  0.5030435272348 1.0
C      1  0.4999438827549  0.3313207813781  0.1656166889485 1.0
C      1  0.2886905075177  0.6970772362641  0.7190749056167 1.0
C      1  0.3891215314167  0.5336395886134  0.6522541326893 1.0
C      1  0.3780057099116  0.4412766334063  0.7967964074157 1.0
C      1  0.6594065091997  0.7049128840159  0.7965668472505 1.0
C      1  0.3781713381050  0.6896065014114  0.3869684431460 1.0
C      1  0.3553651761010  0.4031618982128  0.2041561750457 1.0
C      1  0.6944421627053  0.5221081564650  0.6226241941496 1.0
C      1  0.8351351717990  0.6409466968640  0.5098218781840 1.0
C      1  0.1638151806701  0.6333712486982  0.6400803206883 1.0
C      1  0.6743484382534  0.3119243224418  0.1824304444591 1.0
C      1  0.6824638771595  0.2227657923738  0.2277520822988 1.0
C      1  0.5263852731958  0.1831706774097  0.2104793454151 1.0
C      1  0.6471724378137  0.5273324814498  0.7967330832735 1.0
C      1  0.4645606043247  0.5444943395464  0.4928275613189 1.0
C      1  0.5442978177617  0.4967171986585  0.7990281824518 1.0
C      1  0.2930447701852  0.7447552049480  0.3830312568047 1.0
C      1  0.4006770212843  0.1619852809690  0.5587176852621 1.0
C      1  0.3080979218922  0.6256556133085  0.8457160506471 1.0
C      1  0.7836026259642  0.4343527761340  0.3792169379432 1.0
C      1  0.4138971922157  0.6207822613148  0.1911115971725 1.0
C      1  0.3744364421497  0.3861228987747  0.6240324974195 1.0
C      1  0.4936868264469  0.2288047458029  0.3885343878082 1.0
C      1  0.7133833682589  0.8067907612461  0.6092284100049 1.0
C      1  0.5241078317562  0.7965981481971  0.5710590994104 1.0
C      1  0.7163461211634  0.2720097147482  0.6634378250216 1.0
C      1  0.6478853101608  0.5346093796079  0.1851556243315 1.0
C      1  0.1720158620267  0.4498965623739  0.5082487537032 1.0
C      1  0.3307882715837  0.7073811640027  0.2976291800613 1.0
C      1  0.5354895357607  0.5992658301014  0.8107682992315 1.0
C      1  0.3383769769923  0.5338514307983  0.5775940984794 1.0
C      1  0.2161015222795  0.6998890566750  0.4285883201537 1.0
C      1  0.4544544419444  0.2653996014369  0.6623874549684 1.0
C      1  0.5051018371630  0.2909311296239  0.4771869891713 1.0
C      1  0.6280776975321  0.6194313176061  0.8188009725574 1.0
C      1  0.3729313206020  0.3421177473438  0.8068033573739 1.0
C      1  0.2651710717553  0.5633905118919  0.3596398509960 1.0
C      1  0.3144777606283  0.4811001272968  0.2357681233534 1.0
C      1  0.1791112206788  0.7325714783844  0.5076448302443 1.0
C      1  0.6084040060481  0.1700007159060  0.2226650224813 1.0
C      1  0.4053052547796  0.2195617907025  0.3469633084322 1.0
C      1  0.4948505142092  0.4719486642702  0.3268285779994 1.0
C      1  0.6479393649949  0.4647502239603  0.2845848576778 1.0
C      1  0.3767120493445  0.6007766209244  0.5159027056743 1.0
C      1  0.6937207564147  0.7765317650263  0.5163525145308 1.0
C      1  0.4001758145625  0.7673687103350  0.8046784081874 1.0
C      1  0.4997717944447  0.3910388465285  0.4760737926401 1.0
C      1  0.4581571957648  0.7386783206826  0.4283399063213 1.0
C      1  0.5961373844818  0.4503534108887  0.1992655539393 1.0
C      1  0.5915978170453  0.4774861404250  0.3612504373857 1.0
C      1  0.4451583102620  0.4068507196725  0.1764347971883 1.0
C      1  0.7992150789695  0.6480597828481  0.5940331763202 1.0
C      1  0.5925809676132  0.2415574489338  0.7872400617382 1.0
C      1  0.4353280984240  0.8494385946802  0.7763289552687 1.0
C      1  0.2697422514927  0.4677358059259  0.3189405680423 1.0
C      1  0.4758435159306  0.7683320542820  0.2232276693832 1.0
C      1  0.8026959596283  0.6801067594534  0.4291228072169 1.0
C      1  0.7698838453709  0.3534299744944  0.4206101405207 1.0
C      1  0.5956048004206  0.6316908879403  0.3992565219304 1.0
C      1  0.2789731034410  0.3724459034985  0.3407030276691 1.0
C      1  0.6545434072889  0.7746238481488  0.7519332090027 1.0
C      1  0.7455455363686  0.3475681288203  0.2382688521444 1.0
C      1  0.1601129167671  0.5484336539929  0.4901538696149 1.0
C      1  0.5642909696171  0.5291164151203  0.5201977423973 1.0
C      1  0.3869301974764  0.6914527889541  0.5654067016199 1.0
C      1  0.6500773165705  0.2366037765767  0.4299808872174 1.0
C      1  0.6449336277737  0.8253314049374  0.6722647813248 1.0
END
