TITL C-68176-7009-16 -7.214 3375.00 -1280.39394523 0 0 156 (C1) n - 1
REM
REM Run started: at 2020.07.11 18:30:27 in /home/heco/bkarasulu/work/CARBON/AIRSS/Str-Search
REM VASP from code version vasp.5.4.4.18Apr17-6-g9f103f2a35 (build Jul 02 2020 21:03:42) gamma-only
REM
REM
REM
REM
REM ./C.cell (90889e035cd0f9d0e5f9cb6dd9eb5d52)
REM AIRSS Version 0.9.1 bugfix July 2018 build 013d7b7c2542+ Fri, 06 Jul 2018 19:26:36 +0100
REM compiler GCC version 9.2.0
REM options -cpp -mtune=generic -march=x86-64 -g -O0
REM seed 2071711198 2030513543 1860323667 -1941984706 1901725391 -1172625382 -1114118919 1126685014 1177184213 -1800380134 399774982 49523403 2126273620 939766216 249853599 -1774744768 628253674 -1679781412 852634868 -880381431 1045136417 205528867 1222580641 2016759103 829491597 -1515138510 171690276 631686403 -69764720 -934463713 769613970 641618585 -933375914
REM
REM C.POTCAR (d86ddea03c3ceb6dc662c8ad6801f873)
REM 
CELL 1.54180   15.00000   15.00000   15.00000   90.00000   90.00000   90.00000
LATT -1
SFAC C  
C      1  0.2824301194358  0.2379066222404  0.5221931587368 1.0
C      1  0.0480390519781  0.4500530995334  0.4431510299285 1.0
C      1  0.4414029713939  0.4435351752010  0.4928683878329 1.0
C      1  0.2960324247187  0.7983172021700  0.3551925090792 1.0
C      1  0.8584065506784  0.5336960718107  0.3364610075143 1.0
C      1  0.5147605864980  0.2594926006388  0.7072133857206 1.0
C      1  0.2185351293294  0.3005414881123  0.4853085733004 1.0
C      1  0.6667374484192  0.7440431425657  0.2384728231794 1.0
C      1  0.7087772537442  0.7697539309131  0.5368327591854 1.0
C      1  0.4519779575734  0.1401015877121  0.5466142138674 1.0
C      1  0.3189483504968  0.6014884200773  0.5580229008678 1.0
C      1  0.8169022006337  0.4733779813576  0.5004418199396 1.0
C      1  0.6350614374075  0.5759144861334  0.6151612608169 1.0
C      1  0.3118649240721  0.4257487150645  0.7655015520210 1.0
C      1  0.6338905126841  0.5014214196031  0.5469291987539 1.0
C      1  0.5878937897967  0.6461698415686  0.7887621015629 1.0
C      1  0.2322922750867  0.6499678885213  0.3464260597768 1.0
C      1  0.5752292027721  0.2464603698517  0.6295294755577 1.0
C      1  0.3603117938895  0.3980158283883  0.5273750396114 1.0
C      1  0.7233297044056  0.6242889665866  0.3876146857218 1.0
C      1  0.1597670069221  0.3902403359368  0.6197396290062 1.0
C      1  0.7750933721696  0.4618039508766  0.6561182232232 1.0
C      1  0.6378693003830  0.2020864304168  0.7937319498021 1.0
C      1  0.4502827196317  0.7485551180368  0.3859736381659 1.0
C      1  0.2386998315082  0.5307774865515  0.8250917325593 1.0
C      1  0.5343110491703  0.1980906566182  0.5509864284302 1.0
C      1  0.4846468182820  0.2487584476672  0.3166060070146 1.0
C      1  0.2513147835502  0.6443954338051  0.2478248488356 1.0
C      1  0.4559096814607  0.9501408363948  0.4610498675135 1.0
C      1  0.6916509294901  0.1851740998331  0.5403577585106 1.0
C      1  0.9222588639271  0.5157239793772  0.2570665336050 1.0
C      1  0.4506539172721  0.3314216648852  0.6743296195221 1.0
C      1  0.4210222995878  0.3099778334537  0.8227308937954 1.0
C      1  0.1350993586891  0.4404620528964  0.4627443547931 1.0
C      1  0.5943941028413  0.1664044512979  0.4156977580666 1.0
C      1  0.5893079680771  0.4785602472321  0.8362558681023 1.0
C      1  0.4875391503665  0.6428792202713  0.5422008949547 1.0
C      1  0.3703622747901  0.3903228892489  0.4280139414190 1.0
C      1  0.6754886351764  0.1679172374219  0.7273099011677 1.0
C      1  0.5625624075923  0.5715475961035  0.8412801912033 1.0
C      1  0.5790003728447  0.2839844602574  0.7841507981962 1.0
C      1  0.2057984035423  0.3453006409824  0.3154537173237 1.0
C      1  0.4097242104737  0.5155925163279  0.3015137630921 1.0
C      1  0.4045633068002  0.2940884767976  0.3045282570344 1.0
C      1  0.3805705362091  0.4806732511946  0.3812532202336 1.0
C      1  0.3638875128847  0.7303537110762  0.6611830817238 1.0
C      1  0.8578245534642  0.4559376252428  0.2623659004480 1.0
C      1  0.8000147785763  0.3315053095633  0.3694054086480 1.0
C      1  0.3020528411180  0.2173105011634  0.6121567794735 1.0
C      1  0.5125125205494  0.3874505070476  0.5267697037820 1.0
C      1  0.6119035695860  0.1441802010076  0.5095656005947 1.0
C      1  0.5403831783921  0.2482119345302  0.4648639998346 1.0
C      1  0.6215137884187  0.7339028541175  0.5721863195783 1.0
C      1  0.5129099004319  0.3288483773586  0.8446465943934 1.0
C      1  0.3793284998420  0.6892527681024  0.4252566223885 1.0
C      1  0.6442354968424  0.3519777870472  0.7334397104497 1.0
C      1  0.6779658823668  0.8450847382380  0.3764846240552 1.0
C      1  0.6845571616268  0.5901488649032  0.3012717673421 1.0
C      1  0.3072194097099  0.5631655034356  0.8617855919318 1.0
C      1  0.5323000094429  0.6467256471332  0.2662064269135 1.0
C      1  0.2338931700681  0.3945946059152  0.2525327857539 1.0
C      1  0.3630659458399  0.4682274678878  0.7015231795636 1.0
C      1  0.5195281560114  0.7856779314671  0.7904411236180 1.0
C      1  0.3412316744605  0.7777198920559  0.2716181917886 1.0
C      1  0.4359624380012  0.5276621904899  0.4481273411668 1.0
C      1  0.6378570560219  0.6386601781266  0.5373544406392 1.0
C      1  0.7193507863792  0.5008241149034  0.7222274592668 1.0
C      1  0.5658334164773  0.8031562769782  0.7214375398451 1.0
C      1  0.3243132187253  0.5219530255493  0.6271673140321 1.0
C      1  0.6882537409601  0.8264643167309  0.4665687474627 1.0
C      1  0.5115717171550  0.3681230689008  0.2171571495247 1.0
C      1  0.6348318097015  0.5045952155084  0.2842933529868 1.0
C      1  0.4481206583437  0.5904262708493  0.1278013328504 1.0
C      1  0.8104333280245  0.3821591888239  0.2908146760748 1.0
C      1  0.6075983531795  0.5931000330723  0.1600416354105 1.0
C      1  0.1659310671483  0.3699700904796  0.5290097046897 1.0
C      1  0.5830604779380  0.4693234690482  0.3573100930544 1.0
C      1  0.5301832611449  0.4497390302891  0.1707117944741 1.0
C      1  0.6554677540472  0.4466150645136  0.7707456350319 1.0
C      1  0.4488088291387  0.4287671937995  0.6839043253260 1.0
C      1  0.2979693769476  0.4658719630308  0.5593945556274 1.0
C      1  0.4032707429790  0.6164726840459  0.4918699410903 1.0
C      1  0.3682467621944  0.3877613325944  0.8386982332968 1.0
C      1  0.2763255745967  0.4689942160386  0.2236007877590 1.0
C      1  0.5185376260113  0.4211415234363  0.8666298649579 1.0
C      1  0.3799281896193  0.4594179967388  0.2185625888774 1.0
C      1  0.8046722081625  0.3748954987074  0.5296353927193 1.0
C      1  0.7082262526679  0.3136920766554  0.6588633269513 1.0
C      1  0.5256068988122  0.7730818265439  0.4414785944934 1.0
C      1  0.4695214033172  0.7083189285796  0.2239164270131 1.0
C      1  0.4902620710812  0.5787926502535  0.3170483205667 1.0
C      1  0.3110037948890  0.8593103631548  0.4231539070387 1.0
C      1  0.1974060830649  0.5124133309912  0.4359528638264 1.0
C      1  0.2010821347503  0.5624361656676  0.3529478269277 1.0
C      1  0.4822601415280  0.6310866530298  0.6424406384986 1.0
C      1  0.4910144624877  0.6884107612025  0.7936728004329 1.0
C      1  0.5507700124581  0.3385695442426  0.4510449435893 1.0
C      1  0.2419138678338  0.3096467526312  0.3898589770356 1.0
C      1  0.5473473447674  0.5630278897101  0.6591133621594 1.0
C      1  0.3177147707486  0.6994078960120  0.2124301931984 1.0
C      1  0.5818857625955  0.4249129781426  0.5891438188248 1.0
C      1  0.3258448219505  0.8500520090233  0.5208327239727 1.0
C      1  0.3296804903730  0.7840578405948  0.5852638088133 1.0
C      1  0.5660885694572  0.5820534675656  0.4961980957228 1.0
C      1  0.6790340047323  0.2145298313462  0.6397805389864 1.0
C      1  0.8007657939143  0.5269701788930  0.5881704532095 1.0
C      1  0.7716500019622  0.6848126346844  0.5483859682677 1.0
C      1  0.4985440066567  0.1893345257815  0.3936248520956 1.0
C      1  0.6221061113428  0.7453241210956  0.6732742329214 1.0
C      1  0.1665731323039  0.4291388603539  0.6950248035998 1.0
C      1  0.6864099752578  0.7974570318117  0.2987074977306 1.0
C      1  0.7802420348707  0.5890572301021  0.3301705403558 1.0
C      1  0.5628324069326  0.3089124029646  0.2868100810105 1.0
C      1  0.5363315450971  0.6255024968397  0.1104571790695 1.0
C      1  0.2338988331665  0.5497180894521  0.2576993046202 1.0
C      1  0.7230745392962  0.6207294996878  0.4852548044763 1.0
C      1  0.7844656701444  0.6222756656930  0.6192189632310 1.0
C      1  0.6544289031913  0.6726290172694  0.7297474856337 1.0
C      1  0.2583058836771  0.5326201266288  0.5045361570171 1.0
C      1  0.4338482180165  0.3461435388413  0.5795407761169 1.0
C      1  0.6169890821363  0.3432631267328  0.6330869973034 1.0
C      1  0.3699616517361  0.9158204536638  0.4706679605162 1.0
C      1  0.4012040591646  0.6667665634875  0.1722254821362 1.0
C      1  0.2181378612581  0.4598076768827  0.7647574543381 1.0
C      1  0.5302296999965  0.5455075318632  0.4060473346201 1.0
C      1  0.5338376249431  0.9244580625051  0.4501128762317 1.0
C      1  0.3499342684731  0.2196484275255  0.4535947480564 1.0
C      1  0.4391970973418  0.6824526174252  0.7031804668029 1.0
C      1  0.5936265020911  0.8503652940987  0.4320372759789 1.0
C      1  0.7096471363878  0.5993010425085  0.6874768563385 1.0
C      1  0.6080923695504  0.5012888273404  0.1916432447191 1.0
C      1  0.4740010557859  0.6071200089716  0.8569075605484 1.0
C      1  0.2919754718195  0.7065869165350  0.3928439400177 1.0
C      1  0.4204633018633  0.3664465963642  0.2399893447188 1.0
C      1  0.4238435811273  0.1627479473632  0.4567646879129 1.0
C      1  0.6599511617103  0.2726397136388  0.3051490029898 1.0
C      1  0.4265771780547  0.4553994568210  0.8757137298246 1.0
C      1  0.7279675190687  0.2323450681807  0.4637801362269 1.0
C      1  0.4144106869346  0.2582381058988  0.7356742963364 1.0
C      1  0.4477903220555  0.4994616435305  0.1529287809011 1.0
C      1  0.9672506466000  0.4704013579212  0.4378414571756 1.0
C      1  0.5255420189932  0.4750964583199  0.6551367986029 1.0
C      1  0.3091998739096  0.6926417783323  0.5974816358732 1.0
C      1  0.8825947456234  0.4988055327187  0.4270495067524 1.0
C      1  0.4006264420002  0.5490536338486  0.8737657710078 1.0
C      1  0.7768939235014  0.3732856387019  0.6203514704075 1.0
C      1  0.5651537666627  0.3766514586161  0.3674382680763 1.0
C      1  0.7874285649458  0.3096772770719  0.4600923705078 1.0
C      1  0.7286255519902  0.5207304065381  0.5109889845825 1.0
C      1  0.5331146671432  0.7337119342069  0.5233724022889 1.0
C      1  0.4330567827664  0.7709213095340  0.2896504629986 1.0
C      1  0.3407182163769  0.2204013339084  0.6855770638103 1.0
C      1  0.3435213496978  0.2951023372652  0.3852081064213 1.0
C      1  0.6699543639339  0.2157477985148  0.3824564676043 1.0
C      1  0.7409894280310  0.3189211739508  0.2969441273952 1.0
C      1  0.6337806546802  0.6532142818850  0.2394493055797 1.0
END
