TITL C-68176-7009-14 -13.973 3375.00 -2234.92146086 0 0 271 (C1) n - 1
REM
REM Run started: at 2020.07.11 14:32:02 in /home/heco/bkarasulu/work/CARBON/AIRSS/Str-Search
REM VASP from code version vasp.5.4.4.18Apr17-6-g9f103f2a35 (build Jul 02 2020 21:03:42) gamma-only
REM
REM
REM
REM
REM ./C.cell (90889e035cd0f9d0e5f9cb6dd9eb5d52)
REM AIRSS Version 0.9.1 bugfix July 2018 build 013d7b7c2542+ Fri, 06 Jul 2018 19:26:36 +0100
REM compiler GCC version 9.2.0
REM options -cpp -mtune=generic -march=x86-64 -g -O0
REM seed 544943407 -1009331477 1952305311 1446297136 -658936021 -724122692 38102042 -633174557 674305054 945075616 -970478520 2046412655 -1389316905 -577129341 -654411189 -715065049 -2051683096 -1025036022 -246143095 1355316873 -1934342785 1643940338 -1350997093 2055871397 1531710558 -1388799846 -499328804 1758339138 488884213 -1295988968 141608797 -1957819026 -44854497
REM
REM C.POTCAR (d86ddea03c3ceb6dc662c8ad6801f873)
REM 
CELL 1.54180   15.00000   15.00000   15.00000   90.00000   90.00000   90.00000
LATT -1
SFAC C  
C      1  0.5090913835391  0.2596334746805  0.3699461858461 1.0
C      1  0.2173821610052  0.5929707587927  0.8356828381313 1.0
C      1  0.4389878628814  0.4630000976879  0.2718972478356 1.0
C      1  0.6777757963558  0.5381765241203  0.6940993939201 1.0
C      1  0.0942363608043  0.6717056450233  0.6229406520866 1.0
C      1  0.6249438375044  0.1084634457058  0.3926377480938 1.0
C      1  0.6342365767803  0.9365776024065  0.5378300491763 1.0
C      1  0.6905344458333  0.3668060785929  0.1205205821060 1.0
C      1  0.7586651923846  0.8505651471839  0.4895202311771 1.0
C      1  0.8670791259585  0.3125529875036  0.2927075534092 1.0
C      1  0.6755321387785  0.3508988129665  0.4875671164668 1.0
C      1  0.7055628048982  0.6831905518382  0.0672256312730 1.0
C      1  0.3719566843784  0.4486646044011  0.6347051533460 1.0
C      1  0.9130757974440  0.5331429734467  0.2972202934570 1.0
C      1  0.8105764599562  0.6746856707587  0.2236366424155 1.0
C      1  0.6062468249657  0.4478064701065  0.3142065167015 1.0
C      1  0.8103721706589  0.2618325659796  0.2517138444513 1.0
C      1  0.2351118473053  0.3267865552759  0.5760283879500 1.0
C      1  0.8715076275699  0.6925842506307  0.3106671611682 1.0
C      1  0.7915513942328  0.8251070880050  0.6984880942990 1.0
C      1  0.6279775204088  0.2691371708548  0.4802966627766 1.0
C      1  0.2865199010113  0.7183586932544  0.7679720878024 1.0
C      1  0.3787623180385  0.0931094137385  0.7047657220420 1.0
C      1  0.4633276999501  0.1608818767291  0.2027639768836 1.0
C      1  0.3467980225964  0.2063045899822  0.8231532435651 1.0
C      1  0.9055491742106  0.5000566631721  0.6703287511367 1.0
C      1  0.7011845881454  0.5486613103904  0.8551137365939 1.0
C      1  0.4109477499160  0.5494137042975  0.2949062475488 1.0
C      1  0.4226256175345  0.7991894985674  0.1906206281334 1.0
C      1  0.2008104023582  0.8072004466210  0.5672132774009 1.0
C      1  0.6458774373399  0.4878247503170  0.9222948572362 1.0
C      1  0.2297725305750  0.5608820245836  0.3468234684639 1.0
C      1  0.3932841667676  0.6621644833106  0.1279963945955 1.0
C      1  0.5814836942257  0.6397867257246  0.4725186132048 1.0
C      1  0.6913872686716  0.4146721294610  0.0358082075058 1.0
C      1  0.5028944004843  0.4282376703564  0.1105458256385 1.0
C      1  0.0999627966315  0.3786056646515  0.3644857328077 1.0
C      1  0.2920829504387  0.3923192432746  0.2738606765479 1.0
C      1  0.3548831955708  0.6964287712251  0.7125383445480 1.0
C      1  0.3366273552127  0.8767606208409  0.3160537172689 1.0
C      1  0.5349477266062  0.3681230855996  0.8883831077823 1.0
C      1  0.6275167157985  0.1223027570635  0.7168670706062 1.0
C      1  0.5620493082458  0.1279268701441  0.6441229244086 1.0
C      1  0.8183766937637  0.7730363208109  0.4679549757524 1.0
C      1  0.3081816571345  0.2009337993467  0.2144655369429 1.0
C      1  0.8982794109165  0.4012090934378  0.4354240090670 1.0
C      1  0.6632458102562  0.5559852183517  0.6041072817289 1.0
C      1  0.4382859594779  0.6530713855054  0.7445287339347 1.0
C      1  0.0014514661531  0.3738353409929  0.5647664633502 1.0
C      1  0.7730283977321  0.3988198915250  0.8614255894442 1.0
C      1  0.9686326839389  0.6091750300092  0.5247225655471 1.0
C      1  0.5643254782412  0.1746941816369  0.2305112733351 1.0
C      1  0.6282801621495  0.3282580073713  0.8905924430387 1.0
C      1  0.9130946836674  0.3789885405575  0.3382646906558 1.0
C      1  0.3876186354672  0.1769902951683  0.6577309328877 1.0
C      1  0.3806777352704  0.8905613828377  0.7405539579211 1.0
C      1  0.4961742821883  0.4283259109871  0.5576645522004 1.0
C      1  0.7361752119234  0.6433361045405  0.8900077761219 1.0
C      1  0.7135855715332  0.7834453789804  0.4373110233520 1.0
C      1  0.2920929793517  0.6593049911184  0.8457012056321 1.0
C      1  0.4212846097273  0.7737018745673  0.5863947680380 1.0
C      1  0.4415057324265  0.2540209512308  0.6862144482482 1.0
C      1  0.3774634015970  0.2427519392276  0.4401767324853 1.0
C      1  0.7101508784115  0.1327887884015  0.6780724170046 1.0
C      1  0.4223319387226  0.3039340098941  0.2488258695691 1.0
C      1  0.4213991818472  0.2661439483022  0.3504697697078 1.0
C      1  0.4179710369280  0.0981309145220  0.2606899035920 1.0
C      1  0.8351272228865  0.2765318261430  0.6550980989161 1.0
C      1  0.2004781069883  0.4244056264206  0.1536902500089 1.0
C      1  0.3989849796319  0.0667153840292  0.4671524778371 1.0
C      1  0.7452818107104  0.4647760736764  0.7090023109152 1.0
C      1  0.7925830913825  0.2419047525312  0.5019345967998 1.0
C      1  0.6500970138780  0.6206012060495  0.1075645652093 1.0
C      1  0.6225523247798  0.9474077642102  0.3605440166401 1.0
C      1  0.7693117032504  0.7664819917478  0.7776741881155 1.0
C      1  0.5245873023030  0.4230819433504  0.2788479497369 1.0
C      1  0.3221924421971  0.1223683941184  0.2736922868004 1.0
C      1  0.1465879084037  0.3583817777139  0.6058642825914 1.0
C      1  0.9682963173529  0.4597584054690  0.3008925032800 1.0
C      1  0.9214105434652  0.6176346914881  0.3476878763328 1.0
C      1  0.8381939889341  0.7816684387216  0.6335532978919 1.0
C      1  0.4689112260235  0.6074934092377  0.3406027253056 1.0
C      1  0.5055774912108  0.7615454923176  0.1444154901745 1.0
C      1  0.5758805822113  0.0971805499094  0.2982281623680 1.0
C      1  0.3856718258911  0.4353757880910  0.4257109512755 1.0
C      1  0.3395697308806  0.4501041178936  0.0688330225468 1.0
C      1  0.5822257009456  0.4716743291796  0.5312608742731 1.0
C      1  0.0614898301070  0.7162534942309  0.3809652655601 1.0
C      1  0.3795862205558  0.7000388602309  0.4378116453339 1.0
C      1  0.8119438702278  0.5341972163855  0.3058178710220 1.0
C      1  0.5362603405357  0.0569732074956  0.5753955843665 1.0
C      1  0.8174578134392  0.4831070038389  0.6452233290137 1.0
C      1  0.5757502251016  0.1867309657205  0.7799099087059 1.0
C      1  0.2380918140688  0.7317312456389  0.3112949265528 1.0
C      1  0.5657919995615  0.8658892079421  0.7355357040083 1.0
C      1  0.5281511092934  0.2761624497725  0.4660677591366 1.0
C      1  0.6248084447886  0.2917922019712  0.1248088825223 1.0
C      1  0.1416223396629  0.3767384948496  0.4485072783214 1.0
C      1  0.6461194544530  0.2154859031630  0.1747151374071 1.0
C      1  0.5588133598086  0.7299541883558  0.5083209209506 1.0
C      1  0.0898309804219  0.7071556398000  0.3041279644178 1.0
C      1  0.6301955858996  0.3436952770481  0.7420169230233 1.0
C      1  0.5548033064536  0.5936836984887  0.3860267710354 1.0
C      1  0.2754951546065  0.2649040073960  0.7982522538997 1.0
C      1  0.3665594503897  0.5654675365037  0.9459389062164 1.0
C      1  0.6838633635347  0.7432250599297  0.7385379376184 1.0
C      1  0.5864618670563  0.7497569071733  0.2028491715160 1.0
C      1  0.6823709228622  0.6896578005710  0.9662889068838 1.0
C      1  0.5792336907672  0.5682854147626  0.5527484568133 1.0
C      1  0.1731064754252  0.1768427150859  0.5924294506660 1.0
C      1  0.2520452499163  0.5571039045049  0.6846593118523 1.0
C      1  0.7690574555979  0.1953364518871  0.4318495238535 1.0
C      1  0.0939399442178  0.4026293296015  0.5304174547196 1.0
C      1  0.4996200478716  0.8926245393187  0.4587174556073 1.0
C      1  0.1982138565459  0.2844912855621  0.7369720993987 1.0
C      1  0.4223202484146  0.6964657389215  0.3501937898546 1.0
C      1  0.1054851568097  0.4093494188299  0.6838048696881 1.0
C      1  0.4976279710852  0.7646208542608  0.3527208590629 1.0
C      1  0.4676404552907  0.4148347654553  0.6626462837282 1.0
C      1  0.9276606874505  0.4090792421823  0.7054112110466 1.0
C      1  0.3323972645377  0.6933787708805  0.2850926768725 1.0
C      1  0.2818595548993  0.8657257411732  0.3940253360861 1.0
C      1  0.6197737425316  0.8684896516550  0.3065953548786 1.0
C      1  0.2337512338761  0.5860985655642  0.4368377477722 1.0
C      1  0.5980265461858  0.3887830557698  0.8148283461835 1.0
C      1  0.5477867413225  0.7217769875560  0.8534403221389 1.0
C      1  0.1014195904607  0.5956893943247  0.6843639140968 1.0
C      1  0.9212211669617  0.3454569773685  0.5169499911929 1.0
C      1  0.7014637851631  0.3935002500644  0.2075338867833 1.0
C      1  0.6701507347643  0.7071271697274  0.6551639881008 1.0
C      1  0.2174330766869  0.4151185058145  0.8239048767538 1.0
C      1  0.5071496351653  0.7923027917696  0.4478235020817 1.0
C      1  0.6760256584908  0.3764322273867  0.2927436308253 1.0
C      1  0.6953068248503  0.3755098013820  0.6878643765888 1.0
C      1  0.4089475559273  0.8852773589554  0.4722290045870 1.0
C      1  0.3696508545565  0.7229896503086  0.1974410637671 1.0
C      1  0.2078718925049  0.2114499113107  0.3237858383741 1.0
C      1  0.6302495724360  0.4823436042916  0.0235896107951 1.0
C      1  0.4701086676433  0.8821484752001  0.7143637120814 1.0
C      1  0.6568142954892  0.7146871863937  0.4903841531641 1.0
C      1  0.3701857562187  0.5191098889186  0.4834836774753 1.0
C      1  0.3120212724640  0.8990786612071  0.4806603452065 1.0
C      1  0.0074847552379  0.3826489256473  0.6566592026853 1.0
C      1  0.3536406477914  0.7070625995923  0.6164655771182 1.0
C      1  0.6771002853923  0.2030277469780  0.4022452391686 1.0
C      1  0.1030573116761  0.5071339337125  0.6474040175663 1.0
C      1  0.8264696354063  0.5288006568346  0.5552257025349 1.0
C      1  0.4606146985550  0.3718803568221  0.4826090585579 1.0
C      1  0.7529351112536  0.7282229751017  0.1500186466563 1.0
C      1  0.3797409612866  0.3941814519694  0.2268908883744 1.0
C      1  0.8334002692461  0.7555774739878  0.3676459759010 1.0
C      1  0.4223812757100  0.8636620147344  0.6328155194063 1.0
C      1  0.2334639091094  0.2539332874241  0.2396633843226 1.0
C      1  0.3986344881376  0.2290394188883  0.1872371330752 1.0
C      1  0.4001723932528  0.1593416472635  0.5630743369458 1.0
C      1  0.7066034066498  0.2848712917431  0.5467094135220 1.0
C      1  0.0860270852076  0.7231149704677  0.4716818534419 1.0
C      1  0.5599793755283  0.7943530163354  0.2926419521884 1.0
C      1  0.3121294027335  0.6444294554939  0.5647687200717 1.0
C      1  0.4840371866388  0.6810875367133  0.0991657806694 1.0
C      1  0.7237512519289  0.2325093109573  0.2391767750958 1.0
C      1  0.4281449058013  0.5075358498675  0.5670634113055 1.0
C      1  0.7208216178186  0.6861355957268  0.5673844700880 1.0
C      1  0.2120965393032  0.2312656172706  0.4145385051174 1.0
C      1  0.6188987772501  0.5258312997174  0.3701801045515 1.0
C      1  0.1612845264271  0.3701843753601  0.7588486579208 1.0
C      1  0.2037396062744  0.7111479861143  0.7195530915126 1.0
C      1  0.2344041390216  0.5025215560209  0.8594652328586 1.0
C      1  0.9271640316654  0.5863782089082  0.4418129136667 1.0
C      1  0.5038837979287  0.5011829154054  0.6988437431003 1.0
C      1  0.7662319270647  0.5942884458331  0.2389244215378 1.0
C      1  0.2436772378294  0.1414776102587  0.4464411395414 1.0
C      1  0.5502966953142  0.5036451573351  0.0787746224716 1.0
C      1  0.4490949180326  0.5510319849331  0.7666141189573 1.0
C      1  0.4488041492652  0.2329398128591  0.5149323464561 1.0
C      1  0.1698106241459  0.6926651320793  0.2568130047042 1.0
C      1  0.7206269072708  0.8858797836081  0.6583121086315 1.0
C      1  0.3966602850138  0.1251315636793  0.7975165842120 1.0
C      1  0.1863402674756  0.1269310808247  0.5276478735062 1.0
C      1  0.1642143094174  0.7421926366351  0.6407201094632 1.0
C      1  0.6002758185260  0.6386614989046  0.1987927311584 1.0
C      1  0.3043327470903  0.4084747621896  0.3619579084609 1.0
C      1  0.1702304511364  0.7755240748565  0.4783817639151 1.0
C      1  0.3155761640947  0.5897170628355  0.2827393950525 1.0
C      1  0.5508848105724  0.6044990956997  0.1076373462097 1.0
C      1  0.1170235160742  0.4989498176558  0.5542555645624 1.0
C      1  0.7157897693405  0.8913905504626  0.5629757481445 1.0
C      1  0.6045501863680  0.7136390059074  0.9271369726696 1.0
C      1  0.3093289747199  0.4385025093640  0.4967016412968 1.0
C      1  0.3904526099369  0.3119814294462  0.5181389042779 1.0
C      1  0.1810790635282  0.6142087460732  0.7429750312055 1.0
C      1  0.6994216042797  0.5164663466644  0.4337539619025 1.0
C      1  0.4822670372395  0.1669905035392  0.8290508327200 1.0
C      1  0.2227494555238  0.7918516901282  0.3933445294233 1.0
C      1  0.4270526962144  0.0612402994825  0.5629285101724 1.0
C      1  0.1818967286023  0.2622992471014  0.6385549436367 1.0
C      1  0.5739929493751  0.7181716442090  0.6734776869412 1.0
C      1  0.5120142119036  0.7329087161002  0.5987194964252 1.0
C      1  0.3264719127333  0.6219082933718  0.4703736652992 1.0
C      1  0.1587073881528  0.5211827169416  0.2926338028536 1.0
C      1  0.3890418510661  0.8631219147179  0.2528414813734 1.0
C      1  0.7817339352443  0.7027608252293  0.8395202990634 1.0
C      1  0.4827147120741  0.0729447291546  0.3220356943507 1.0
C      1  0.2553214106116  0.4206745530619  0.0850295250168 1.0
C      1  0.7450795559390  0.2494070848727  0.7911028824995 1.0
C      1  0.7584532742616  0.2168722794370  0.6989348139742 1.0
C      1  0.3403598270454  0.1513481858126  0.4726290310392 1.0
C      1  0.1900043583430  0.5553839775863  0.5212442934210 1.0
C      1  0.8625877032999  0.4981394486461  0.4567076346356 1.0
C      1  0.4322044806620  0.3408358541059  0.7167346508346 1.0
C      1  0.5004942782508  0.6538800319040  0.6620284920397 1.0
C      1  0.7331984313634  0.3000251646880  0.6395971939047 1.0
C      1  0.2734914179307  0.5780638294557  0.1913135381063 1.0
C      1  0.3747569356980  0.4884157694863  0.7943921340595 1.0
C      1  0.1904351183496  0.5184396460255  0.1991260561267 1.0
C      1  0.6478341221559  0.0344736503230  0.3307296891474 1.0
C      1  0.2131795308261  0.3097406113231  0.4717081950446 1.0
C      1  0.7019123421533  0.8282262915042  0.2736948376368 1.0
C      1  0.6464101449307  0.2590706979704  0.8116588960431 1.0
C      1  0.5890550998523  0.7678500475443  0.7638086682067 1.0
C      1  0.3312343803704  0.5063264693149  0.8814178613645 1.0
C      1  0.8041538075478  0.3237060963576  0.8065627642120 1.0
C      1  0.8639107262858  0.3379409513806  0.7314343907145 1.0
C      1  0.7861193185038  0.5100078566420  0.3913830683606 1.0
C      1  0.5414644981240  0.3399833511284  0.1386119425281 1.0
C      1  0.6670064011915  0.2680177008584  0.3156185837921 1.0
C      1  0.3363614421222  0.5929851180909  0.1123464911111 1.0
C      1  0.6552064354430  0.4419581710213  0.4845157191673 1.0
C      1  0.2056665853284  0.3533976526574  0.2299405500773 1.0
C      1  0.5190707468277  0.3308016855664  0.2370181219391 1.0
C      1  0.4055333889363  0.4248462277720  0.1331026014085 1.0
C      1  0.1863425762773  0.6244045237786  0.1881616580120 1.0
C      1  0.2458434190581  0.5840321149141  0.5921433254529 1.0
C      1  0.6270144026952  0.9179677716353  0.6873009720206 1.0
C      1  0.2930618692592  0.3546346834575  0.8318637959433 1.0
C      1  0.0731910274042  0.4561633720216  0.3057678959820 1.0
C      1  0.4296992119276  0.2417277886048  0.8659255849741 1.0
C      1  0.4143427832878  0.7775700605955  0.4860426524526 1.0
C      1  0.6988815312426  0.3951485019759  0.9337175649588 1.0
C      1  0.5271750116502  0.2081983926316  0.6843696579952 1.0
C      1  0.3870827905094  0.3824304344631  0.8051360426676 1.0
C      1  0.4579635530702  0.6863692087084  0.8411480867722 1.0
C      1  0.5911964542582  0.9733373306280  0.6086502708972 1.0
C      1  0.9181843728568  0.5605557863860  0.5939381006871 1.0
C      1  0.5677065194990  0.2603140761243  0.2913698755206 1.0
C      1  0.6876339570641  0.7784089215121  0.1925677083889 1.0
C      1  0.8639970697328  0.2814351191546  0.5561547209824 1.0
C      1  0.7371167737324  0.5807708588698  0.5449743756677 1.0
C      1  0.3483239460716  0.5410530616887  0.0329246646805 1.0
C      1  0.1216057286095  0.3694247981091  0.2806600040322 1.0
C      1  0.2416087745095  0.4000060930648  0.4359321911687 1.0
C      1  0.5586281236060  0.0543686357382  0.4649336281658 1.0
C      1  0.3737211202369  0.0223353080537  0.6407180622772 1.0
C      1  0.3769657122694  0.6508855183907  0.8906354382580 1.0
C      1  0.5673752411268  0.4642186510080  0.8633708065157 1.0
C      1  0.5020898461182  0.5660912374793  0.6186158753179 1.0
C      1  0.4497051556357  0.3315396616847  0.8684947413664 1.0
C      1  0.4724725370449  0.0620644214061  0.4139625525958 1.0
C      1  0.2720462570401  0.8774463680087  0.5677335210023 1.0
C      1  0.3448903291952  0.9217757183557  0.6405702505490 1.0
C      1  0.5820981371447  0.9541789154354  0.4536917569542 1.0
C      1  0.3259219661526  0.3749117435031  0.5723308402003 1.0
C      1  0.0440500957633  0.6725505606543  0.5411132227942 1.0
C      1  0.5446052710126  0.5279286642498  0.7887136788327 1.0
C      1  0.7504251878996  0.7949124388500  0.3444566454599 1.0
C      1  0.3196343378127  0.4981776069340  0.7068422588756 1.0
C      1  0.7621053142481  0.4758108686145  0.8118606783012 1.0
C      1  0.8106928395990  0.7372833940871  0.5607732233154 1.0
C      1  0.6778103960960  0.5822822329105  0.1973484650811 1.0
C      1  0.6369552577030  0.5633875930125  0.7757505725444 1.0
C      1  0.2540529708854  0.1256655108350  0.3399376439126 1.0
END
