TITL C-68176-7009-29 -11.195 3375.00 -2822.04523178 0 0 339 (C1) n - 1
REM
REM Run started: at 2020.07.12 08:17:03 in /home/heco/bkarasulu/work/CARBON/AIRSS/Str-Search
REM VASP from code version vasp.5.4.4.18Apr17-6-g9f103f2a35 (build Jul 02 2020 21:03:42) gamma-only
REM
REM
REM
REM
REM ./C.cell (90889e035cd0f9d0e5f9cb6dd9eb5d52)
REM AIRSS Version 0.9.1 bugfix July 2018 build 013d7b7c2542+ Fri, 06 Jul 2018 19:26:36 +0100
REM compiler GCC version 9.2.0
REM options -cpp -mtune=generic -march=x86-64 -g -O0
REM seed -1940356958 -382689344 -1130441780 1560972061 -24866897 -845707198 1255610776 1448937363 -608986342 1393912163 -346886054 -1351697071 454239094 1869038540 2137304634 2104287189 897742660 1550318364 -607186653 -1907684096 1007329814 1478748820 1679193480 -397572643 -1608554618 -1189815492 -1948655537 -1271427336 -317066947 -470410319 915463545 549808702 -948003522
REM
REM C.POTCAR (d86ddea03c3ceb6dc662c8ad6801f873)
REM 
CELL 1.54180   15.00000   15.00000   15.00000   90.00000   90.00000   90.00000
LATT -1
SFAC C  
C      1  0.5881323722042  0.3855618633025  0.4618413472018 1.0
C      1  0.4393782439429  0.8349428740670  0.7706531985947 1.0
C      1  0.2854230654176  0.2517276246354  0.8889183794952 1.0
C      1  0.2721017044020  0.8062788215859  0.8330805833524 1.0
C      1  0.5946484677390  0.1202022568510  0.4267921095807 1.0
C      1  0.7706083600520  0.3390694360661  0.5680364228881 1.0
C      1  0.6104239043077  0.5347841098675  0.1471803101632 1.0
C      1  0.5710251699721  0.5550633130223  0.5223469422886 1.0
C      1  0.3705097178728  0.2530692294143  0.9206267533711 1.0
C      1  0.8599365291081  0.9104582700128  0.4246188255447 1.0
C      1  0.2216246939804  0.2415746454370  0.5396962936943 1.0
C      1  0.3400832574303  0.6391477817521  0.9595250770511 1.0
C      1  0.4500058276028  0.5930850319713  0.2538716399995 1.0
C      1  0.2703221986140  0.9144146871122  0.3197353536865 1.0
C      1  0.2083701221116  0.7551480678363  0.1629664460956 1.0
C      1  0.5216535839982  0.2725722574399  0.8956216628672 1.0
C      1  0.6500482154614  0.4264471929838  0.5976081115594 1.0
C      1  0.4808902707153  0.3399681321475  0.2820347997506 1.0
C      1  0.1927270838941  0.4832685314867  0.2645097300570 1.0
C      1  0.7959155204025  0.4199776990674  0.1324355903383 1.0
C      1  0.4853770299026  0.9594982536408  0.5849791016122 1.0
C      1  0.3428626005153  0.4315830231560  0.2545867598196 1.0
C      1  0.9746799519881  0.5499990451607  0.7316081212657 1.0
C      1  0.7197415676098  0.5973061614849  0.9551432912548 1.0
C      1  0.5038418889721  0.4744797213646  0.9133217797183 1.0
C      1  0.4497166469069  0.6165306001998  0.4072823588130 1.0
C      1  0.2091707678587  0.3462495365079  0.1404417715844 1.0
C      1  0.2581865077646  0.4289680792079  0.4885618724800 1.0
C      1  0.6167260765373  0.7867044528316  0.6030416081745 1.0
C      1  0.4276247165899  0.5613276810844  0.6434180389659 1.0
C      1  0.8649433276110  0.7516528967899  0.7872501419432 1.0
C      1  0.9414449430748  0.4805019815936  0.2958217565335 1.0
C      1  0.4158128538968  0.0660189283497  0.6884769618057 1.0
C      1  0.1762637044851  0.3734395270676  0.4663358707350 1.0
C      1  0.8615695736901  0.3869702795275  0.5556760306165 1.0
C      1  0.3846851859859  0.4815535873989  0.0244659028068 1.0
C      1  0.6243030842388  0.6478239467365  0.6690871985796 1.0
C      1  0.7878369415351  0.5194453902826  0.1171426525281 1.0
C      1  0.2485519485608  0.4333070750087  0.1185490522492 1.0
C      1  0.4332661913061  0.4329500537833  0.8619101695925 1.0
C      1  0.2881698129466  0.5969336836084  0.4640606293872 1.0
C      1  0.6743416009518  0.3419972355516  0.8581656899331 1.0
C      1  0.6351175016230  0.5188606501680  0.0562209763145 1.0
C      1  0.4472398790267  0.7027280333380  0.4619546303789 1.0
C      1  0.5881787717304  0.4094827960533  0.7304947477028 1.0
C      1  0.3478404388970  0.5795130503517  0.2849678278300 1.0
C      1  0.1797935805130  0.8866983084208  0.3423652887018 1.0
C      1  0.5158929210985  0.1409081696069  0.5971968473888 1.0
C      1  0.1278296181098  0.4938365002665  0.3388572010286 1.0
C      1  0.6075824374143  0.1575054180893  0.6423963137355 1.0
C      1  0.4378084251310  0.4308994772877  0.2739489660561 1.0
C      1  0.4352850454326  0.6438599342803  0.8404533888892 1.0
C      1  0.8237038439163  0.1345312884092  0.6180449937794 1.0
C      1  0.3556899788938  0.5897524379869  0.8124555346720 1.0
C      1  0.0688185182692  0.7309341457020  0.6482777776219 1.0
C      1  0.3515090269956  0.1807315275377  0.3973603858575 1.0
C      1  0.1430218164148  0.5918253926682  0.4635316272587 1.0
C      1  0.1402194720826  0.3777770634990  0.5789484278732 1.0
C      1  0.5072837432709  0.7273327727632  0.9638968719597 1.0
C      1  0.4513935178051  0.2122068396018  0.3890804357136 1.0
C      1  0.9571648150232  0.7880039624439  0.4802011752026 1.0
C      1  0.8617618016006  0.1959324537721  0.3971028119965 1.0
C      1  0.0850212903253  0.6320406390990  0.6240258208822 1.0
C      1  0.7851594483835  0.0747967727161  0.5592725271530 1.0
C      1  0.2234184228837  0.5256417487519  0.4984905307663 1.0
C      1  0.4031698568101  0.6432239753702  0.0894697006713 1.0
C      1  0.0496726731613  0.3116810494665  0.7275320972139 1.0
C      1  0.1706381486127  0.3249546954054  0.2230042152837 1.0
C      1  0.5200874681271  0.9139321324998  0.2660780860691 1.0
C      1  0.3635814916662  0.4180575863302  0.9391939384580 1.0
C      1  0.9860878359113  0.7218433097484  0.6846337818232 1.0
C      1  0.8195485095359  0.5633991649043  0.5009633343045 1.0
C      1  0.7942880378590  0.6808739537303  0.3041541495653 1.0
C      1  0.0493516661670  0.7976895206152  0.3691010861167 1.0
C      1  0.6792563691192  0.2298869618549  0.4988574568767 1.0
C      1  0.6808330469054  0.1007522422399  0.6717354795801 1.0
C      1  0.3208683621722  0.1727936943927  0.3018347861142 1.0
C      1  0.5530083868589  0.2903303186666  0.5935443142781 1.0
C      1  0.7671374094968  0.9185575889488  0.5402862816266 1.0
C      1  0.6053457716279  0.2589897479599  0.0846049906559 1.0
C      1  0.6642203159200  0.1000769755229  0.2830745686997 1.0
C      1  0.8737255618750  0.4478350759771  0.8245175134383 1.0
C      1  0.5114217197306  0.6251073348290  0.7812295962642 1.0
C      1  0.8634523564227  0.2400554150157  0.4913240302714 1.0
C      1  0.5195296605988  0.0142621103302  0.3171389693093 1.0
C      1  0.4188185482745  0.4509202304818  0.4913584166379 1.0
C      1  0.6076366535553  0.2786637179567  0.4357896137887 1.0
C      1  0.3792076994808  0.2676329269366  0.4332782370311 1.0
C      1  0.8936548087959  0.3386395464058  0.2660510246343 1.0
C      1  0.1202868891160  0.2342026235368  0.6982775815791 1.0
C      1  0.6535880486815  0.5932218163202  0.2072977031685 1.0
C      1  0.5202799875961  0.1761019405123  0.6911840431006 1.0
C      1  0.7383750366469  0.6055291896234  0.3570545987452 1.0
C      1  0.5784239136767  0.3853205958420  0.1591595384039 1.0
C      1  0.4171734486997  0.1454334025689  0.8196710510241 1.0
C      1  0.0306957680393  0.4723536067603  0.7305810027998 1.0
C      1  0.3539227447181  0.3187242618035  0.0691106025147 1.0
C      1  0.1384529153292  0.7686315544336  0.2191687673673 1.0
C      1  0.8407759332605  0.3547489031177  0.8095736278414 1.0
C      1  0.9071076393099  0.5599123283294  0.3428826207885 1.0
C      1  0.5058115413201  0.5036223632285  0.2617995839087 1.0
C      1  0.2438963129001  0.1872174729405  0.2465706327879 1.0
C      1  0.3924447826714  0.3289990141577  0.9765485489480 1.0
C      1  0.8705505590867  0.3973971714687  0.1893984114010 1.0
C      1  0.4867205702250  0.5028945856043  0.0024687425984 1.0
C      1  0.8379021679950  0.2723715697726  0.3216571188633 1.0
C      1  0.5551631855438  0.4724958790287  0.1814712477792 1.0
C      1  0.4050311223579  0.6874719530524  0.5487760874059 1.0
C      1  0.8925660811483  0.2609766839051  0.6695592667792 1.0
C      1  0.6340033513071  0.7731884129972  0.3116867102663 1.0
C      1  0.1503554909547  0.1942645109963  0.4766663137108 1.0
C      1  0.2409494909062  0.8920381306644  0.5986284822958 1.0
C      1  0.0570442996397  0.4178632669262  0.5990692722599 1.0
C      1  0.4308393686946  0.9087539369214  0.3252998553262 1.0
C      1  0.1462163649598  0.2789776992112  0.6038400463904 1.0
C      1  0.5960688550052  0.5791091955245  0.8174693334790 1.0
C      1  0.7197942479988  0.5683650666670  0.0526162093694 1.0
C      1  0.7470242215389  0.2424475143876  0.7288226526365 1.0
C      1  0.2233863010756  0.1377406820556  0.5124741064539 1.0
C      1  0.6615155693746  0.2109841955314  0.1400486546196 1.0
C      1  0.6287032796003  0.1701488370473  0.2228798108747 1.0
C      1  0.2324771337247  0.3327346964651  0.8915228368255 1.0
C      1  0.8129545154728  0.4789878658543  0.5576253589507 1.0
C      1  0.1214993478645  0.8221459513929  0.3049287512256 1.0
C      1  0.7619737549033  0.1257145299430  0.2991444643646 1.0
C      1  0.3089273819757  0.6614032157887  0.0539151661870 1.0
C      1  0.2153545259385  0.4282521499938  0.6325265353348 1.0
C      1  0.3161660548874  0.0109670535463  0.5808173312096 1.0
C      1  0.2027648696043  0.8372018668515  0.6652711426674 1.0
C      1  0.4644864127620  0.6459276084473  0.6115714950520 1.0
C      1  0.7400696289719  0.7995064305678  0.1879293579650 1.0
C      1  0.4271594019582  0.6780251318575  0.9229104197432 1.0
C      1  0.5595383094570  0.4978809535492  0.6928226245515 1.0
C      1  0.5873908881809  0.4945216808421  0.8666495612878 1.0
C      1  0.5788895474710  0.7092494705792  0.3670830821497 1.0
C      1  0.4036909304407  0.2679893617079  0.5303402197970 1.0
C      1  0.5092876796036  0.8472516093242  0.4642663127263 1.0
C      1  0.3068443473614  0.7121132714370  0.6819021670562 1.0
C      1  0.6896819014633  0.9475142445817  0.5914865885929 1.0
C      1  0.8428988302555  0.6620298385914  0.5323329567236 1.0
C      1  0.7383473932288  0.3444324502791  0.1226161967914 1.0
C      1  0.7445400951343  0.2584150355699  0.1622161684724 1.0
C      1  0.4961707878478  0.2232718331292  0.5399454145422 1.0
C      1  0.4690844228382  0.1141644315240  0.7461080028311 1.0
C      1  0.5952607483684  0.7887962063854  0.7613697945342 1.0
C      1  0.2650095751442  0.0614139110058  0.6462947366030 1.0
C      1  0.6764683472221  0.1314997294895  0.4653917240148 1.0
C      1  0.1833641656255  0.6076268953858  0.6428828053996 1.0
C      1  0.3795115426978  0.1923966205971  0.1597362851607 1.0
C      1  0.3442415230121  0.4231244848039  0.4483228704591 1.0
C      1  0.1933515728924  0.5027408649856  0.7888394534815 1.0
C      1  0.7072823352847  0.0348888716426  0.6067169646236 1.0
C      1  0.4948052786491  0.3229746281762  0.9863918273340 1.0
C      1  0.3172328047059  0.1165037303013  0.4634112502309 1.0
C      1  0.6981949804496  0.7848711970056  0.7346643335737 1.0
C      1  0.0925370722216  0.2080238059413  0.5545283928309 1.0
C      1  0.3583326258763  0.0269146807388  0.4238996568520 1.0
C      1  0.3996887167315  0.1811013134262  0.2475776818900 1.0
C      1  0.6463703720305  0.3527354002190  0.0868045634991 1.0
C      1  0.3903560912448  0.7305992562518  0.3133536677302 1.0
C      1  0.1372526740629  0.8068391323259  0.5241564228020 1.0
C      1  0.3749349789492  0.7994309947952  0.2411315903099 1.0
C      1  0.8511925055870  0.8409380391612  0.6638760847134 1.0
C      1  0.6367279215848  0.2727143864425  0.3415659959391 1.0
C      1  0.5062330045602  0.3538144028901  0.8335483477972 1.0
C      1  0.2578060255777  0.1902969991147  0.8208342026588 1.0
C      1  0.9078873921116  0.4805646021918  0.2098394808211 1.0
C      1  0.3239208645092  0.1293895918275  0.7957400307311 1.0
C      1  0.0057984744224  0.3872880161962  0.6800939310405 1.0
C      1  0.5972772328511  0.7247785753298  0.5283829143931 1.0
C      1  0.3349117845933  0.8750130298269  0.4504314952434 1.0
C      1  0.6196675580344  0.8842903219014  0.5796932682234 1.0
C      1  0.6922432968668  0.2049090268773  0.2981844106340 1.0
C      1  0.2478103331614  0.4406270119566  0.7279308197184 1.0
C      1  0.2388515770069  0.5047923793796  0.8816435847916 1.0
C      1  0.7724205908320  0.8520323742428  0.7236412803987 1.0
C      1  0.5359607423729  0.4133081551152  0.9894289337058 1.0
C      1  0.5624408880498  0.6408977469508  0.5807601616624 1.0
C      1  0.7172453637125  0.4987426437506  0.7016468410990 1.0
C      1  0.6801095207294  0.2542543292250  0.8043906920273 1.0
C      1  0.6386330613592  0.5596381506247  0.7223971595843 1.0
C      1  0.0927560140587  0.5793820339291  0.3729007023221 1.0
C      1  0.3452045427171  0.8353810340941  0.7909373067922 1.0
C      1  0.4254381486146  0.8568454153392  0.4138771638635 1.0
C      1  0.6223864199653  0.2543986948811  0.8735866083336 1.0
C      1  0.3001891976572  0.3701083244133  0.3068966214404 1.0
C      1  0.7958101418813  0.5563312319264  0.9076984957065 1.0
C      1  0.9122800801274  0.7812882110387  0.7104585355874 1.0
C      1  0.3582052573077  0.5758620657854  0.0358639251976 1.0
C      1  0.7475992709528  0.6868542590884  0.5619240970734 1.0
C      1  0.2695178722183  0.7965864479418  0.7301597370820 1.0
C      1  0.3382933668128  0.4185101583859  0.0918091535966 1.0
C      1  0.5709669683393  0.3346407694832  0.2400935036432 1.0
C      1  0.6838475056112  0.6679471244655  0.0364326089050 1.0
C      1  0.7247824174548  0.4248151287055  0.5401462588921 1.0
C      1  0.9919040742839  0.4702916095101  0.5611721209524 1.0
C      1  0.2519563469638  0.6826684560440  0.5980286305953 1.0
C      1  0.5226329952611  0.5395266959652  0.4246862139897 1.0
C      1  0.5432358764963  0.9062045094308  0.5256920845912 1.0
C      1  0.3618401833448  0.3523374018020  0.3848457124784 1.0
C      1  0.8106350512342  0.5400976476209  0.3989481231457 1.0
C      1  0.3388927153732  0.4375435207857  0.7256975078078 1.0
C      1  0.5684147447286  0.4798673837348  0.5929676648942 1.0
C      1  0.1434517280404  0.6433823206035  0.3119069586288 1.0
C      1  0.1658679070979  0.3091463016346  0.8293767292919 1.0
C      1  0.5098177486347  0.2673191544093  0.0678785883812 1.0
C      1  0.1911838179806  0.1038485849985  0.6055682329812 1.0
C      1  0.5717605225794  0.3825813147090  0.5601349182767 1.0
C      1  0.9917223996067  0.5817019109035  0.4020697853304 1.0
C      1  0.6428362445531  0.2448510341543  0.5980786841171 1.0
C      1  0.3158594167457  0.6645996203848  0.3186005546166 1.0
C      1  0.5161343165041  0.2725125718502  0.6840136041662 1.0
C      1  0.5009044015843  0.6663467246760  0.0997791504061 1.0
C      1  0.8437908834109  0.8725126878681  0.5746465241332 1.0
C      1  0.3574750737482  0.3193457169748  0.5916840693629 1.0
C      1  0.5367940387807  0.7502111831038  0.4546863737524 1.0
C      1  0.5735170004401  0.5307636710673  0.3356401673446 1.0
C      1  0.6904434100081  0.7251506374158  0.6476257197390 1.0
C      1  0.6668288222338  0.8579513751612  0.1914728979186 1.0
C      1  0.3871933001086  0.7630977896125  0.4095071088706 1.0
C      1  0.7570348151892  0.4392506313208  0.3866094663307 1.0
C      1  0.9472041906041  0.3912276078452  0.3236689443917 1.0
C      1  0.4685434155132  0.2343731154419  0.2934510395949 1.0
C      1  0.8003262859975  0.4650443778783  0.8874205999325 1.0
C      1  0.9072645596279  0.5301551691627  0.7974063620626 1.0
C      1  0.0292866474843  0.2777779712845  0.3703986629297 1.0
C      1  0.6296386394246  0.8315460445056  0.1068444664734 1.0
C      1  0.4008108363923  0.4928497050202  0.7835297693629 1.0
C      1  0.2898326546165  0.9539679226309  0.4127966361588 1.0
C      1  0.7810416171812  0.9614287248579  0.4569991372920 1.0
C      1  0.0574452164336  0.7973502707520  0.4616803725245 1.0
C      1  0.2969255862865  0.5817530208213  0.8912773397728 1.0
C      1  0.6685175480452  0.5454362056116  0.2972261025579 1.0
C      1  0.4255284697559  0.2538713303841  0.1049095986014 1.0
C      1  0.7654728835403  0.0688774764792  0.4598898140454 1.0
C      1  0.2172839305584  0.5164762287232  0.1716281326866 1.0
C      1  0.4528915171461  0.3889783733767  0.3600983602766 1.0
C      1  0.4340031200120  0.0045999799398  0.3551010782899 1.0
C      1  0.7565661607234  0.1497037010535  0.6917500422918 1.0
C      1  0.8649093564346  0.5972238409952  0.8563562588067 1.0
C      1  0.7776707825180  0.2224998100230  0.2549418801207 1.0
C      1  0.3322418224308  0.9220962483869  0.6042489102785 1.0
C      1  0.6704639812505  0.6422879078278  0.4209254219326 1.0
C      1  0.4987897055039  0.4369045969573  0.4330967121702 1.0
C      1  0.2008036377760  0.3864373126014  0.2960048775570 1.0
C      1  0.2204255975106  0.6728516583718  0.3491814211037 1.0
C      1  0.5656250846753  0.2363332183369  0.2677500275959 1.0
C      1  0.6620305974737  0.5559135230350  0.4866904644491 1.0
C      1  0.1305377081527  0.6658257308839  0.2185612088645 1.0
C      1  0.9718603241284  0.3421087208934  0.4043399104153 1.0
C      1  0.2659284717631  0.4188329759343  0.9137155738999 1.0
C      1  0.8772274455836  0.2092638882845  0.5934000767334 1.0
C      1  0.0010328688724  0.6240448357081  0.6867290841348 1.0
C      1  0.5682750208281  0.6656004962475  0.0260551417344 1.0
C      1  0.1139423024677  0.1520117442511  0.6309034430417 1.0
C      1  0.8518176495052  0.5561779550938  0.1857848537763 1.0
C      1  0.5604377791964  0.6981914000615  0.7273454083546 1.0
C      1  0.0880477459988  0.2373729548658  0.3225191859644 1.0
C      1  0.4425493274567  0.2092183809192  0.8823117254517 1.0
C      1  0.8112471254370  0.1206183907022  0.3847246345117 1.0
C      1  0.7185729608302  0.7349474433225  0.2612079867711 1.0
C      1  0.5933668739975  0.0681444297387  0.3444552168805 1.0
C      1  0.1270132089116  0.7999364495025  0.6256908299444 1.0
C      1  0.9214124798365  0.7008811734946  0.5107202414487 1.0
C      1  0.6003262787356  0.4052409098257  0.8286294272024 1.0
C      1  0.2300905627303  0.5265774442427  0.6001983190661 1.0
C      1  0.4217229688110  0.8958479507328  0.6194814183222 1.0
C      1  0.7129409468964  0.3044825257384  0.6511247383488 1.0
C      1  0.8015600724275  0.3403093195263  0.4060301185557 1.0
C      1  0.6298422250133  0.5709421419948  0.9142506374229 1.0
C      1  0.0693284407434  0.6079024270054  0.5269046172880 1.0
C      1  0.8807466274696  0.6839754783012  0.8439493188316 1.0
C      1  0.7334488483031  0.5856930291921  0.5542723455629 1.0
C      1  0.5684441701549  0.5706279309143  0.9998739925104 1.0
C      1  0.4893781352840  0.8851125365543  0.1642672289243 1.0
C      1  0.3712867417770  0.4065347357124  0.6364838197370 1.0
C      1  0.5470527248259  0.7832331551223  0.6744802204494 1.0
C      1  0.0996530959366  0.3599368223027  0.7910390474930 1.0
C      1  0.8904482349798  0.3360622435339  0.4646502948965 1.0
C      1  0.5090184690431  0.8228571825237  0.0003035849647 1.0
C      1  0.6819692822043  0.4509224693900  0.4566467246847 1.0
C      1  0.3239627727255  0.0745902346280  0.7167359933926 1.0
C      1  0.6758623113675  0.3983874155100  0.6852872084853 1.0
C      1  0.7646342435033  0.3772847176225  0.8682605237037 1.0
C      1  0.9473715860311  0.7820521723050  0.3737834931698 1.0
C      1  0.4228653084767  0.8252155412371  0.1703729533447 1.0
C      1  0.2829347692845  0.2036524291491  0.1572679802118 1.0
C      1  0.4550539352524  0.6329475579152  0.1677553801844 1.0
C      1  0.7776158779164  0.7930080290380  0.7932558020889 1.0
C      1  0.9382627340036  0.4088242696017  0.6085898566678 1.0
C      1  0.2239177299271  0.7411302280295  0.5074608722725 1.0
C      1  0.8693597074416  0.8436778482996  0.3561942704197 1.0
C      1  0.2664112355554  0.2772067731514  0.1036648200194 1.0
C      1  0.6863879414916  0.7439500453801  0.1087554955516 1.0
C      1  0.5209114320912  0.8288247916306  0.8191176006360 1.0
C      1  0.1922227938874  0.9315025839300  0.4336097080630 1.0
C      1  0.3246080357313  0.6305027061266  0.5487216324599 1.0
C      1  0.2032907619751  0.2793764044039  0.4565422496826 1.0
C      1  0.6968256296367  0.4415018381714  0.3062296868727 1.0
C      1  0.1845303441059  0.8933653227046  0.5170796007644 1.0
C      1  0.4553848895477  0.0577974141767  0.5931988926776 1.0
C      1  0.4034573315980  0.7282937067780  0.6414954580782 1.0
C      1  0.1834058953935  0.6121244039890  0.1532634552260 1.0
C      1  0.9021923085412  0.8673575061541  0.4997043331417 1.0
C      1  0.9979356009294  0.5400851761697  0.4986969364568 1.0
C      1  0.2889020814367  0.5128746856576  0.2467308616651 1.0
C      1  0.5172265020006  0.3407067425856  0.7386410755149 1.0
C      1  0.7671888609692  0.2788960825266  0.4889897711513 1.0
C      1  0.2301308868166  0.6792243928965  0.1077640553918 1.0
C      1  0.2112252123646  0.5924757802132  0.7382876399593 1.0
C      1  0.1796759084688  0.2306147506712  0.7802430413400 1.0
C      1  0.5439999705968  0.8583434473007  0.0848121896563 1.0
C      1  0.7674889467201  0.5283247457978  0.6320552258241 1.0
C      1  0.6870377618647  0.7127676739829  0.4870198542353 1.0
C      1  0.3535294856030  0.5943700598883  0.3870325093638 1.0
C      1  0.4742661255175  0.5393095384232  0.7271483064273 1.0
C      1  0.2133653500625  0.6614521220859  0.4455342209535 1.0
C      1  0.3438773414954  0.8818679670787  0.2799407062347 1.0
C      1  0.6230149147385  0.4246350555375  0.0256456821774 1.0
C      1  0.8425489486448  0.2847914147574  0.7433722490255 1.0
C      1  0.9853590830724  0.6354284065590  0.4841489904013 1.0
C      1  0.5240444232544  0.8149653786536  0.9136648005190 1.0
C      1  0.8575030093486  0.6140099355039  0.2592933353022 1.0
C      1  0.6484448061023  0.3631567037455  0.2948914993154 1.0
C      1  0.5323283748118  0.2042439787020  0.4465269813715 1.0
C      1  0.4778214030263  0.6646994329768  0.3227381814900 1.0
C      1  0.4060116888525  0.4851840602369  0.5818689176481 1.0
C      1  0.2930988903115  0.6320235728378  0.7464601585365 1.0
C      1  0.2883220857030  0.3867541524895  0.5802066216420 1.0
C      1  0.1022091705435  0.4552454316880  0.7842167246936 1.0
C      1  0.8590269819840  0.7555056244659  0.3374083537788 1.0
C      1  0.3331757836961  0.5505456120055  0.6046343280261 1.0
C      1  0.1476837641066  0.4132852606259  0.3777444967744 1.0
C      1  0.6714014470460  0.6816850281227  0.1923422516628 1.0
C      1  0.3042581757108  0.7896692983579  0.4625280119457 1.0
C      1  0.3751461287532  0.0586296557170  0.5202991458911 1.0
C      1  0.6077427167910  0.8543741401014  0.2716414026762 1.0
C      1  0.4523050224389  0.8129693849959  0.6702055147018 1.0
C      1  0.1589342693670  0.2349077186299  0.2636182186457 1.0
END
