TITL C-68176-7009-21 -10.829 3375.00 -1872.14491465 0 0 229 (C1) n - 1
REM
REM Run started: at 2020.07.11 22:28:03 in /home/heco/bkarasulu/work/CARBON/AIRSS/Str-Search
REM VASP from code version vasp.5.4.4.18Apr17-6-g9f103f2a35 (build Jul 02 2020 21:03:42) gamma-only
REM
REM
REM
REM
REM ./C.cell (90889e035cd0f9d0e5f9cb6dd9eb5d52)
REM AIRSS Version 0.9.1 bugfix July 2018 build 013d7b7c2542+ Fri, 06 Jul 2018 19:26:36 +0100
REM compiler GCC version 9.2.0
REM options -cpp -mtune=generic -march=x86-64 -g -O0
REM seed -884074411 -519614937 -1071919450 -963704059 1598157934 670749790 485993222 -516763680 -1791775287 -510967928 -489145216 -1046545836 1416730247 -546707517 897761205 370992778 -2018573013 788928236 1443727927 -1474195968 2031101783 882872666 -940957613 334067367 885939212 -508334485 595245295 -1760919559 2058654936 -620026135 -1077984463 2084858853 -121952147
REM
REM C.POTCAR (d86ddea03c3ceb6dc662c8ad6801f873)
REM 
CELL 1.54180   15.00000   15.00000   15.00000   90.00000   90.00000   90.00000
LATT -1
SFAC C  
C      1  0.5848921963538  0.6526922809375  0.7805660300438 1.0
C      1  0.1879746264503  0.5441990284330  0.4012106650310 1.0
C      1  0.7662397408451  0.7867604890082  0.6821594603709 1.0
C      1  0.4259136907594  0.6218045905948  0.8024278471515 1.0
C      1  0.3882550707773  0.6020144147447  0.2756832798289 1.0
C      1  0.4965668809881  0.1108296263851  0.7276664334964 1.0
C      1  0.1735110498875  0.6957603896461  0.3283688349642 1.0
C      1  0.5497900560378  0.8833294571207  0.4557064801060 1.0
C      1  0.4396646284456  0.8683046256590  0.5848916497636 1.0
C      1  0.2836838736382  0.6240531682939  0.6586366790685 1.0
C      1  0.5961101677457  0.7576095892173  0.2567821013297 1.0
C      1  0.4476477592599  0.8995923013215  0.4249145791311 1.0
C      1  0.1425907952021  0.3371482805282  0.2997078652085 1.0
C      1  0.6852516655382  0.3825781538300  0.1678466099755 1.0
C      1  0.4304767068196  0.6149736479596  0.5573729820705 1.0
C      1  0.8111142532364  0.3728107032970  0.4406366464711 1.0
C      1  0.5461895364066  0.1788186739194  0.7550123846080 1.0
C      1  0.8847100577681  0.5454194653140  0.1854564148720 1.0
C      1  0.6097975619557  0.2278656585773  0.6883271285433 1.0
C      1  0.4497299633188  0.8377941953853  0.7434303208394 1.0
C      1  0.2872174570080  0.2525615098113  0.5371573306374 1.0
C      1  0.5337937999189  0.8755713299465  0.7137660220241 1.0
C      1  0.7062619613283  0.5601873895751  0.8050427011042 1.0
C      1  0.6823055295876  0.2970924294536  0.3924293936237 1.0
C      1  0.3208946729153  0.3407952907769  0.5901063427591 1.0
C      1  0.5625094248760  0.7350324992364  0.0515638827620 1.0
C      1  0.4996299131647  0.3306250886767  0.7391789733189 1.0
C      1  0.8025908295288  0.1967606469914  0.4730605847835 1.0
C      1  0.6649745736960  0.7083755424857  0.7703396325987 1.0
C      1  0.5335756260582  0.8431510685476  0.5471143162621 1.0
C      1  0.2977856337362  0.7676799270124  0.4158554481542 1.0
C      1  0.3863243226247  0.1084022740476  0.4188188069868 1.0
C      1  0.5851583732332  0.4418922720382  0.3981733067249 1.0
C      1  0.6815006917587  0.7953370412256  0.7305504791873 1.0
C      1  0.1459480791146  0.6083369108570  0.7529306800880 1.0
C      1  0.8510803292358  0.4468099047367  0.2953106034310 1.0
C      1  0.8497464314081  0.3125067353625  0.6270206375695 1.0
C      1  0.5075832282125  0.6737015210172  0.5935403953542 1.0
C      1  0.3107001976244  0.3826609900670  0.4373997529791 1.0
C      1  0.5842936017467  0.3880859927331  0.6192771555954 1.0
C      1  0.8157155014902  0.4706711811503  0.9302133779961 1.0
C      1  0.4421752945003  0.5073576745150  0.5527370231393 1.0
C      1  0.7753767662501  0.8013552359401  0.4211733340611 1.0
C      1  0.5770887308690  0.3986586272174  0.8569110055580 1.0
C      1  0.7050171303423  0.2932075434710  0.5610898224780 1.0
C      1  0.7157949874780  0.3504623560557  0.7212932323172 1.0
C      1  0.8110373825307  0.5709360213675  0.3940246963485 1.0
C      1  0.6508010929309  0.3772218700723  0.5454978764782 1.0
C      1  0.6774722546557  0.1194064069280  0.5414289911440 1.0
C      1  0.7559145582637  0.2831291552196  0.4691118683541 1.0
C      1  0.6764425212853  0.5213230281576  0.7075422904726 1.0
C      1  0.7168679493799  0.8888959189877  0.5339777563143 1.0
C      1  0.6518173517525  0.3845483250878  0.4404146589557 1.0
C      1  0.3807244724325  0.5983722752854  0.1622564521008 1.0
C      1  0.8649787209185  0.6452272558543  0.6607578938173 1.0
C      1  0.3704929913528  0.7715862964510  0.3225265249908 1.0
C      1  0.1734076006720  0.3813945021407  0.7639963407306 1.0
C      1  0.2872385858282  0.7124385724888  0.7168336503036 1.0
C      1  0.1768930881304  0.7639357803024  0.5583853295494 1.0
C      1  0.4258734140386  0.2763107682524  0.8374544621813 1.0
C      1  0.4775449133389  0.2622043497133  0.5946303749239 1.0
C      1  0.5251498691771  0.9049170858462  0.6218765416978 1.0
C      1  0.1342519589273  0.6286014869834  0.3856406353986 1.0
C      1  0.4921655506933  0.6899877116857  0.7723859000549 1.0
C      1  0.7468661094124  0.2992755576801  0.8037789960560 1.0
C      1  0.2636499535230  0.8031429853856  0.5749498459015 1.0
C      1  0.4488015347298  0.4193996271747  0.0508299837366 1.0
C      1  0.3306757851557  0.5047757900005  0.7710229461944 1.0
C      1  0.8311594651454  0.4702257329336  0.2034990044868 1.0
C      1  0.7402518832645  0.6555189079624  0.7739607788982 1.0
C      1  0.6976928186674  0.3118028063626  0.2289730025204 1.0
C      1  0.1022563713181  0.6692629762054  0.4656150295979 1.0
C      1  0.4592744793256  0.2560891839512  0.2104712002684 1.0
C      1  0.2614831183988  0.3494865731923  0.7666329211245 1.0
C      1  0.2973828580841  0.2532271837062  0.2656682347634 1.0
C      1  0.1073811469478  0.3457197330314  0.3856524898551 1.0
C      1  0.3168571614481  0.2821597385410  0.4381288728252 1.0
C      1  0.2221043360774  0.3883806571327  0.1817272881760 1.0
C      1  0.2001330329682  0.7610493729216  0.3909592324980 1.0
C      1  0.1963490347347  0.6634249014647  0.6932248123475 1.0
C      1  0.7478365860981  0.6122025317123  0.5553993611761 1.0
C      1  0.3967632454191  0.3354599274422  0.4554330281099 1.0
C      1  0.4176012195115  0.3302761627882  0.5505555187054 1.0
C      1  0.5504356806615  0.4227837326895  0.7631218442472 1.0
C      1  0.4493275974225  0.5681170293397  0.8868450900976 1.0
C      1  0.5417377500934  0.3119005697280  0.1977392193677 1.0
C      1  0.5804983698933  0.6021274777365  0.1269519533653 1.0
C      1  0.6329453770114  0.5913032642151  0.3849044020994 1.0
C      1  0.6140935409862  0.2623862108506  0.2446656738870 1.0
C      1  0.7094507722991  0.3258393936778  0.8879260544469 1.0
C      1  0.1365214764451  0.4098001334680  0.2311771304321 1.0
C      1  0.5405661752446  0.4161359176463  0.0497603373387 1.0
C      1  0.5231661491146  0.4718255547965  0.6070084137288 1.0
C      1  0.5911891532702  0.6142012831107  0.6076472024897 1.0
C      1  0.3324134524635  0.6870581254417  0.1668733488489 1.0
C      1  0.9825851311939  0.4329423034306  0.4726610904994 1.0
C      1  0.2413535995555  0.5035518654836  0.3188039255431 1.0
C      1  0.6938787586588  0.8436530123776  0.3888185863016 1.0
C      1  0.7631847392389  0.1323534981781  0.5066716921901 1.0
C      1  0.1053255649774  0.6275686797758  0.5524059118913 1.0
C      1  0.6116257653424  0.3064234780361  0.8457764870556 1.0
C      1  0.3202365072548  0.3342198546912  0.6968372714792 1.0
C      1  0.3109808982307  0.3785623478645  0.8516155658547 1.0
C      1  0.5427215159063  0.5973980005363  0.2183641090515 1.0
C      1  0.3127204815572  0.8321066455425  0.4932565409570 1.0
C      1  0.4976435747952  0.2597003383911  0.3626690191047 1.0
C      1  0.4613704482275  0.6726423795225  0.4004286241820 1.0
C      1  0.7330109995295  0.4637608483507  0.1957063904274 1.0
C      1  0.5177790587572  0.6960699520178  0.2423886832571 1.0
C      1  0.3108378561863  0.7842952494352  0.6524131782249 1.0
C      1  0.4311506852872  0.7658343693796  0.8068745391480 1.0
C      1  0.2903641253616  0.4551654431749  0.1470924571350 1.0
C      1  0.8091519908504  0.6398804415700  0.4699133846515 1.0
C      1  0.3661144184221  0.5402768388066  0.4451627106781 1.0
C      1  0.8979379865713  0.6746034578347  0.5015857845124 1.0
C      1  0.5117375873898  0.5065173143363  0.7076479471909 1.0
C      1  0.3271492106717  0.2201224029544  0.3569629903161 1.0
C      1  0.5444691465645  0.3042342842822  0.6566573431410 1.0
C      1  0.2248167525873  0.3090617309280  0.2517653562039 1.0
C      1  0.6523159768103  0.8930801849290  0.4580247751911 1.0
C      1  0.5956676226162  0.4598956486620  0.2987812027993 1.0
C      1  0.4183226487706  0.5455336513282  0.7370057630626 1.0
C      1  0.3183208493924  0.4714992856999  0.8576203836704 1.0
C      1  0.8038550347137  0.6959939827919  0.7108101994941 1.0
C      1  0.7677269845818  0.8332026740750  0.5990526221963 1.0
C      1  0.7302525382770  0.4496674310595  0.4505682016558 1.0
C      1  0.6342081485027  0.7136370724393  0.5002886927561 1.0
C      1  0.9975371303092  0.4936730479845  0.5507820125905 1.0
C      1  0.2481008185833  0.6360629764080  0.1648169623554 1.0
C      1  0.3258364936838  0.5502641707172  0.6985856798943 1.0
C      1  0.3348606562944  0.1861066059456  0.5918983341220 1.0
C      1  0.3893382838822  0.3402916011079  0.8935924614095 1.0
C      1  0.2807083194313  0.4181231531987  0.5305986156565 1.0
C      1  0.4059679742311  0.2156029939799  0.6586665254033 1.0
C      1  0.5228971823630  0.2561314407331  0.8177892659989 1.0
C      1  0.6876897544677  0.5010887712936  0.2779954129139 1.0
C      1  0.3876232881506  0.4122696605949  0.1312123759676 1.0
C      1  0.4037948017499  0.6316717117097  0.4632745864322 1.0
C      1  0.5439939534120  0.5424237873993  0.9020383461964 1.0
C      1  0.9063613891952  0.6800259538009  0.5843238527631 1.0
C      1  0.6096003769009  0.5828082568112  0.8494912937626 1.0
C      1  0.5857603806128  0.1736724117512  0.2842338906437 1.0
C      1  0.1520749125799  0.3196411928237  0.4712738391054 1.0
C      1  0.9016686770142  0.3296872229095  0.5623998761531 1.0
C      1  0.7620286752322  0.3155356398460  0.6417809314714 1.0
C      1  0.2922338299239  0.1369455493502  0.4081475425557 1.0
C      1  0.6049725129013  0.5598782498270  0.2890250458426 1.0
C      1  0.5426118026286  0.7434638407563  0.5274568760761 1.0
C      1  0.8127255749914  0.3727908770393  0.3405164495044 1.0
C      1  0.5385462292545  0.4124674549628  0.2249684981073 1.0
C      1  0.3361710251124  0.5104431286637  0.5378022918317 1.0
C      1  0.4492665711245  0.3466527252435  0.3735150544866 1.0
C      1  0.5234067508088  0.1194436541880  0.5107640705010 1.0
C      1  0.2120154278880  0.1523407181777  0.4496863376461 1.0
C      1  0.2829604871864  0.5918863108085  0.4096799006403 1.0
C      1  0.1439156844141  0.7553562964521  0.4705187119428 1.0
C      1  0.7425514152271  0.3194494460422  0.3125783593189 1.0
C      1  0.3816369331879  0.1038405571087  0.5839586590016 1.0
C      1  0.4353451861345  0.6852304270312  0.3070273459340 1.0
C      1  0.5459831078480  0.7765430421953  0.1863728068418 1.0
C      1  0.4452244483962  0.8439658955650  0.3486123703639 1.0
C      1  0.4288425468889  0.0908889417895  0.4988585642607 1.0
C      1  0.4022149473550  0.2902785706825  0.7340376734023 1.0
C      1  0.5417882762611  0.4413823392247  0.9399348631309 1.0
C      1  0.6385060571349  0.2045316753413  0.5876329449368 1.0
C      1  0.7232037332152  0.5273201009357  0.3775685954564 1.0
C      1  0.4636416321015  0.4990186505379  0.4518133511707 1.0
C      1  0.7929509858560  0.8408603461968  0.5081119743712 1.0
C      1  0.3108415963176  0.7460553203730  0.2409811430527 1.0
C      1  0.4682247462203  0.7178275706885  0.6732683365477 1.0
C      1  0.4494633827696  0.5494341068895  0.2167302765404 1.0
C      1  0.3931197216882  0.4071115111211  0.3053908639214 1.0
C      1  0.1240238995287  0.4461460470318  0.7767849038842 1.0
C      1  0.3129138847606  0.4315090098485  0.3484705094385 1.0
C      1  0.9421693882745  0.6189725405002  0.1888162501477 1.0
C      1  0.1971346827993  0.2348576422344  0.4882169147204 1.0
C      1  0.9208202268723  0.5833912360868  0.2718703442478 1.0
C      1  0.6290090534804  0.7785401388566  0.3458906026195 1.0
C      1  0.8537421575096  0.5444484902870  0.6431933272856 1.0
C      1  0.3215108584837  0.6149053114213  0.5676187037426 1.0
C      1  0.3097646953041  0.6678598595511  0.4681197692330 1.0
C      1  0.5872087858146  0.3876610917101  0.1371115588559 1.0
C      1  0.6631005713977  0.2742509025407  0.7598418053496 1.0
C      1  0.3591488158635  0.7045158869808  0.7908810818347 1.0
C      1  0.4412268234263  0.4449086032560  0.2202264588764 1.0
C      1  0.5061504312135  0.7375868678915  0.4383647784506 1.0
C      1  0.4350011303561  0.4194043550700  0.9513671248807 1.0
C      1  0.1452251741368  0.6901011999420  0.6112821236882 1.0
C      1  0.3921453749652  0.4997345065110  0.9120453685521 1.0
C      1  0.6417492062248  0.4227264347354  0.7059427399721 1.0
C      1  0.0827538268836  0.5329899777277  0.5419429444372 1.0
C      1  0.5713169366499  0.5331298986001  0.4487839923503 1.0
C      1  0.2960617256758  0.5923059963712  0.3100060715589 1.0
C      1  0.2938801721207  0.5504112092992  0.1457046670820 1.0
C      1  0.5900852137578  0.5781657017376  0.7009536204699 1.0
C      1  0.7489851038378  0.5298806609369  0.6180841231939 1.0
C      1  0.6595948575912  0.6925079505650  0.4039859127881 1.0
C      1  0.9267107107970  0.5076169337929  0.6091091029721 1.0
C      1  0.1757851261853  0.4879213703091  0.2488876823766 1.0
C      1  0.0583808119049  0.4266883989958  0.4206903806238 1.0
C      1  0.8787927740323  0.5316967210442  0.3400440231592 1.0
C      1  0.6233062351687  0.0593493332183  0.3970533602889 1.0
C      1  0.5411847008233  0.1995172892592  0.5502633275549 1.0
C      1  0.7583636032795  0.7097690774799  0.4204990600362 1.0
C      1  0.6196481955407  0.8602671901435  0.7418128858936 1.0
C      1  0.3475205475994  0.3212276359803  0.1235174038910 1.0
C      1  0.4313697306538  0.1190827183656  0.6681210035213 1.0
C      1  0.6958453217364  0.4725521397688  0.5472584250184 1.0
C      1  0.3672604477152  0.2725073006808  0.2011165771750 1.0
C      1  0.4071422530866  0.8042314565323  0.6567251231895 1.0
C      1  0.1822391378126  0.4044220432188  0.5075562235973 1.0
C      1  0.9031608817938  0.3757493689111  0.4851528970728 1.0
C      1  0.4948433822511  0.4213896281557  0.4079571322306 1.0
C      1  0.5769631659534  0.6463676919273  0.0562875414952 1.0
C      1  0.1128455985442  0.5352041222683  0.7706423558713 1.0
C      1  0.5974855607092  0.2533617456698  0.3496786680911 1.0
C      1  0.6108802937681  0.0807822826002  0.4879042600286 1.0
C      1  0.5419458365878  0.8050839606801  0.0942087627807 1.0
C      1  0.4248341484869  0.1806742337117  0.3574320051582 1.0
C      1  0.5959004874201  0.5268219301833  0.5492957792989 1.0
C      1  0.6696886403885  0.6582379118819  0.5642753352534 1.0
C      1  0.3885195204038  0.8831404431172  0.5016036695443 1.0
C      1  0.1324256785671  0.4831023198951  0.4661224388498 1.0
C      1  0.5372613226408  0.8114623089097  0.3845214226024 1.0
C      1  0.7421187080841  0.4151082230472  0.9043820897097 1.0
C      1  0.4836829711087  0.1925623595886  0.2793412195915 1.0
C      1  0.7518003817927  0.4996031303987  0.8677830778351 1.0
C      1  0.2404203522428  0.6721032163566  0.2613461222410 1.0
C      1  0.6188330076968  0.0911074438895  0.3208562495654 1.0
END
