TITL C-68176-7009-3 -12.874 3375.00 -2178.57760831 0 0 264 (C1) n - 1
REM
REM Run started: at 2020.07.11 02:23:32 in /home/heco/bkarasulu/work/CARBON/AIRSS/Str-Search
REM VASP from code version vasp.5.4.4.18Apr17-6-g9f103f2a35 (build Jul 02 2020 21:03:42) gamma-only
REM
REM
REM
REM
REM ./C.cell (90889e035cd0f9d0e5f9cb6dd9eb5d52)
REM AIRSS Version 0.9.1 bugfix July 2018 build 013d7b7c2542+ Fri, 06 Jul 2018 19:26:36 +0100
REM compiler GCC version 9.2.0
REM options -cpp -mtune=generic -march=x86-64 -g -O0
REM seed -450535164 -231581830 1557435756 -1474669100 485787893 1654434313 -1341598305 785625584 187074944 2094456642 2045306151 801873913 1798224050 2080473488 1045619317 -1383185911 1324863230 -677472216 1114652733 1833197041 -1460175373 398331620 1738644082 1587395304 79253306 1824603347 -1516108917 -116992716 2083978811 790873385 -1518426710 210735045 253007960
REM
REM C.POTCAR (d86ddea03c3ceb6dc662c8ad6801f873)
REM 
CELL 1.54180   15.00000   15.00000   15.00000   90.00000   90.00000   90.00000
LATT -1
SFAC C  
C      1  0.5906421896682  0.8672874188415  0.6808625468970 1.0
C      1  0.5389206293121  0.6362145145758  0.0192084092209 1.0
C      1  0.5118667089056  0.9123263913302  0.5154429258780 1.0
C      1  0.5366221566071  0.2751390358584  0.6093757957816 1.0
C      1  0.4380865382828  0.0908572778332  0.7169406567332 1.0
C      1  0.4296124343754  0.4703741753329  0.4840011536013 1.0
C      1  0.2255655531437  0.2824075648325  0.7907232374551 1.0
C      1  0.5452403925815  0.5314740017817  0.9096372718540 1.0
C      1  0.2164562913409  0.6689866120574  0.6505123908916 1.0
C      1  0.8112075190416  0.2144233728540  0.5967970224796 1.0
C      1  0.8539832828734  0.5239325736564  0.6269316019087 1.0
C      1  0.5230712956734  0.6387708024378  0.5980153880120 1.0
C      1  0.5952964864044  0.2115767474437  0.1250898322552 1.0
C      1  0.6100516243304  0.8578516523958  0.3091503135489 1.0
C      1  0.6628743367501  0.2988279073826  0.3649124588978 1.0
C      1  0.3038148211407  0.8278218423175  0.7636023685270 1.0
C      1  0.8673227391013  0.1570973744319  0.3104797711348 1.0
C      1  0.5000002307784  0.6424595135413  0.7538518515433 1.0
C      1  0.6811853717838  0.4903318287911  0.8291657284432 1.0
C      1  0.3537683083388  0.2180595518886  0.4951479218373 1.0
C      1  0.6207461747504  0.1855132472242  0.7277228661662 1.0
C      1  0.6739626098329  0.7572929033288  0.7820558797804 1.0
C      1  0.2424005438029  0.6679606458682  0.8091792702379 1.0
C      1  0.4958778063062  0.4018583348371  0.9700833134134 1.0
C      1  0.8891405859650  0.4940116931032  0.7072427322233 1.0
C      1  0.6173699554863  0.2349773930495  0.5452542011163 1.0
C      1  0.4642366614682  0.3095631188880  0.1139781533593 1.0
C      1  0.5062147204140  0.9687662461511  0.3820852753305 1.0
C      1  0.2965901575322  0.5636306575676  0.5147219389697 1.0
C      1  0.5256756823182  0.2183882384691  0.4036734485534 1.0
C      1  0.8666386653837  0.6982112532977  0.6596134733916 1.0
C      1  0.8508686985821  0.1081260946118  0.3804989638629 1.0
C      1  0.5263229400475  0.9043592199911  0.3172284393024 1.0
C      1  0.3806634176090  0.8716865894920  0.7977955395623 1.0
C      1  0.1654551616145  0.2195695354212  0.4846703984669 1.0
C      1  0.1775173681073  0.2357681470534  0.6464344805224 1.0
C      1  0.4220438517704  0.1181862024173  0.2866177271692 1.0
C      1  0.8482300765425  0.0988641081766  0.4684909779074 1.0
C      1  0.4537771415854  0.6475911943503  0.8537641642953 1.0
C      1  0.5121382060376  0.0577483982609  0.6638669384919 1.0
C      1  0.7655039149773  0.6790384516087  0.1533392061587 1.0
C      1  0.5094788722371  0.3594727884235  0.5634187378282 1.0
C      1  0.7559329915978  0.7825888422554  0.7463188297566 1.0
C      1  0.1282310301587  0.5610760985673  0.4419555899022 1.0
C      1  0.4636540631016  0.3590312753744  0.0407152210104 1.0
C      1  0.6489519660334  0.8562798930842  0.4021643183504 1.0
C      1  0.6186047481908  0.7369786462860  0.1623538241681 1.0
C      1  0.1234805047452  0.6558887960045  0.2701407291370 1.0
C      1  0.6415273843842  0.2812818101128  0.0907120865103 1.0
C      1  0.7066359448548  0.4573099062420  0.6408289075471 1.0
C      1  0.8431464035861  0.4848104846362  0.7898528562164 1.0
C      1  0.7945630751708  0.7437728172396  0.2113526779387 1.0
C      1  0.5264949529399  0.8876959880316  0.7524366340306 1.0
C      1  0.4138816239284  0.9337627241149  0.3934103729396 1.0
C      1  0.1710231629373  0.1934400604261  0.5625301828164 1.0
C      1  0.1693791753258  0.3673033223546  0.1904815914067 1.0
C      1  0.6619522874639  0.5194029989234  0.0194559435630 1.0
C      1  0.4996577392741  0.4349672067573  0.2207333717551 1.0
C      1  0.3959723694387  0.7315557557361  0.8545489295179 1.0
C      1  0.5343563103040  0.6317291632892  0.9166549285218 1.0
C      1  0.8303947979337  0.1829476315088  0.5084552939201 1.0
C      1  0.7561526175163  0.5992382876009  0.4061029819733 1.0
C      1  0.8112134643895  0.7018869441838  0.7371148296958 1.0
C      1  0.4528650815910  0.4954077185671  0.5817068459261 1.0
C      1  0.4544769316630  0.2215249097479  0.6280803750463 1.0
C      1  0.6030902701536  0.5132649157213  0.7667552342784 1.0
C      1  0.2238419843247  0.2132079362048  0.7241889454686 1.0
C      1  0.2824227801291  0.7123091949242  0.3737968823745 1.0
C      1  0.3176937536589  0.6651089196739  0.6400701363821 1.0
C      1  0.2929657771269  0.5054042884638  0.8650488817966 1.0
C      1  0.7502587856235  0.8684244291135  0.7053657217483 1.0
C      1  0.5182726301572  0.8238800131938  0.4882174077611 1.0
C      1  0.2153252375490  0.5144968445882  0.4731566085986 1.0
C      1  0.6729513028546  0.4347746930615  0.7401188120832 1.0
C      1  0.7897279402143  0.5118898237377  0.1702691036338 1.0
C      1  0.5421701564352  0.2001776246355  0.7839488081542 1.0
C      1  0.2958345240906  0.8596298766344  0.4817316877559 1.0
C      1  0.6003074873019  0.1106628849666  0.6606495424113 1.0
C      1  0.5287996015597  0.8353240258282  0.8323253952510 1.0
C      1  0.8975375672936  0.4682778906233  0.4496903325170 1.0
C      1  0.1117071883038  0.4259610238715  0.3680346195044 1.0
C      1  0.4236466506454  0.1757528092464  0.5420392299881 1.0
C      1  0.3688163006161  0.8095878968185  0.6201874110345 1.0
C      1  0.5341803863867  0.5277343118183  0.2227401907630 1.0
C      1  0.3181987551802  0.6604003107234  0.5339245522799 1.0
C      1  0.3800895510061  0.5468399934211  0.1319688244185 1.0
C      1  0.6201920546927  0.4951247078776  0.5866120711160 1.0
C      1  0.9015038896570  0.3284558924301  0.3326448216882 1.0
C      1  0.4090648672231  0.4999974760287  0.7648857139980 1.0
C      1  0.2412882852045  0.3769555331033  0.9585007028072 1.0
C      1  0.8625031008757  0.4785529041626  0.5420396723753 1.0
C      1  0.5306660626878  0.3427591422138  0.1926012420705 1.0
C      1  0.4682010585624  0.5846766896895  0.1683421028441 1.0
C      1  0.7688971515312  0.5401154585571  0.8121519400516 1.0
C      1  0.4669325138812  0.3113131713876  0.4116026997257 1.0
C      1  0.6020076433455  0.2697403531044  0.4499570407014 1.0
C      1  0.4685208204757  0.4819755262624  0.9180564734602 1.0
C      1  0.5559576636461  0.6190946227522  0.4260223994503 1.0
C      1  0.5522287118291  0.4398969479658  0.7212827861847 1.0
C      1  0.6075600331460  0.2856466087238  0.6828269022369 1.0
C      1  0.4792742713494  0.1424635013954  0.4584657314324 1.0
C      1  0.3319722885035  0.1802729162761  0.4061483537928 1.0
C      1  0.7335244890913  0.9042057879989  0.4464164133966 1.0
C      1  0.4655604801457  0.7524636271840  0.5049236820417 1.0
C      1  0.3284123392057  0.4428778747173  0.2478355654880 1.0
C      1  0.2703991097401  0.2475780328257  0.1734240994952 1.0
C      1  0.1173762691963  0.5141797127195  0.5905450329667 1.0
C      1  0.0546161557982  0.4534887500284  0.5360106190878 1.0
C      1  0.3046079972230  0.3318829995029  0.8155280720921 1.0
C      1  0.6759604486059  0.2903308661058  0.6092918331805 1.0
C      1  0.6675333643161  0.6607993517786  0.7959452224300 1.0
C      1  0.1157027318179  0.4924293521648  0.6916850283415 1.0
C      1  0.2577892390745  0.3510852576711  0.4684939653173 1.0
C      1  0.4596984439917  0.7323387675643  0.2420271237186 1.0
C      1  0.6317594832061  0.5156017794299  0.2236260695882 1.0
C      1  0.2694312567108  0.4710364154335  0.3236668742436 1.0
C      1  0.9220566777433  0.4160613278333  0.3072739205325 1.0
C      1  0.5502521201383  0.2509499933994  0.8564998041549 1.0
C      1  0.6040085646425  0.3597369490546  0.7546492291383 1.0
C      1  0.5430632778989  0.0750260055862  0.5066239064036 1.0
C      1  0.8552339068542  0.6811720711340  0.4906628723102 1.0
C      1  0.4685779280510  0.6366873709913  0.0769950465601 1.0
C      1  0.8907283366211  0.6929041921553  0.5791081479632 1.0
C      1  0.4101574132839  0.4131826571986  0.2642750755931 1.0
C      1  0.8701955881606  0.3909375451268  0.7944397530758 1.0
C      1  0.4247893450442  0.7748821985734  0.3212891215688 1.0
C      1  0.6771600558344  0.4415299082337  0.0747734408929 1.0
C      1  0.8541632835957  0.6192993289344  0.4214268681453 1.0
C      1  0.2383913275472  0.3463474346953  0.0348814623092 1.0
C      1  0.6300000003342  0.4822571947759  0.9282854068596 1.0
C      1  0.5751634739535  0.7835169394803  0.6420426237483 1.0
C      1  0.6327770761752  0.6096514703953  0.0524667271875 1.0
C      1  0.2377886282442  0.5698098719226  0.8307785335238 1.0
C      1  0.6080046019741  0.7873406528017  0.4649219213666 1.0
C      1  0.3824323534350  0.7008256994496  0.3771339823705 1.0
C      1  0.3224496344915  0.5591824888897  0.3532629199298 1.0
C      1  0.5984666720374  0.3851624982032  0.9452168123176 1.0
C      1  0.2565870526473  0.4073966644338  0.8656952950220 1.0
C      1  0.6378680476899  0.7654800374230  0.5646739088797 1.0
C      1  0.3710908062161  0.3325439554714  0.7502622005450 1.0
C      1  0.4001331379456  0.6884779833000  0.4799401175062 1.0
C      1  0.5356291384312  0.3729900283463  0.2895070669315 1.0
C      1  0.2496435688822  0.6288123853345  0.3552541419831 1.0
C      1  0.1213484924006  0.6055886363616  0.5347173504202 1.0
C      1  0.4365068927034  0.9058025112794  0.7302898360812 1.0
C      1  0.1994242355555  0.2782388422850  0.4151879710209 1.0
C      1  0.9251030004916  0.3905637424848  0.3973448303954 1.0
C      1  0.1698870350205  0.6768666678737  0.5640430317841 1.0
C      1  0.4360794141651  0.8168575446937  0.8565335730088 1.0
C      1  0.3499927765956  0.3138012421328  0.4942839443518 1.0
C      1  0.6161851174192  0.1319163355336  0.5586372335531 1.0
C      1  0.3485254770344  0.1231419244988  0.2293444026577 1.0
C      1  0.5813292073743  0.4361124071376  0.4239316357488 1.0
C      1  0.7631419066648  0.6294994685961  0.7875147888518 1.0
C      1  0.9075369395288  0.5105373368548  0.2974095310892 1.0
C      1  0.6105095804475  0.8028639580969  0.2332841851197 1.0
C      1  0.7461314235122  0.3589448295382  0.6109753084775 1.0
C      1  0.8164135985935  0.6000626499905  0.1606270481091 1.0
C      1  0.2403183784618  0.7357463871039  0.5228846443538 1.0
C      1  0.4064301238586  0.3790408682393  0.5423738776194 1.0
C      1  0.6507772690043  0.3587748589713  0.0343955215783 1.0
C      1  0.3916008222674  0.9031425675401  0.6415503233962 1.0
C      1  0.4630710250316  0.1847973169458  0.7286699256461 1.0
C      1  0.4588670736942  0.5747908419155  0.6269603293290 1.0
C      1  0.9360410173761  0.4051877429380  0.7153891198276 1.0
C      1  0.3103819675188  0.1675856556568  0.7156568109953 1.0
C      1  0.1632027964259  0.4589472313984  0.2043547997856 1.0
C      1  0.4255749004559  0.9534140634871  0.5555753615305 1.0
C      1  0.1565790930966  0.6708308538562  0.1911390375904 1.0
C      1  0.2359432894426  0.2465858784912  0.2654248016974 1.0
C      1  0.8229197221309  0.3137941044046  0.8082349406535 1.0
C      1  0.1664715215849  0.3126250915969  0.2695599169210 1.0
C      1  0.5656663426153  0.9852324288146  0.4624904696773 1.0
C      1  0.1388995659637  0.3345546805863  0.3542417650149 1.0
C      1  0.2039201402147  0.4699727843476  0.5613065917506 1.0
C      1  0.3143028454753  0.4927937630048  0.1658995810506 1.0
C      1  0.7590117357681  0.5483489970183  0.6292459824966 1.0
C      1  0.2554927773436  0.7840212777581  0.4368047363979 1.0
C      1  0.4060761171659  0.1283068497616  0.3833148862373 1.0
C      1  0.2057052343146  0.3729059143296  0.5569454721079 1.0
C      1  0.5130010894172  0.1686869175014  0.1554031949273 1.0
C      1  0.3632169714293  0.9288097857283  0.4713828532828 1.0
C      1  0.5375997591786  0.4442148847253  0.6143453858160 1.0
C      1  0.2273509931271  0.3176471648222  0.1248855304835 1.0
C      1  0.7680002659627  0.7328807975399  0.4800710678827 1.0
C      1  0.7073078220920  0.6227337513274  0.6067411722188 1.0
C      1  0.6791937751179  0.9029106955553  0.6772986748115 1.0
C      1  0.6315674015044  0.2450207259948  0.2841242076902 1.0
C      1  0.6553388860391  0.9440139371319  0.4469292528822 1.0
C      1  0.7969664634784  0.4661188442554  0.4796960146122 1.0
C      1  0.3665283873836  0.6256211902934  0.0774344831873 1.0
C      1  0.6124203453036  0.5948108078447  0.6279934498379 1.0
C      1  0.7118852704113  0.7125583248719  0.5648736650853 1.0
C      1  0.8454046935529  0.2488694250454  0.3415718446104 1.0
C      1  0.6193868637658  0.6956733452916  0.4154542091559 1.0
C      1  0.6889315688670  0.0953065756026  0.6152706451991 1.0
C      1  0.7582747008256  0.2844427196108  0.3828817611521 1.0
C      1  0.3456556434082  0.5108945333240  0.4483468726146 1.0
C      1  0.8397888214004  0.8152732437582  0.3595997524893 1.0
C      1  0.3904574145619  0.4202646377066  0.7160475941685 1.0
C      1  0.1961034810261  0.7125446070906  0.1107814628064 1.0
C      1  0.5357210112238  0.7633616991102  0.1934709847675 1.0
C      1  0.4342739079023  0.2158033402181  0.1276137726097 1.0
C      1  0.2165176522947  0.6052855593091  0.1359243209411 1.0
C      1  0.2935538259398  0.8625856388076  0.6673088582201 1.0
C      1  0.0072690110257  0.3998868263346  0.5973903072944 1.0
C      1  0.7224219422073  0.1880160789570  0.7420567231824 1.0
C      1  0.0788838241541  0.4719093044047  0.4429851068406 1.0
C      1  0.6711306274478  0.4492107840396  0.2687130759867 1.0
C      1  0.4083009335332  0.6109766747082  0.3283172699639 1.0
C      1  0.3445961293237  0.0831248566752  0.7173269678334 1.0
C      1  0.4339741160521  0.8663027957354  0.3272898027950 1.0
C      1  0.1660377651583  0.4886012366938  0.3033865600984 1.0
C      1  0.7892089009686  0.8282244858392  0.4351094885375 1.0
C      1  0.3978831956273  0.7285956994612  0.6556517492698 1.0
C      1  0.6305177434366  0.5070977647570  0.4787388806116 1.0
C      1  0.8629366447851  0.5402294973369  0.2180641770696 1.0
C      1  0.5453169195488  0.3509297398056  0.4687170031573 1.0
C      1  0.1361938551048  0.3908556701130  0.7075600180728 1.0
C      1  0.7088323714567  0.6799976574415  0.4142193812832 1.0
C      1  0.7248158466973  0.5214464601722  0.4473693006244 1.0
C      1  0.9208409726226  0.3610668757972  0.6235796934482 1.0
C      1  0.9048952677129  0.5440981444460  0.3870771263340 1.0
C      1  0.5997484912192  0.6051392711166  0.7353774896129 1.0
C      1  0.3856745756272  0.2433206993303  0.7059955557095 1.0
C      1  0.2896396998596  0.5078812373810  0.6004531855846 1.0
C      1  0.4561142610384  0.3854098806642  0.3467089086776 1.0
C      1  0.4436682316028  0.5726020191507  0.7148139902639 1.0
C      1  0.6013372075469  0.7751601756719  0.8443703517585 1.0
C      1  0.3948325141644  0.5223369357244  0.8632524401214 1.0
C      1  0.5627302615631  0.1897526221642  0.3112661136649 1.0
C      1  0.1786060614323  0.6594098352967  0.7404739125978 1.0
C      1  0.3747903836452  0.4422353741261  0.6179107054389 1.0
C      1  0.2808472512867  0.6620640679640  0.0985912024816 1.0
C      1  0.8130065690204  0.2491929844216  0.4411798397321 1.0
C      1  0.6716801025820  0.6709593174910  0.1183072997405 1.0
C      1  0.5057986325178  0.1435057518994  0.2488930088605 1.0
C      1  0.7031365327413  0.4654278474181  0.1705486603245 1.0
C      1  0.2654155545604  0.5746591927486  0.6694022932420 1.0
C      1  0.0374722387961  0.4208786112797  0.6936802819535 1.0
C      1  0.1561812662536  0.5905004376681  0.3407706832097 1.0
C      1  0.2215175065830  0.5146370745629  0.1500425156325 1.0
C      1  0.8300258984050  0.3150356498720  0.6093982382963 1.0
C      1  0.8253317856252  0.7844542519927  0.2796149274165 1.0
C      1  0.4773425786022  0.0405363898510  0.5781128295997 1.0
C      1  0.5910921546372  0.3295114412102  0.8580349408188 1.0
C      1  0.6184280109073  0.2866809222710  0.1896828472789 1.0
C      1  0.4990777994077  0.7129221552454  0.6676049347997 1.0
C      1  0.3077548150973  0.7383130395728  0.8097652337834 1.0
C      1  0.1717822523516  0.3329204849251  0.6319476558861 1.0
C      1  0.4971382451875  0.6586092658105  0.5006089330211 1.0
C      1  0.3492895379664  0.1906868283750  0.1632208050826 1.0
C      1  0.7724156965411  0.2490129582355  0.7882808064922 1.0
C      1  0.2703535922540  0.4439673282237  0.4218548818740 1.0
C      1  0.7520671196671  0.1590862627377  0.6526353127312 1.0
C      1  0.1801837109728  0.3641892495469  0.7950574602514 1.0
C      1  0.4348390115402  0.6453475478346  0.2385146591286 1.0
C      1  0.2619814648658  0.2238961983924  0.3535656511295 1.0
C      1  0.4890721822367  0.4704780212838  0.4011162546082 1.0
C      1  0.6074077185003  0.6872730408928  0.8763316337851 1.0
C      1  0.4975007043846  0.5633070020065  0.3568730752954 1.0
C      1  0.1846906425712  0.5579020619118  0.7421873359227 1.0
C      1  0.2791655744347  0.8200071488557  0.5729361657700 1.0
C      1  0.6242070004587  0.3923869644768  0.3372489632350 1.0
END
