TITL C-69393-769-6 -8.076 3375.00 -1327.48637102 0 0 164 (C1) n - 1
REM
REM Run started: at 2020.12.12 18:16:50 in /rds/project/t2_vol4/rds-t2-cs072/BORA/CARBON/AIRSS/Generating-Clusters/Str-Search/Only-C1/C100-200
REM VASP from code version vasp.5.4.4.18Apr17-6-g9f103f2a35 (build Oct 11 2019 16:45:47) gamma-only
REM
REM
REM
REM
REM ./C.cell (efaf0b2bf1589a83377268d7ebe2c73f)
REM AIRSS Version 0.9.1 bugfix July 2018 build 013d7b7c2542+ Fri, 06 Jul 2018 19:26:36 +0100
REM compiler GCC version 4.8.5 20150623 (Red Hat 4.8.5-39)
REM options -cpp -mtune=generic -march=x86-64 -g -O0
REM seed -1109541237 -311671795 -595821413 620437975 847732130 195560328 -8001326 -156954652 191626596 557175172 1840050261 614425556
REM
REM C.POTCAR (d86ddea03c3ceb6dc662c8ad6801f873)
REM 
CELL 1.54180   15.00000   15.00000   15.00000   90.00000   90.00000   90.00000
LATT -1
SFAC C  
C      1  0.7312784462015  0.4630239578103  0.1117242020554 1.0
C      1  0.6542193744051  0.8889353474114  0.4617876017762 1.0
C      1  0.7076814743384  0.2250772074370  0.5536416346129 1.0
C      1  0.4845623423118  0.9220387539179  0.4343859943387 1.0
C      1  0.7491012692776  0.4400939039335  0.7943274556767 1.0
C      1  0.6760019802995  0.5796609789898  0.8422059064161 1.0
C      1  0.5169940521705  0.2342958089666  0.1769685919948 1.0
C      1  0.6130572596118  0.2356119132063  0.1727266191977 1.0
C      1  0.4389511230132  0.1955402738950  0.8519972397011 1.0
C      1  0.5198134840919  0.1226844748775  0.3915975350819 1.0
C      1  0.9331024821489  0.5064691718920  0.5766314322692 1.0
C      1  0.2942621465156  0.2402410814503  0.2666590658073 1.0
C      1  0.5589522548733  0.4632904455540  0.5303616138874 1.0
C      1  0.0953861487340  0.6553761538425  0.4855155192187 1.0
C      1  0.4209853252702  0.4488466491630  0.3355380751468 1.0
C      1  0.2335949138465  0.3644688178618  0.4741624577626 1.0
C      1  0.3989188548166  0.1881581553428  0.4944713301103 1.0
C      1  0.6377059196730  0.6407487924792  0.2341723383890 1.0
C      1  0.6388786206778  0.7099312640232  0.3772553370130 1.0
C      1  0.5865825966100  0.3865790880938  0.4772593232556 1.0
C      1  0.6695433022075  0.3033431607362  0.1668677715461 1.0
C      1  0.1433145596726  0.5164663224375  0.2462778445995 1.0
C      1  0.2047921646953  0.7619647054008  0.5544595461855 1.0
C      1  0.2643516880916  0.3774084397044  0.7656948789811 1.0
C      1  0.6348422988807  0.6595965587987  0.4624728096579 1.0
C      1  0.7914248235814  0.4072136356137  0.7094638793664 1.0
C      1  0.5083817089691  0.7441952299129  0.7540921310687 1.0
C      1  0.4128946448995  0.6447024613344  0.1145918575057 1.0
C      1  0.2991356008288  0.3750070558138  0.6727913209660 1.0
C      1  0.5771237088770  0.4655206537030  0.7468319225370 1.0
C      1  0.7106608465142  0.1958384320829  0.4645718118136 1.0
C      1  0.4442945526220  0.2373416542082  0.7587570426850 1.0
C      1  0.7341553692783  0.6833078085667  0.2621260047344 1.0
C      1  0.7353948204431  0.3843665121641  0.5647716573891 1.0
C      1  0.7467777062105  0.5350571431208  0.8011802354409 1.0
C      1  0.3425920001250  0.5985353529349  0.3922442174075 1.0
C      1  0.6687339920578  0.4815298175426  0.1752860317562 1.0
C      1  0.8141454849602  0.4199247340321  0.3307002857736 1.0
C      1  0.6745700685622  0.3891193230259  0.8238585734054 1.0
C      1  0.3286517597656  0.5456668002430  0.5415208182066 1.0
C      1  0.5784490470763  0.9194412160805  0.4488789562942 1.0
C      1  0.2482594502495  0.2920278958157  0.5383125311039 1.0
C      1  0.2371686712835  0.3898304999058  0.1975786240677 1.0
C      1  0.5967854285598  0.2496823620644  0.7729485112476 1.0
C      1  0.3183868864157  0.3487735081790  0.4404274249974 1.0
C      1  0.3218034538709  0.2552812814318  0.4761306198444 1.0
C      1  0.2267633562458  0.5609774253249  0.2387461727853 1.0
C      1  0.8469973240394  0.4815563370462  0.2842313439046 1.0
C      1  0.6093162186077  0.1306086289831  0.3495643096439 1.0
C      1  0.4634453635261  0.3758445784938  0.5984738674107 1.0
C      1  0.4445266827330  0.6124664066786  0.8169302790939 1.0
C      1  0.2685877519648  0.5513878258671  0.1473704566512 1.0
C      1  0.7521442932315  0.5470492217267  0.6363336741736 1.0
C      1  0.3523002107393  0.7723753006434  0.3882229028113 1.0
C      1  0.5247710737385  0.2265871997661  0.8163000926507 1.0
C      1  0.7608222708430  0.3000766282438  0.5945255379357 1.0
C      1  0.1134289517281  0.5658349995967  0.6204210400701 1.0
C      1  0.5814100018053  0.4293115444310  0.8419221931920 1.0
C      1  0.1035857307735  0.5670224300953  0.5206736839213 1.0
C      1  0.4628957948063  0.3099749304095  0.1834627190853 1.0
C      1  0.5176844479776  0.4194938908100  0.3153472716466 1.0
C      1  0.5363776469795  0.2247695454254  0.5792981508963 1.0
C      1  0.1944433761603  0.5681138591424  0.6838496740663 1.0
C      1  0.6814750509546  0.1652407249343  0.3925273014467 1.0
C      1  0.5277884574387  0.6611669178082  0.8031838596225 1.0
C      1  0.1964999293267  0.7095882744721  0.6343423599714 1.0
C      1  0.4724263977037  0.1945751922671  0.4266036728213 1.0
C      1  0.9338196199892  0.4332969159614  0.6243247876370 1.0
C      1  0.7735069956334  0.6800562885231  0.7254947252055 1.0
C      1  0.6087281544816  0.6270035878040  0.8293093047430 1.0
C      1  0.6861468595287  0.3865250284393  0.1456063189708 1.0
C      1  0.4316447736371  0.6351441117531  0.5824152320172 1.0
C      1  0.6962675265171  0.7777000187649  0.5687144917945 1.0
C      1  0.5634972136281  0.0966051573779  0.2715687537817 1.0
C      1  0.2630827910627  0.2960696340016  0.6265307535429 1.0
C      1  0.6227809404447  0.2069305044927  0.5851887129489 1.0
C      1  0.4075758797944  0.9022330257117  0.2979989419519 1.0
C      1  0.2771812733531  0.4562729265032  0.1374375800114 1.0
C      1  0.3378460863065  0.6114238704632  0.6014401940047 1.0
C      1  0.6909501356724  0.3989708149675  0.4771854381749 1.0
C      1  0.3043516048931  0.2920699609524  0.7801318976880 1.0
C      1  0.2937298263702  0.3081264018523  0.2015662128180 1.0
C      1  0.3405419363949  0.8286325726443  0.4695001376963 1.0
C      1  0.6413819821111  0.3262806465593  0.7508683442170 1.0
C      1  0.5355481827753  0.6190252039370  0.4568867925506 1.0
C      1  0.5676405611710  0.5110717139320  0.3098588539650 1.0
C      1  0.3612427705146  0.4569678235540  0.8543400890075 1.0
C      1  0.1448091311119  0.7229725080340  0.4948385540980 1.0
C      1  0.6260448164055  0.5351422362103  0.2381637025603 1.0
C      1  0.5392222130393  0.5507929823447  0.5261159710982 1.0
C      1  0.8135252964455  0.3140221144003  0.6782733683366 1.0
C      1  0.4778789271765  0.7778632734757  0.5237264024786 1.0
C      1  0.5045312526968  0.5833305288828  0.6094028474804 1.0
C      1  0.6610155711785  0.7869684365087  0.6639379989078 1.0
C      1  0.2666246329064  0.6426706986173  0.6647706199620 1.0
C      1  0.8870844273833  0.6479923891785  0.4870472741469 1.0
C      1  0.7244822070416  0.7342447502739  0.3436218683211 1.0
C      1  0.3767554054816  0.6811214247727  0.4163953197606 1.0
C      1  0.7076121572175  0.4911035888724  0.4380789723939 1.0
C      1  0.2008996803837  0.4417893539708  0.2705217180230 1.0
C      1  0.5187450836406  0.7879849263206  0.6009346696042 1.0
C      1  0.4569314997737  0.9665164962220  0.3477468168528 1.0
C      1  0.2760328898534  0.4614923979676  0.8113298965854 1.0
C      1  0.4410871749690  0.1890274392714  0.5899585001897 1.0
C      1  0.3887224950297  0.2873067316328  0.8303631619771 1.0
C      1  0.1961670185126  0.4454959561875  0.4381067511067 1.0
C      1  0.3113968938933  0.2423768965905  0.6910431185536 1.0
C      1  0.4003004604007  0.2116971387670  0.6732732568368 1.0
C      1  0.8421447314599  0.7128345088008  0.4549306340424 1.0
C      1  0.3721618790002  0.3279857708821  0.1495357581349 1.0
C      1  0.5030256304359  0.2850775480668  0.4322795300394 1.0
C      1  0.7144526338088  0.5990805615500  0.5652595050177 1.0
C      1  0.3003315581581  0.5487482444637  0.3110936421168 1.0
C      1  0.3388288659356  0.6068317891270  0.1216045072313 1.0
C      1  0.6924240298082  0.5739305842728  0.4771576260918 1.0
C      1  0.7173756230807  0.8237760124662  0.4878684954035 1.0
C      1  0.3194603954294  0.1745439676561  0.4238906944087 1.0
C      1  0.4343577079926  0.8566097693357  0.4791482961040 1.0
C      1  0.5137188158320  0.5098644168235  0.6773603326208 1.0
C      1  0.8091350564481  0.6344157518346  0.2406606922802 1.0
C      1  0.6834725022414  0.6868543094746  0.5465814207832 1.0
C      1  0.3129634392890  0.1917382013978  0.3323749698155 1.0
C      1  0.3916611130761  0.4060425874374  0.6578767227539 1.0
C      1  0.2575599663664  0.4640102062679  0.3564531319244 1.0
C      1  0.4239560694289  0.4596274356024  0.1903624013030 1.0
C      1  0.5778400188165  0.6683046080321  0.1597615712813 1.0
C      1  0.8500502597755  0.5612351668878  0.2438650188676 1.0
C      1  0.4907098359876  0.3930398533849  0.2192775070036 1.0
C      1  0.3519292007780  0.5237808621126  0.4572633692061 1.0
C      1  0.5881734016649  0.6617676720694  0.3174250813358 1.0
C      1  0.4522522841463  0.6813915092883  0.4912976944401 1.0
C      1  0.4996652739733  0.6626404184167  0.1316338046605 1.0
C      1  0.3508524499845  0.4340065178948  0.4032559613693 1.0
C      1  0.5423197581162  0.3577319791907  0.3910244656637 1.0
C      1  0.3738863621090  0.6699831998418  0.7916272614025 1.0
C      1  0.7529103982192  0.4530566019862  0.6312669668929 1.0
C      1  0.6068101643370  0.3958363011874  0.6916066079322 1.0
C      1  0.4191221033498  0.3781683122287  0.8675036816044 1.0
C      1  0.4186252613453  0.5175003438000  0.8013065702480 1.0
C      1  0.7734953257203  0.5882923609124  0.7218710178132 1.0
C      1  0.8842721370233  0.3783696613860  0.6741356328239 1.0
C      1  0.2864056013830  0.8142997739925  0.5450084672813 1.0
C      1  0.2951032031359  0.6288196930494  0.7593543023217 1.0
C      1  0.3765217572316  0.8261954853602  0.3159301048454 1.0
C      1  0.5629983575662  0.1571058782370  0.1990983629950 1.0
C      1  0.7465176382311  0.4231344681476  0.3955556422846 1.0
C      1  0.4135201555707  0.7514425673150  0.7530740938256 1.0
C      1  0.9155188624738  0.5761012977258  0.5292047629114 1.0
C      1  0.5420957500521  0.4305034061728  0.6208134961865 1.0
C      1  0.3237068680034  0.8347526694571  0.6304442097902 1.0
C      1  0.3864507877033  0.5030364987995  0.2705115763396 1.0
C      1  0.5085249368536  0.3930968498514  0.8791869161192 1.0
C      1  0.4944824088633  0.0497121232539  0.3296910946144 1.0
C      1  0.7240660027967  0.7473594886702  0.7171149431296 1.0
C      1  0.1301189101499  0.6470582120294  0.6611553026677 1.0
C      1  0.7738871234274  0.7671252280682  0.4236458005025 1.0
C      1  0.5185937341626  0.3127124508847  0.5289644773330 1.0
C      1  0.5636012152629  0.7838913468538  0.6792092460053 1.0
C      1  0.4291340331449  0.4803819604427  0.7165762996378 1.0
C      1  0.3661510455701  0.4219117692709  0.1257202814778 1.0
C      1  0.2482389046764  0.5453538518953  0.7668394407343 1.0
C      1  0.3641990557942  0.8073363600876  0.6966250914509 1.0
C      1  0.5436798281752  0.5906175425956  0.3585415514745 1.0
C      1  0.1348509789043  0.5024192998962  0.4665993653607 1.0
END
