TITL C-7085-3146-10 -3.925 3375.00 -661.70001155 0 0 80 (C1) n - 1
REM
REM Run started: at 2020.12.22 15:29:15 in /rds/project/t2_vol4/rds-t2-cs072/BORA/CARBON/AIRSS/Generating-Clusters/Str-Search/Only-C1/C10-100
REM VASP from code version vasp.5.4.4.18Apr17-6-g9f103f2a35 (build Oct 11 2019 16:45:47) gamma-only
REM
REM
REM
REM
REM ./C.cell (67c5d0192afd7a3ce4a0888e5fe73b87)
REM AIRSS Version 0.9.1 bugfix July 2018 build 013d7b7c2542+ Fri, 06 Jul 2018 19:26:36 +0100
REM compiler GCC version 4.8.5 20150623 (Red Hat 4.8.5-39)
REM options -cpp -mtune=generic -march=x86-64 -g -O0
REM seed 1089685533 -287057847 -1495332290 -2095002548 -521216957 -1851976483 247444399 -887188425 -1526308107 -1930355650 1059844169 -1713112168
REM
REM C.POTCAR (d86ddea03c3ceb6dc662c8ad6801f873)
REM 
CELL 1.54180   15.00000   15.00000   15.00000   90.00000   90.00000   90.00000
LATT -1
SFAC C  
C      1  0.5143305381550  0.6546110684585  0.8203985625781 1.0
C      1  0.4739284764648  0.6920383640187  0.3309278806852 1.0
C      1  0.7763612360456  0.6876320686589  0.6355767901131 1.0
C      1  0.3871988940004  0.2769929018652  0.3250554805847 1.0
C      1  0.6427060748758  0.2528279034714  0.5226479323229 1.0
C      1  0.5141849894914  0.4530221147947  0.7043342689948 1.0
C      1  0.2403712004659  0.5352687383248  0.6624149048126 1.0
C      1  0.4339925857400  0.6567429434879  0.7979000954335 1.0
C      1  0.4248401837241  0.4236559955309  0.6904364519138 1.0
C      1  0.4545654530590  0.2329995297143  0.3754774096851 1.0
C      1  0.4871783897749  0.2559957958734  0.5482148501573 1.0
C      1  0.5514570400320  0.7644833738450  0.6030874482312 1.0
C      1  0.2395371715800  0.3999114846030  0.4685019284684 1.0
C      1  0.4272292513721  0.6757127577857  0.6319733071643 1.0
C      1  0.4056686763508  0.3557691905845  0.2829167219611 1.0
C      1  0.5082702930809  0.5632331958985  0.2320144927097 1.0
C      1  0.5918172011697  0.6743045213959  0.4375255261918 1.0
C      1  0.6790100013132  0.3044278568128  0.4494240305847 1.0
C      1  0.5562168818827  0.2259089512152  0.4945457374853 1.0
C      1  0.7530041335893  0.5472896927734  0.4264584111255 1.0
C      1  0.4792665631038  0.4090798502842  0.3223397062136 1.0
C      1  0.3878243872350  0.4497268219839  0.2803487783094 1.0
C      1  0.7313054326952  0.6109758141503  0.3627760573384 1.0
C      1  0.5836448333491  0.5811324468938  0.4813640421238 1.0
C      1  0.3609362661169  0.5810059046493  0.3164441276571 1.0
C      1  0.4136084313952  0.3214238208534  0.5277436187343 1.0
C      1  0.5880424365951  0.4002027997781  0.6929604788347 1.0
C      1  0.5789893265071  0.3098303497655  0.6636384000000 1.0
C      1  0.6696274162884  0.5070831639282  0.2582020823683 1.0
C      1  0.7950916394287  0.6295784999239  0.5789188867663 1.0
C      1  0.7344240246021  0.4532660742010  0.4086298130300 1.0
C      1  0.5783335503750  0.4934366014230  0.2275238887163 1.0
C      1  0.6315444962205  0.3651517515764  0.3092108442558 1.0
C      1  0.6544095730518  0.5684743268864  0.5492411141778 1.0
C      1  0.4646910221279  0.6008001207028  0.6579561462118 1.0
C      1  0.3850349608129  0.6351668211240  0.7157170175986 1.0
C      1  0.3341445750278  0.2736929831848  0.4923984747838 1.0
C      1  0.5107399603841  0.7198615678753  0.4146199931623 1.0
C      1  0.1942144611509  0.5768153955223  0.5887258548635 1.0
C      1  0.6520019679380  0.3010032475931  0.6012032043653 1.0
C      1  0.4425077022646  0.7341282829543  0.4796084640319 1.0
C      1  0.2653137838531  0.3278030173408  0.5308644746896 1.0
C      1  0.5571417136801  0.4113747481295  0.2662943360644 1.0
C      1  0.6352582476095  0.5482926629324  0.6449737894102 1.0
C      1  0.3638109728560  0.2367892885048  0.4097161564282 1.0
C      1  0.2321535154103  0.6506496481686  0.5458875293252 1.0
C      1  0.5325957332535  0.5154767928413  0.4472650715875 1.0
C      1  0.1435996378073  0.5205581116861  0.5332284358568 1.0
C      1  0.7165904210766  0.3876263633399  0.4796790529979 1.0
C      1  0.6945627004279  0.5936323884040  0.2759002985784 1.0
C      1  0.7419033407427  0.5763966336775  0.5200660915746 1.0
C      1  0.6603307407476  0.6795471350038  0.3743028754737 1.0
C      1  0.4845000872611  0.4452218024455  0.4184394364219 1.0
C      1  0.6225839427192  0.2956670819155  0.3718365299793 1.0
C      1  0.4906530076493  0.2809303766909  0.6383585916012 1.0
C      1  0.6263693979931  0.6651583902243  0.2828906785671 1.0
C      1  0.4061923713016  0.4089889804792  0.4668150022076 1.0
C      1  0.2708084084223  0.4363035209481  0.6649573844160 1.0
C      1  0.5780608998958  0.6099055036996  0.7657566932744 1.0
C      1  0.5392560875352  0.5478061077460  0.6903650852800 1.0
C      1  0.2927609762176  0.3579346707519  0.6196132551315 1.0
C      1  0.4672404086462  0.7428284692692  0.5714756200129 1.0
C      1  0.1713357873551  0.4565402857901  0.4866849246302 1.0
C      1  0.3241608359217  0.4378290353396  0.4313281609826 1.0
C      1  0.3162754410196  0.5628011927216  0.7119398700792 1.0
C      1  0.3830606657664  0.6661292197578  0.3530342731389 1.0
C      1  0.4187516999434  0.5387348321040  0.2471335306897 1.0
C      1  0.6962054080682  0.4348142940474  0.3207636736171 1.0
C      1  0.5344490352219  0.6496760636373  0.2683025918249 1.0
C      1  0.3321043759441  0.4955391230075  0.3495635093081 1.0
C      1  0.6600903018319  0.4485384916908  0.6461596289647 1.0
C      1  0.3608145017529  0.7012927650599  0.4411969159169 1.0
C      1  0.6534433245206  0.6248802835911  0.7155975184441 1.0
C      1  0.6945265944790  0.3894238501721  0.5798212501141 1.0
C      1  0.4035815833669  0.3420662638761  0.6362825962806 1.0
C      1  0.5436598637163  0.2416164709606  0.3999978635312 1.0
C      1  0.6254679425239  0.7572930540184  0.6430491813934 1.0
C      1  0.3478507204543  0.4700277156219  0.7105700981458 1.0
C      1  0.2860936980364  0.6825335791663  0.4919322870421 1.0
C      1  0.6941902261337  0.7067064908720  0.6785525122718 1.0
END
