TITL C-7085-3146-19 -4.472 3375.00 -756.46962862 0 0 93 (C1) n - 1
REM
REM Run started: at 2020.12.22 18:43:15 in /rds/project/t2_vol4/rds-t2-cs072/BORA/CARBON/AIRSS/Generating-Clusters/Str-Search/Only-C1/C10-100
REM VASP from code version vasp.5.4.4.18Apr17-6-g9f103f2a35 (build Oct 11 2019 16:45:47) gamma-only
REM
REM
REM
REM
REM ./C.cell (67c5d0192afd7a3ce4a0888e5fe73b87)
REM AIRSS Version 0.9.1 bugfix July 2018 build 013d7b7c2542+ Fri, 06 Jul 2018 19:26:36 +0100
REM compiler GCC version 4.8.5 20150623 (Red Hat 4.8.5-39)
REM options -cpp -mtune=generic -march=x86-64 -g -O0
REM seed 1623974988 -1442898314 -484885672 736411612 1414479451 -1401411444 1149431463 -1359778612 2036572170 275353219 -867289363 1454955411
REM
REM C.POTCAR (d86ddea03c3ceb6dc662c8ad6801f873)
REM 
CELL 1.54180   15.00000   15.00000   15.00000   90.00000   90.00000   90.00000
LATT -1
SFAC C  
C      1  0.7239670974121  0.2927310098148  0.4504858924213 1.0
C      1  0.7704566921465  0.5308547792155  0.5139508396760 1.0
C      1  0.4979252505705  0.3042127486589  0.7144102864148 1.0
C      1  0.4154644869254  0.4278082235878  0.6595210304149 1.0
C      1  0.5899607139541  0.5863027702177  0.2614610619647 1.0
C      1  0.3618531975240  0.7528009808549  0.4932612295343 1.0
C      1  0.7320487689227  0.7504424726968  0.4901983636840 1.0
C      1  0.7358570830587  0.6576090101184  0.6308930748160 1.0
C      1  0.2735801888214  0.7211448922327  0.4695437395618 1.0
C      1  0.3390545350628  0.5785869536059  0.4081167855231 1.0
C      1  0.3152495118851  0.2185787543160  0.6571392683947 1.0
C      1  0.7067423225152  0.4275327853846  0.6658636207894 1.0
C      1  0.3633519046974  0.1661869507735  0.6133810895775 1.0
C      1  0.5229687687774  0.2835007441934  0.2960862091080 1.0
C      1  0.2204040380367  0.3805655861228  0.5777066642084 1.0
C      1  0.5837697824280  0.4286656149903  0.4962164871167 1.0
C      1  0.4181883173034  0.2832865101805  0.2915074498675 1.0
C      1  0.6006151283583  0.2459373273006  0.3407403048029 1.0
C      1  0.4264655833511  0.5264806630318  0.2629660696033 1.0
C      1  0.4513058359688  0.7183388534271  0.7072957686562 1.0
C      1  0.5847014495757  0.4086510581076  0.4037661035170 1.0
C      1  0.4383162594150  0.3449069311448  0.4857971510819 1.0
C      1  0.7079975121089  0.6024701257554  0.3569283354456 1.0
C      1  0.6405842919890  0.4431915487687  0.3182061346974 1.0
C      1  0.3537919518129  0.2641499212233  0.3612215646878 1.0
C      1  0.5146324083322  0.3626485802970  0.2367358727791 1.0
C      1  0.3088217828675  0.6363008775234  0.6726281406259 1.0
C      1  0.3477185502697  0.5588128641355  0.7141352360597 1.0
C      1  0.4822789617459  0.4942690218427  0.6734586255564 1.0
C      1  0.7120384141383  0.5791935019936  0.4519659395770 1.0
C      1  0.3381048255112  0.5003070813427  0.4790124414720 1.0
C      1  0.5762867286726  0.3299288004942  0.7217934173527 1.0
C      1  0.6677264003235  0.6120352537897  0.6994825786128 1.0
C      1  0.5928549127727  0.3337634136860  0.5346889123416 1.0
C      1  0.4424049565871  0.5617525432705  0.7277119015506 1.0
C      1  0.7362145046059  0.7272180192302  0.5720671453347 1.0
C      1  0.4916019626906  0.1953268140431  0.5132003299126 1.0
C      1  0.3644706491421  0.3354214479751  0.4353853965336 1.0
C      1  0.3912697015019  0.5964981961610  0.3186700380677 1.0
C      1  0.3615822611338  0.7161988277545  0.6696900293597 1.0
C      1  0.2328109245278  0.5336206535814  0.2969296680575 1.0
C      1  0.4303440955029  0.7229289074685  0.4232559501685 1.0
C      1  0.4253837995535  0.6832194792484  0.3278226113198 1.0
C      1  0.5923248562789  0.6793763124706  0.2849099598825 1.0
C      1  0.2663388509166  0.3855162518537  0.6572080030603 1.0
C      1  0.3000611527770  0.5235515264963  0.5692139948379 1.0
C      1  0.4146078093124  0.5701976874455  0.4701511411532 1.0
C      1  0.6274768402407  0.5890290182812  0.4934605348749 1.0
C      1  0.3223545031138  0.3094164137232  0.6785056443170 1.0
C      1  0.4176436935958  0.3634855845407  0.2410552616713 1.0
C      1  0.2868257362159  0.2159361920535  0.3904098886551 1.0
C      1  0.4333903964592  0.1571027657973  0.5585803020320 1.0
C      1  0.4824764661381  0.7480432869203  0.6208277141925 1.0
C      1  0.4137132579694  0.3409006825121  0.6895024942447 1.0
C      1  0.3057122789318  0.4063549312331  0.4585678388816 1.0
C      1  0.5488332066913  0.5309847377927  0.6214817575156 1.0
C      1  0.5073206783803  0.6379611531856  0.7377664858855 1.0
C      1  0.5635923257066  0.6688958148804  0.4988288987664 1.0
C      1  0.7349019957472  0.3859048767952  0.5827494189817 1.0
C      1  0.6637112518486  0.5402144440272  0.3030834646770 1.0
C      1  0.7607121407659  0.3807486620367  0.4287912521067 1.0
C      1  0.6865663898585  0.2802641778563  0.3587333708798 1.0
C      1  0.5117539408130  0.7250546833296  0.3073844209469 1.0
C      1  0.2559815577240  0.6353323258937  0.4171227611733 1.0
C      1  0.6464429388457  0.3916738661920  0.7362673953736 1.0
C      1  0.3908277638247  0.7594905559136  0.5824610028261 1.0
C      1  0.2634949139401  0.6062346543217  0.5901174698561 1.0
C      1  0.4714246178178  0.6400585350464  0.4701340670727 1.0
C      1  0.5719302774785  0.6212692364875  0.6565049003230 1.0
C      1  0.6726834983610  0.6906371380574  0.3399042020640 1.0
C      1  0.6147732924598  0.5333084877195  0.8248136948774 1.0
C      1  0.6770831981996  0.7514374246967  0.4162784859702 1.0
C      1  0.5898344486239  0.5122917743905  0.5396180274405 1.0
C      1  0.5520607666823  0.3150089139454  0.3951191741577 1.0
C      1  0.5841874890770  0.7523082022126  0.4428019903840 1.0
C      1  0.7626173359884  0.5684660814177  0.6028573099040 1.0
C      1  0.5176066381768  0.2860587074328  0.4894575058273 1.0
C      1  0.2326304998723  0.6554456226734  0.5156149311774 1.0
C      1  0.5112752446978  0.7740411635229  0.3922823172710 1.0
C      1  0.5211496406725  0.5234417703635  0.2444941805541 1.0
C      1  0.3677234593473  0.4477656826715  0.2498317640163 1.0
C      1  0.6036329566442  0.6153238017925  0.7859002623052 1.0
C      1  0.3264015929730  0.4721782308540  0.6543185882005 1.0
C      1  0.6862495366379  0.3110182372187  0.5378175587738 1.0
C      1  0.2188836083633  0.3913222698465  0.4930821924792 1.0
C      1  0.6310968779470  0.4532241273032  0.8029608838051 1.0
C      1  0.2775147609397  0.4669673114209  0.2612146108530 1.0
C      1  0.7213877026821  0.5218552218283  0.6729449153845 1.0
C      1  0.7712829823343  0.4364956841219  0.5081786256464 1.0
C      1  0.5518176626643  0.6946827255729  0.5931841027760 1.0
C      1  0.5646830491466  0.4357881479316  0.2489282156925 1.0
C      1  0.7137753190746  0.3763486853014  0.3435292249521 1.0
C      1  0.1980620845421  0.5972046110571  0.3457494310533 1.0
END
