TITL C-7085-3146-4 -4.499 3375.00 -764.47484998 0 0 94 (C1) n - 1
REM
REM Run started: at 2020.12.22 12:29:50 in /rds/project/t2_vol4/rds-t2-cs072/BORA/CARBON/AIRSS/Generating-Clusters/Str-Search/Only-C1/C10-100
REM VASP from code version vasp.5.4.4.18Apr17-6-g9f103f2a35 (build Oct 11 2019 16:45:47) gamma-only
REM
REM
REM
REM
REM ./C.cell (67c5d0192afd7a3ce4a0888e5fe73b87)
REM AIRSS Version 0.9.1 bugfix July 2018 build 013d7b7c2542+ Fri, 06 Jul 2018 19:26:36 +0100
REM compiler GCC version 4.8.5 20150623 (Red Hat 4.8.5-39)
REM options -cpp -mtune=generic -march=x86-64 -g -O0
REM seed -591465152 -1052392909 -81890392 1287436095 -1646068131 -1139432138 1935798650 524587517 137902000 -433621882 -676810091 1546624712
REM
REM C.POTCAR (d86ddea03c3ceb6dc662c8ad6801f873)
REM 
CELL 1.54180   15.00000   15.00000   15.00000   90.00000   90.00000   90.00000
LATT -1
SFAC C  
C      1  0.6463547585951  0.6313954942445  0.4297881380114 1.0
C      1  0.4078449337355  0.7085893758422  0.6611613510911 1.0
C      1  0.7480142329251  0.4044605299749  0.6400885321191 1.0
C      1  0.3303281551006  0.4692608500730  0.7799541155748 1.0
C      1  0.6471003317661  0.4846284537007  0.7307586466614 1.0
C      1  0.5062933346274  0.2367099191112  0.4374924485802 1.0
C      1  0.5227738055314  0.4258849439066  0.3904361544863 1.0
C      1  0.6989896958577  0.4874358671742  0.3445642212733 1.0
C      1  0.2810041976521  0.5174911531478  0.7327745145057 1.0
C      1  0.5075883855602  0.5719943517344  0.7302529909611 1.0
C      1  0.4621468162832  0.5435974345372  0.2342637975627 1.0
C      1  0.4314192457082  0.4568878725135  0.3921139397597 1.0
C      1  0.3603850180655  0.3959247963205  0.2614400279961 1.0
C      1  0.2414532269918  0.6387531428794  0.4268525518734 1.0
C      1  0.7143424205415  0.6826584535839  0.5655228018372 1.0
C      1  0.4393094631375  0.7554546002844  0.3043229742285 1.0
C      1  0.2714148354503  0.6204397919059  0.5938921602531 1.0
C      1  0.5825225835216  0.6541651991616  0.5044281478338 1.0
C      1  0.8484897767931  0.5093951244455  0.5815174964652 1.0
C      1  0.4500236935957  0.4455458288838  0.5529514649571 1.0
C      1  0.5928804896853  0.2255704692277  0.4800988073194 1.0
C      1  0.7976293025031  0.6012785674826  0.4286925953061 1.0
C      1  0.6776606316706  0.2505935864833  0.4460360953477 1.0
C      1  0.7476181748252  0.3246674853761  0.5824446084940 1.0
C      1  0.3449837133935  0.7500063903415  0.5244531094652 1.0
C      1  0.7778424809410  0.4953819326301  0.6377687261767 1.0
C      1  0.3744403087453  0.3018278597719  0.4104061041198 1.0
C      1  0.5513182988538  0.2943698412064  0.6607558680095 1.0
C      1  0.3996724372867  0.4062801462812  0.7670692994676 1.0
C      1  0.7348191026549  0.6485794920422  0.4768922984509 1.0
C      1  0.7098779051511  0.5511148865138  0.6826941775920 1.0
C      1  0.5253871186393  0.7786150704564  0.2906553472591 1.0
C      1  0.4710798807178  0.7714423480477  0.6119787586832 1.0
C      1  0.2660887969740  0.4040851881544  0.4097776066224 1.0
C      1  0.6230325318573  0.7266803011865  0.5584900764414 1.0
C      1  0.2921127911802  0.5407214943347  0.2880660419456 1.0
C      1  0.8559698449819  0.5283490329063  0.4349335644191 1.0
C      1  0.6975471947002  0.6439542281764  0.6533711429317 1.0
C      1  0.3826697983425  0.6821653064202  0.2852070997327 1.0
C      1  0.6338806227556  0.5333989419979  0.4070796498840 1.0
C      1  0.4430253392425  0.2886935682422  0.4791009656737 1.0
C      1  0.2825633453830  0.3218286059719  0.4573047715578 1.0
C      1  0.3512402500886  0.5719987673447  0.5417091729869 1.0
C      1  0.2003848949575  0.4805610330622  0.5979251813088 1.0
C      1  0.2991018538554  0.4600037484016  0.2466328779451 1.0
C      1  0.4109116520217  0.5548821284619  0.3886606994404 1.0
C      1  0.6251000601681  0.5533491543855  0.3038980013655 1.0
C      1  0.8967891607824  0.4969972761711  0.5127861468573 1.0
C      1  0.6086694629282  0.4276344772362  0.5425971151569 1.0
C      1  0.7437986358891  0.3041785366184  0.4886086506804 1.0
C      1  0.4506925034009  0.6366063867944  0.7046096921307 1.0
C      1  0.7874329579797  0.5265918844397  0.3704049439902 1.0
C      1  0.5883938769981  0.7208497797548  0.2999144133037 1.0
C      1  0.4591246814484  0.2534609143314  0.3494917462403 1.0
C      1  0.2367371133386  0.5615101272042  0.3657480714206 1.0
C      1  0.5668140466046  0.7680030692613  0.6248079300648 1.0
C      1  0.6713859635292  0.3881227215522  0.3420271961056 1.0
C      1  0.4901721742482  0.4246229711514  0.7781607327533 1.0
C      1  0.6411709413205  0.3098063488424  0.7013963525052 1.0
C      1  0.5512075794893  0.4905998113921  0.7598322621997 1.0
C      1  0.6340093818924  0.6513856591009  0.3302902508396 1.0
C      1  0.5410428592834  0.6207074944146  0.6556020832886 1.0
C      1  0.3277686229111  0.7020731575921  0.6072484363116 1.0
C      1  0.5716353329372  0.3696975176921  0.3329454859588 1.0
C      1  0.4559813567430  0.3093497046292  0.6513866004849 1.0
C      1  0.3020071044827  0.3401950855433  0.6404963392224 1.0
C      1  0.5513948667407  0.5239164420504  0.2468373558764 1.0
C      1  0.2147791724205  0.4834707868353  0.4213460987460 1.0
C      1  0.4286455347601  0.7937916043915  0.5303348929149 1.0
C      1  0.3802167607506  0.3382762068295  0.6967162893811 1.0
C      1  0.3588039587480  0.3940341417954  0.3656427137486 1.0
C      1  0.7103399145846  0.3277550965742  0.3996900668023 1.0
C      1  0.5662032622925  0.3452038235973  0.5675362319983 1.0
C      1  0.3748691439638  0.6065044398381  0.4546533626442 1.0
C      1  0.4661447596249  0.3453794546659  0.5547929671891 1.0
C      1  0.5453386196207  0.5923629065818  0.5618023628844 1.0
C      1  0.3593690865760  0.7363779207970  0.3541418696824 1.0
C      1  0.2317416735526  0.3916500099440  0.6069576322978 1.0
C      1  0.6001022362329  0.2497126650185  0.5773130863649 1.0
C      1  0.2115409240428  0.6086551572841  0.5122689216910 1.0
C      1  0.4496649547559  0.3721751999808  0.2301032687808 1.0
C      1  0.1867710277928  0.5165123313996  0.5100625567521 1.0
C      1  0.6792251054964  0.3977744321564  0.7081206223826 1.0
C      1  0.2385257489938  0.5477927869952  0.6570900153223 1.0
C      1  0.2685794533248  0.3249599137959  0.5510573038062 1.0
C      1  0.3239904643386  0.6992869718110  0.4384506041297 1.0
C      1  0.6089145288072  0.6909815885746  0.6669450185264 1.0
C      1  0.5002966031248  0.3115793174362  0.2876042242696 1.0
C      1  0.6843458498758  0.2670336697665  0.6273242698942 1.0
C      1  0.3880388695820  0.5842796361181  0.2897853277120 1.0
C      1  0.5352128307800  0.4971910343820  0.5419253453203 1.0
C      1  0.5784055220287  0.4712578537372  0.4559798915390 1.0
C      1  0.4897555442618  0.4563591664619  0.2130124645200 1.0
C      1  0.3773118937042  0.4922596591272  0.5674714613313 1.0
END
