TITL C-7085-3146-7 -2.506 3375.00 -418.05123261 0 0 52 (C1) n - 1
REM
REM Run started: at 2020.12.22 13:29:00 in /rds/project/t2_vol4/rds-t2-cs072/BORA/CARBON/AIRSS/Generating-Clusters/Str-Search/Only-C1/C10-100
REM VASP from code version vasp.5.4.4.18Apr17-6-g9f103f2a35 (build Oct 11 2019 16:45:47) gamma-only
REM
REM
REM
REM
REM ./C.cell (67c5d0192afd7a3ce4a0888e5fe73b87)
REM AIRSS Version 0.9.1 bugfix July 2018 build 013d7b7c2542+ Fri, 06 Jul 2018 19:26:36 +0100
REM compiler GCC version 4.8.5 20150623 (Red Hat 4.8.5-39)
REM options -cpp -mtune=generic -march=x86-64 -g -O0
REM seed -1501827454 897620205 1219698017 -162255180 -1687763264 1041695363 -23667640 -1607736651 1289440682 -1870418248 655099785 1634436271
REM
REM C.POTCAR (d86ddea03c3ceb6dc662c8ad6801f873)
REM 
CELL 1.54180   15.00000   15.00000   15.00000   90.00000   90.00000   90.00000
LATT -1
SFAC C  
C      1  0.4553973919330  0.5111947115457  0.5738604565055 1.0
C      1  0.3374790965956  0.4631825974383  0.4456667154248 1.0
C      1  0.4838750294415  0.6416069462935  0.2800053626058 1.0
C      1  0.7131302982348  0.5050616565960  0.5444810663918 1.0
C      1  0.6212270109969  0.5338236176015  0.2947864075843 1.0
C      1  0.7336942141322  0.5943741298512  0.5136358060376 1.0
C      1  0.6768236051141  0.6682347993600  0.4977959146087 1.0
C      1  0.2911891062969  0.3893688545259  0.5994572342793 1.0
C      1  0.5370726525844  0.5026426870303  0.5294252301556 1.0
C      1  0.6899444181968  0.5754037127378  0.3563184908168 1.0
C      1  0.5552090663772  0.5721059698986  0.4635016190825 1.0
C      1  0.3997077480505  0.5828069053336  0.5356281916849 1.0
C      1  0.5345023552822  0.7182806996100  0.4243499509897 1.0
C      1  0.6081268253661  0.5540649658184  0.3900637084540 1.0
C      1  0.4330853860843  0.6599559638589  0.5975288365164 1.0
C      1  0.3739775468348  0.3176840823130  0.5113498153600 1.0
C      1  0.5728941139607  0.4410715044995  0.2833519737682 1.0
C      1  0.3994346603236  0.4396639445435  0.3711756724277 1.0
C      1  0.6587988189000  0.3758523335550  0.5764153427346 1.0
C      1  0.3134586697780  0.3932616635057  0.5013692303828 1.0
C      1  0.5433979666974  0.5769123427771  0.2452467083811 1.0
C      1  0.3631843173021  0.3253670332000  0.6079295597031 1.0
C      1  0.5688484762540  0.6119252675739  0.6615450641136 1.0
C      1  0.2867943529385  0.6201062497953  0.4164422290527 1.0
C      1  0.5585829627284  0.3769145282812  0.3530882010452 1.0
C      1  0.2854911603529  0.5158323961583  0.7123509552696 1.0
C      1  0.4411560087424  0.3323163993097  0.6610286978516 1.0
C      1  0.4446078261245  0.5034540623445  0.6750596124521 1.0
C      1  0.5599864201526  0.4325988116259  0.7067637731414 1.0
C      1  0.5478323491367  0.5313374752556  0.6986074303645 1.0
C      1  0.5110903278361  0.7043479484247  0.3459192729127 1.0
C      1  0.3653433475032  0.5643515755839  0.7043340592347 1.0
C      1  0.7480474677334  0.4279166831030  0.5855304108207 1.0
C      1  0.4651446260126  0.4121575097576  0.7064178653416 1.0
C      1  0.6192003621471  0.3257388476991  0.4974759148287 1.0
C      1  0.4567068552357  0.3148784438067  0.4685628071588 1.0
C      1  0.3285143169278  0.6277177556008  0.3444283965388 1.0
C      1  0.4168392521820  0.4993667647247  0.2971387964931 1.0
C      1  0.5328260145686  0.2935726530211  0.5263840551307 1.0
C      1  0.6283634144047  0.3546912343176  0.4109616116290 1.0
C      1  0.2684531900017  0.4508129680977  0.6614090615066 1.0
C      1  0.3333341179634  0.5607076997366  0.4762465726740 1.0
C      1  0.5998372971649  0.3608473352475  0.6532131883704 1.0
C      1  0.4997173515374  0.4898266500966  0.2498843861153 1.0
C      1  0.5326131741234  0.6663118949990  0.5956603043647 1.0
C      1  0.5744732669583  0.6672096147784  0.5012711663102 1.0
C      1  0.6257416716912  0.4678515067269  0.5449805239140 1.0
C      1  0.4666639010112  0.3701923157852  0.3893611868202 1.0
C      1  0.3840387574386  0.6462070846646  0.6722478341705 1.0
C      1  0.7310166506500  0.6276221559917  0.4256401673461 1.0
C      1  0.5252156850383  0.3057703536033  0.6208672957383 1.0
C      1  0.3979090969572  0.5954946919958  0.2938354653949 1.0
END
