TITL C-7085-3146-11 -0.8 3375.00 -119.41119145 0 0 16 (C1) n - 1
REM
REM Run started: at 2020.12.22 15:35:51 in /rds/project/t2_vol4/rds-t2-cs072/BORA/CARBON/AIRSS/Generating-Clusters/Str-Search/Only-C1/C10-100
REM VASP from code version vasp.5.4.4.18Apr17-6-g9f103f2a35 (build Oct 11 2019 16:45:47) gamma-only
REM
REM
REM
REM
REM ./C.cell (67c5d0192afd7a3ce4a0888e5fe73b87)
REM AIRSS Version 0.9.1 bugfix July 2018 build 013d7b7c2542+ Fri, 06 Jul 2018 19:26:36 +0100
REM compiler GCC version 4.8.5 20150623 (Red Hat 4.8.5-39)
REM options -cpp -mtune=generic -march=x86-64 -g -O0
REM seed 1097615025 -2099669112 -1662157916 -1254931936 -1291543996 1830414360 1718763991 638291569 1635139730 -1402196349 1395424003 2030692255
REM
REM C.POTCAR (d86ddea03c3ceb6dc662c8ad6801f873)
REM 
CELL 1.54180   15.00000   15.00000   15.00000   90.00000   90.00000   90.00000
LATT -1
SFAC C  
C      1  0.5252117210077  0.3757729060698  0.5473213104575 1.0
C      1  0.4849326131790  0.3638316904263  0.4548902042585 1.0
C      1  0.6863747849468  0.5135300325092  0.3982437750686 1.0
C      1  0.5246593440002  0.5796976906636  0.4629088363916 1.0
C      1  0.4642596900427  0.6517044199052  0.4491354136036 1.0
C      1  0.4976694071313  0.4599569586885  0.5881902375337 1.0
C      1  0.5142190407149  0.5301519498300  0.7479398980698 1.0
C      1  0.4273520886948  0.4374937276780  0.4409736477985 1.0
C      1  0.6032629050408  0.5434305383502  0.4336955436865 1.0
C      1  0.6308583517067  0.4507017611540  0.4370117778068 1.0
C      1  0.4598614152587  0.5141950154992  0.5066290880790 1.0
C      1  0.5782797681572  0.3812527327480  0.4692054617680 1.0
C      1  0.5011182685689  0.4931713074196  0.6712284668978 1.0
C      1  0.3799862679502  0.6566086874156  0.4695391258265 1.0
C      1  0.3719120230101  0.5643122994053  0.4844452684158 1.0
C      1  0.3500422105901  0.4841884822375  0.4386417443378 1.0
END
