TITL C-7085-3146-17 -2.668 3375.00 -430.58340617 0 0 54 (C1) n - 1
REM
REM Run started: at 2020.12.22 17:43:46 in /rds/project/t2_vol4/rds-t2-cs072/BORA/CARBON/AIRSS/Generating-Clusters/Str-Search/Only-C1/C10-100
REM VASP from code version vasp.5.4.4.18Apr17-6-g9f103f2a35 (build Oct 11 2019 16:45:47) gamma-only
REM
REM
REM
REM
REM ./C.cell (67c5d0192afd7a3ce4a0888e5fe73b87)
REM AIRSS Version 0.9.1 bugfix July 2018 build 013d7b7c2542+ Fri, 06 Jul 2018 19:26:36 +0100
REM compiler GCC version 4.8.5 20150623 (Red Hat 4.8.5-39)
REM options -cpp -mtune=generic -march=x86-64 -g -O0
REM seed 1889718954 66258397 212496957 1482524671 981587070 -65585764 1489345302 750192451 1337806007 -496265677 1806385539 897042440
REM
REM C.POTCAR (d86ddea03c3ceb6dc662c8ad6801f873)
REM 
CELL 1.54180   15.00000   15.00000   15.00000   90.00000   90.00000   90.00000
LATT -1
SFAC C  
C      1  0.6829971143796  0.6299039032434  0.4564900849749 1.0
C      1  0.6213795193378  0.6112833523786  0.3064154401113 1.0
C      1  0.6778328810512  0.3989960784379  0.3129246725085 1.0
C      1  0.4139152121996  0.4213094902666  0.3056791421928 1.0
C      1  0.3847616150959  0.5159497591786  0.3231566796365 1.0
C      1  0.3501945638103  0.3993202438144  0.6066381286786 1.0
C      1  0.5939275588721  0.3468962449098  0.4464689139062 1.0
C      1  0.5258905403708  0.5067504136403  0.5114331591866 1.0
C      1  0.4087234547756  0.7447802162161  0.4536315035108 1.0
C      1  0.4540404829737  0.4438293785591  0.4734625441956 1.0
C      1  0.7223315165194  0.5840450570257  0.5263646342630 1.0
C      1  0.3468800425135  0.6776469425495  0.4759516261589 1.0
C      1  0.3955529441066  0.3744209164960  0.5257957193154 1.0
C      1  0.4974398215051  0.7496105739151  0.4648319263480 1.0
C      1  0.6897397739689  0.6080176849968  0.6146626844220 1.0
C      1  0.3616142473420  0.6401118424919  0.5653963964981 1.0
C      1  0.4591608741889  0.6310158313628  0.6046857922147 1.0
C      1  0.4937948719077  0.3364226857063  0.6719726371422 1.0
C      1  0.3733305285730  0.3410480758543  0.3370646182084 1.0
C      1  0.5359460725155  0.6573065521074  0.4524068206466 1.0
C      1  0.5467159120576  0.6500704111547  0.6592796197108 1.0
C      1  0.3645302485873  0.2970929262575  0.4812426195833 1.0
C      1  0.3373576951735  0.5565010063716  0.6037743743948 1.0
C      1  0.6431546993801  0.5420843799217  0.2646143726177 1.0
C      1  0.2602095667998  0.4648013612508  0.3989542241055 1.0
C      1  0.6671879774659  0.4435422372235  0.6611066742449 1.0
C      1  0.6822464365114  0.3703754834687  0.4000722436055 1.0
C      1  0.4211188841678  0.5533297484519  0.6545774953591 1.0
C      1  0.5134852560445  0.6000484687990  0.5218652801532 1.0
C      1  0.7500035801016  0.4981670282091  0.4966061503772 1.0
C      1  0.2943466390150  0.4733027868564  0.5764063864276 1.0
C      1  0.2813681535531  0.3430804946478  0.4645356409148 1.0
C      1  0.4734383072677  0.4149112331427  0.7223664597771 1.0
C      1  0.6175619311500  0.7578008934000  0.5647288331034 1.0
C      1  0.7338229225435  0.4311973940581  0.4497734397486 1.0
C      1  0.5619645947217  0.7990664359843  0.5158647548955 1.0
C      1  0.5156109711694  0.2814356643106  0.4353135445795 1.0
C      1  0.5585794084750  0.2844200850695  0.5176590442591 1.0
C      1  0.4221909544155  0.2870883222747  0.4037173977700 1.0
C      1  0.2596253661214  0.4396315015330  0.4938005074530 1.0
C      1  0.5655255127344  0.5644543650893  0.6991180912778 1.0
C      1  0.6156934060775  0.6371398254251  0.3958652232211 1.0
C      1  0.5535627442659  0.4319829924576  0.4758558650096 1.0
C      1  0.4042965313088  0.3718602366913  0.6757097824134 1.0
C      1  0.6366137511974  0.3704362639422  0.6369980120493 1.0
C      1  0.5644008768008  0.3145489239372  0.6110448398005 1.0
C      1  0.2861086041849  0.3721258925367  0.3730614007749 1.0
C      1  0.4854456534114  0.5091434033667  0.7063307509499 1.0
C      1  0.4419930721365  0.4690844450631  0.3795971965534 1.0
C      1  0.3018388682888  0.5475760741990  0.3706554838349 1.0
C      1  0.3025682686716  0.6276230740964  0.4118123884748 1.0
C      1  0.6280850624017  0.6848054218578  0.6205756303666 1.0
C      1  0.6529159857508  0.5360123767704  0.6697190899180 1.0
C      1  0.6669788220405  0.4565932990311  0.2519635581558 1.0
END
