TITL C-72996-5122-6 -8.008 3375.00 -1412.45012629 0 0 172 (C1) n - 1
REM
REM Run started: at 2021.01.15 13:11:26 in /rds/project/t2_vol4/rds-t2-cs072/BORA/CARBON/AIRSS/Generating-Clusters/Str-Search/Only-C1/C100-200
REM VASP from code version vasp.5.4.4.18Apr17-6-g9f103f2a35 (build Oct 11 2019 16:45:47) gamma-only
REM
REM
REM
REM
REM ./C.cell (efaf0b2bf1589a83377268d7ebe2c73f)
REM AIRSS Version 0.9.1 bugfix July 2018 build 013d7b7c2542+ Fri, 06 Jul 2018 19:26:36 +0100
REM compiler GCC version 4.8.5 20150623 (Red Hat 4.8.5-39)
REM options -cpp -mtune=generic -march=x86-64 -g -O0
REM seed 732053535 835315661 630577178 1867096009 644438213 1842981417 -88014731 1911780931 1573531348 1874977058 -1987314403 -504291792
REM
REM C.POTCAR (d86ddea03c3ceb6dc662c8ad6801f873)
REM 
CELL 1.54180   15.00000   15.00000   15.00000   90.00000   90.00000   90.00000
LATT -1
SFAC C  
C      1  0.8663151334088  0.6607878142446  0.3840001420115 1.0
C      1  0.5263046315598  0.6868746499934  0.2032078273242 1.0
C      1  0.6896956335963  0.6211882773010  0.2145275012566 1.0
C      1  0.3884827339031  0.4897269580922  0.5531675016799 1.0
C      1  0.5651398403466  0.6897319487479  0.7621382824936 1.0
C      1  0.5125972266169  0.4058820067457  0.6977243815244 1.0
C      1  0.2124723308454  0.6084153227619  0.2187273122715 1.0
C      1  0.5747200653594  0.4621158695322  0.6403495142261 1.0
C      1  0.5472841320913  0.6246867611504  0.6788726576221 1.0
C      1  0.5995610297556  0.7038654069673  0.5350673072423 1.0
C      1  0.4338650625649  0.1899360069890  0.6631860848145 1.0
C      1  0.5073573502697  0.7687433460944  0.7360854167153 1.0
C      1  0.7754357362872  0.5752794734915  0.6201792164516 1.0
C      1  0.3601659975246  0.2044970255508  0.5970975831558 1.0
C      1  0.3649567634582  0.5318498317200  0.4598629885782 1.0
C      1  0.6909933238296  0.4408543523499  0.2484675590381 1.0
C      1  0.6618665512140  0.3536094480671  0.2097900416677 1.0
C      1  0.3444588475818  0.6800890137986  0.5375426225356 1.0
C      1  0.2732727577605  0.7333750986131  0.7078411032538 1.0
C      1  0.5952265910051  0.1706490172817  0.3897025678663 1.0
C      1  0.3308149928547  0.3650944456325  0.7934573115063 1.0
C      1  0.6502406048289  0.3641618681550  0.3965434577567 1.0
C      1  0.5279865990789  0.2600475829183  0.2358287195848 1.0
C      1  0.2662881276709  0.5969230621741  0.1418305201491 1.0
C      1  0.1527056721772  0.6232257228426  0.5155132260293 1.0
C      1  0.3501714244030  0.3076825156859  0.7125454260478 1.0
C      1  0.6906817809735  0.8281199072379  0.5015654881467 1.0
C      1  0.1379238122286  0.3206833759569  0.4472500047838 1.0
C      1  0.8558171049322  0.5296039660864  0.6426799674569 1.0
C      1  0.5169267636831  0.5135080938150  0.2548518733256 1.0
C      1  0.4210855577090  0.5609760841850  0.1399354375073 1.0
C      1  0.1573310248590  0.6855515209855  0.5889198857212 1.0
C      1  0.7564469602403  0.6616460773306  0.6026590696665 1.0
C      1  0.3352378106623  0.3641451436352  0.1563597086790 1.0
C      1  0.3134577270222  0.3844610532828  0.3816269010057 1.0
C      1  0.4071077438710  0.5748688637041  0.6058378672468 1.0
C      1  0.3335770908736  0.4349968186271  0.6210167385011 1.0
C      1  0.7300998545966  0.2190337173295  0.3044640017838 1.0
C      1  0.7543215125060  0.2394072070523  0.5454887804849 1.0
C      1  0.5168478469208  0.1889915169643  0.6096388721113 1.0
C      1  0.3550922192350  0.6469852832456  0.3567551102881 1.0
C      1  0.4235459726232  0.3502662050026  0.1283933275009 1.0
C      1  0.5690629124563  0.3345988330084  0.1875641680314 1.0
C      1  0.3735067087568  0.8491888022943  0.4194719486243 1.0
C      1  0.3299004950797  0.5284545597810  0.1374546541936 1.0
C      1  0.2883304363572  0.3340841634168  0.4707717190522 1.0
C      1  0.1671988278911  0.4856405863478  0.5632491565913 1.0
C      1  0.3818757236253  0.2817535616938  0.1776738930462 1.0
C      1  0.6015253570195  0.4729884038186  0.4649609030031 1.0
C      1  0.6931043207331  0.1908196887254  0.3876294933420 1.0
C      1  0.7135062948018  0.5565461874077  0.8296824504149 1.0
C      1  0.4564518871882  0.5370224397179  0.3163598529368 1.0
C      1  0.2779019581358  0.6763628790822  0.1894588511593 1.0
C      1  0.1015019236083  0.5244642944852  0.5013044754992 1.0
C      1  0.4895921551689  0.6211320297552  0.4643122999501 1.0
C      1  0.4120291516639  0.3771574441762  0.6605740700309 1.0
C      1  0.5824218410410  0.5379673170350  0.1801516494556 1.0
C      1  0.3489142772208  0.6189109052982  0.8243131535775 1.0
C      1  0.7941357144333  0.3827902683673  0.7385739918494 1.0
C      1  0.4672094273765  0.8302698587200  0.4156592499139 1.0
C      1  0.6811897307774  0.4681793554050  0.8414253417580 1.0
C      1  0.5981023339225  0.4647745432600  0.8846698337008 1.0
C      1  0.5458577298333  0.7406494407744  0.2819246457925 1.0
C      1  0.3710224865847  0.8204999748155  0.6175545797276 1.0
C      1  0.5173743211904  0.2791270215613  0.5644299257687 1.0
C      1  0.2123888468083  0.5346029982496  0.3816393283623 1.0
C      1  0.2929264357057  0.2347813606569  0.4614817143067 1.0
C      1  0.1471190496793  0.3939995880473  0.3842040529740 1.0
C      1  0.7215827549628  0.6432641298415  0.4498325786594 1.0
C      1  0.6942365735405  0.2723784664972  0.6886544164042 1.0
C      1  0.3781735299311  0.7351013460788  0.3117626973500 1.0
C      1  0.8849052744886  0.5731978794198  0.3923568991374 1.0
C      1  0.4354055892588  0.2389859222263  0.2421934806466 1.0
C      1  0.7930581613829  0.7148764278639  0.4365228963638 1.0
C      1  0.4122254276748  0.3632887479404  0.8428865473218 1.0
C      1  0.5989120191272  0.6339388428458  0.1801010358947 1.0
C      1  0.4729691470742  0.2996690639675  0.8031026324839 1.0
C      1  0.3669772310833  0.1849495270227  0.4976207538611 1.0
C      1  0.7800557609206  0.3138724741072  0.6775369920263 1.0
C      1  0.6428393843143  0.3736068929859  0.4966754568955 1.0
C      1  0.4363059575666  0.1722562483941  0.4336207907033 1.0
C      1  0.5501582696513  0.3448954147576  0.7577028806025 1.0
C      1  0.5661087597274  0.6634091978716  0.4521819260850 1.0
C      1  0.5057383789668  0.4555567533897  0.4481073410100 1.0
C      1  0.8064404246000  0.3142165401998  0.4027001745583 1.0
C      1  0.4202411305641  0.7711071505982  0.7745305276948 1.0
C      1  0.2319266304975  0.5578445692078  0.5461178257840 1.0
C      1  0.3056778788845  0.2764796809721  0.6277285203723 1.0
C      1  0.4224006129082  0.2450771733299  0.7372130225516 1.0
C      1  0.3005004520906  0.8154954339404  0.4645474926119 1.0
C      1  0.3555474084472  0.5145249411837  0.8493072099139 1.0
C      1  0.7150118004609  0.7575840245050  0.6945792960859 1.0
C      1  0.7111616229333  0.3928837882738  0.7883800290492 1.0
C      1  0.2280566418910  0.4497753992831  0.2490165796272 1.0
C      1  0.5169385785618  0.4722217795439  0.9015934647774 1.0
C      1  0.2890154678025  0.4885674441572  0.6991817780869 1.0
C      1  0.4608331908801  0.4294091750580  0.5309217559141 1.0
C      1  0.6377623959737  0.7185623848509  0.3174894994805 1.0
C      1  0.3058663063572  0.4552279263927  0.7864181938236 1.0
C      1  0.6057992374188  0.8058528500532  0.5136875156877 1.0
C      1  0.6814061038505  0.6422488977280  0.5427612054299 1.0
C      1  0.3036174926594  0.7750459074714  0.5547794511021 1.0
C      1  0.7264138763139  0.6905246720102  0.2762591692281 1.0
C      1  0.2242338163119  0.3841395154530  0.3194200194564 1.0
C      1  0.2239377368203  0.7385833263764  0.6204563138487 1.0
C      1  0.4371572021295  0.2343929103970  0.3473150115201 1.0
C      1  0.7470687516685  0.5485427021704  0.4256606989648 1.0
C      1  0.6798463756131  0.5251864640652  0.2045977013989 1.0
C      1  0.3153327952908  0.8019438946284  0.3650502511370 1.0
C      1  0.6837478215254  0.2133598832915  0.6118427987476 1.0
C      1  0.5791613359150  0.3028628890321  0.4969845196030 1.0
C      1  0.4080901481081  0.3367100349618  0.3681300937667 1.0
C      1  0.3629256017924  0.7033543547349  0.2159362249890 1.0
C      1  0.1073987951570  0.3519697887817  0.5303788136775 1.0
C      1  0.2799660044247  0.6481190835754  0.7545851874420 1.0
C      1  0.7206635552337  0.2912162900638  0.2455522506947 1.0
C      1  0.7700644619500  0.7888717527934  0.5174552227961 1.0
C      1  0.8992862271447  0.5283066226492  0.7314788717563 1.0
C      1  0.6481000482918  0.3262625848411  0.7537957258192 1.0
C      1  0.2918237000432  0.4426789758659  0.1755178721711 1.0
C      1  0.6391258995844  0.6707576354509  0.3939550544287 1.0
C      1  0.1360501810276  0.4813873919768  0.4183263096883 1.0
C      1  0.5289014089570  0.6921384565845  0.6027322190409 1.0
C      1  0.4387547239011  0.5945384658253  0.7787799081293 1.0
C      1  0.6718710276846  0.5029909991282  0.4019989550933 1.0
C      1  0.6816388454372  0.5472266274494  0.5902694440553 1.0
C      1  0.4366238834949  0.6559672501247  0.1750000420412 1.0
C      1  0.3597467406560  0.5578538720210  0.3189609843353 1.0
C      1  0.3121545207427  0.4905200943905  0.3870708419290 1.0
C      1  0.3225713515299  0.6313733403546  0.4506628511088 1.0
C      1  0.8493745611231  0.3817688810126  0.5438264488629 1.0
C      1  0.4619477576801  0.8348980953511  0.5853730870873 1.0
C      1  0.4463334025422  0.6506115655449  0.5502990317855 1.0
C      1  0.2753589719520  0.3586969746373  0.5725703905018 1.0
C      1  0.8347788902152  0.5011617533976  0.4189004491297 1.0
C      1  0.7938207916114  0.2889595065353  0.3094955278314 1.0
C      1  0.2272592219998  0.6028777483086  0.4524811853506 1.0
C      1  0.6829293912287  0.4335640627049  0.3401949866842 1.0
C      1  0.7992005386021  0.7073669850772  0.3328649051670 1.0
C      1  0.3520599594282  0.7890090143998  0.7075812001878 1.0
C      1  0.5296747234721  0.1397689079868  0.4510288096399 1.0
C      1  0.5652450078682  0.3150769352835  0.3939577636187 1.0
C      1  0.5113318426799  0.8383858298593  0.5007376614166 1.0
C      1  0.7549517234207  0.2376620802694  0.4513177048517 1.0
C      1  0.8393021180826  0.3959912277532  0.4486805423154 1.0
C      1  0.8757186477563  0.4433071805525  0.6104926872312 1.0
C      1  0.5427465713548  0.2389585416845  0.3344104146945 1.0
C      1  0.4280896875575  0.4549325445901  0.8799641907222 1.0
C      1  0.3049259224575  0.6037606204810  0.5992482216132 1.0
C      1  0.1761110129746  0.3935348115639  0.5771609207219 1.0
C      1  0.2116883143763  0.2614499562153  0.4462995051261 1.0
C      1  0.2744779399098  0.5803754862245  0.6900532788319 1.0
C      1  0.5156384926574  0.7829475997867  0.6461874544182 1.0
C      1  0.8098199838434  0.3045481297411  0.5875189123510 1.0
C      1  0.2030900736648  0.5395143832675  0.2800072586495 1.0
C      1  0.7668693231719  0.7551986035782  0.6183331460222 1.0
C      1  0.6108879888365  0.1559246113963  0.6015849644625 1.0
C      1  0.6369362443486  0.4558499318973  0.5576039750935 1.0
C      1  0.4602617600714  0.5391133603506  0.4182787964936 1.0
C      1  0.4592246014662  0.3495365817303  0.5779335813485 1.0
C      1  0.6057850989919  0.5479044980701  0.6557389627823 1.0
C      1  0.4978255457253  0.4955036642685  0.1530255529434 1.0
C      1  0.5501386310391  0.1228789616402  0.5420594055668 1.0
C      1  0.5022427303485  0.6453711534187  0.8325492360933 1.0
C      1  0.5031849695244  0.3937977098125  0.1437160734684 1.0
C      1  0.4748900358439  0.7753187820944  0.3339518423955 1.0
C      1  0.4181769137506  0.6945387923344  0.8365982313569 1.0
C      1  0.6708768466328  0.7065541485490  0.7603593633747 1.0
C      1  0.8646562081456  0.4399093808349  0.7086324217728 1.0
C      1  0.4562713653269  0.5832478272650  0.6905061527148 1.0
C      1  0.4867712324517  0.3763772830236  0.3908146743517 1.0
C      1  0.7105824326757  0.6373891393089  0.8104805460298 1.0
END
