TITL C-72996-5122-2 -7.38 3375.00 -1288.32897510 0 0 159 (C1) n - 1
REM
REM Run started: at 2021.01.15 08:51:03 in /rds/project/t2_vol4/rds-t2-cs072/BORA/CARBON/AIRSS/Generating-Clusters/Str-Search/Only-C1/C100-200
REM VASP from code version vasp.5.4.4.18Apr17-6-g9f103f2a35 (build Oct 11 2019 16:45:47) gamma-only
REM
REM
REM
REM
REM ./C.cell (efaf0b2bf1589a83377268d7ebe2c73f)
REM AIRSS Version 0.9.1 bugfix July 2018 build 013d7b7c2542+ Fri, 06 Jul 2018 19:26:36 +0100
REM compiler GCC version 4.8.5 20150623 (Red Hat 4.8.5-39)
REM options -cpp -mtune=generic -march=x86-64 -g -O0
REM seed 724187121 2036089404 2067802756 898033005 -774598752 248710226 -2567468 -619458333 -515887858 1031024633 -2072318411 -489921941
REM
REM C.POTCAR (d86ddea03c3ceb6dc662c8ad6801f873)
REM 
CELL 1.54180   15.00000   15.00000   15.00000   90.00000   90.00000   90.00000
LATT -1
SFAC C  
C      1  0.3889680339545  0.5611851569498  0.1443899831537 1.0
C      1  0.3093624361629  0.7492360863819  0.7000579274954 1.0
C      1  0.5183042017471  0.5108196767848  0.4953516647101 1.0
C      1  0.5507044607802  0.3174743276915  0.2967898256421 1.0
C      1  0.7243423365061  0.6806921690813  0.3251918426795 1.0
C      1  0.1955602081246  0.6549630985497  0.5625423888558 1.0
C      1  0.7279610156487  0.2967555887110  0.2579350455859 1.0
C      1  0.5528704702376  0.3605973033466  0.7883076969636 1.0
C      1  0.2089518287452  0.3858414591494  0.3803652171482 1.0
C      1  0.4837916580474  0.3146101829706  0.3723495251164 1.0
C      1  0.3090357154780  0.2835796103424  0.2887129713424 1.0
C      1  0.7664732552152  0.7347282583002  0.5617057615573 1.0
C      1  0.5082390084037  0.4787387142823  0.5916254473599 1.0
C      1  0.2795534980016  0.6055350968766  0.3160650993175 1.0
C      1  0.6170434095791  0.8035504656228  0.5968772067004 1.0
C      1  0.3972344631907  0.7068721577287  0.2292276312244 1.0
C      1  0.8540081482928  0.4538889861287  0.5203840324748 1.0
C      1  0.1523162878186  0.3465571934517  0.6320759865143 1.0
C      1  0.1234752978512  0.3960566506292  0.8039811006498 1.0
C      1  0.3312325452389  0.4962377928266  0.6289783001376 1.0
C      1  0.5568180496710  0.6550206203803  0.2091568822774 1.0
C      1  0.6085814200202  0.6717018745925  0.4297334312080 1.0
C      1  0.2949423502599  0.7558021649107  0.3690250851903 1.0
C      1  0.5863580255073  0.5874367518463  0.5460817190131 1.0
C      1  0.5182615619230  0.6770206603330  0.4555285245923 1.0
C      1  0.1522804305728  0.4035094374639  0.4633858770252 1.0
C      1  0.5772830818073  0.2865644041016  0.7306936564529 1.0
C      1  0.3760790132794  0.6164675319351  0.4602919733756 1.0
C      1  0.3947785527050  0.3350248767815  0.7683434836439 1.0
C      1  0.8279894621855  0.3624610259102  0.4999500874100 1.0
C      1  0.7998290540988  0.5272052969038  0.3009353084552 1.0
C      1  0.6628877006267  0.4925310428026  0.3062769192361 1.0
C      1  0.4124208993917  0.2754158413220  0.7006375318263 1.0
C      1  0.6589957315522  0.3444636906542  0.6894526122720 1.0
C      1  0.7219479318684  0.5771572104794  0.3418034660030 1.0
C      1  0.4553797877614  0.5421948968027  0.8447895198667 1.0
C      1  0.6434138981748  0.1358776503434  0.5881559775819 1.0
C      1  0.5911891650116  0.3712482955519  0.5329748012225 1.0
C      1  0.2741347774961  0.5796201652285  0.5758233380567 1.0
C      1  0.5471094175836  0.2326056135137  0.2444313480455 1.0
C      1  0.4412365894233  0.1885444056328  0.5624291013135 1.0
C      1  0.7632592599594  0.4559281433390  0.7537995432393 1.0
C      1  0.6591900090647  0.4472504815462  0.5600234598855 1.0
C      1  0.4739416941408  0.5680453775339  0.3288735224700 1.0
C      1  0.7252619436501  0.2342345881099  0.3254999503649 1.0
C      1  0.4241371273359  0.3545559993215  0.5789625789800 1.0
C      1  0.6978470144908  0.4763773105555  0.4694558678675 1.0
C      1  0.6382971554705  0.2588662598436  0.2794379880666 1.0
C      1  0.3192970051934  0.7394219559478  0.6006033782191 1.0
C      1  0.1042102831381  0.5809297541386  0.4450185244249 1.0
C      1  0.2364993022981  0.7041712518443  0.4397899624791 1.0
C      1  0.4940767842677  0.7270685107732  0.2392127935562 1.0
C      1  0.8218167316791  0.6094585926409  0.4595160441936 1.0
C      1  0.2500276632225  0.2916921261080  0.3635679818398 1.0
C      1  0.2433210113709  0.7332927642651  0.5394072475410 1.0
C      1  0.8094173513044  0.5806980000649  0.6260333022806 1.0
C      1  0.5804711791028  0.4858325227737  0.2490421382799 1.0
C      1  0.5787533806770  0.1044932424959  0.6329659231934 1.0
C      1  0.4412203942539  0.6233428515490  0.6092916265277 1.0
C      1  0.5080603486652  0.3843331895057  0.5843913315113 1.0
C      1  0.5098835775872  0.8361818110206  0.4967835882502 1.0
C      1  0.4465537565535  0.6419417689691  0.3946444936009 1.0
C      1  0.6769102255033  0.1629985257631  0.5061442223972 1.0
C      1  0.3487099803974  0.4976663481241  0.7260703549397 1.0
C      1  0.8254545771827  0.6455610583417  0.5545256218984 1.0
C      1  0.3855348977586  0.2653026633451  0.5985520211085 1.0
C      1  0.6779147502533  0.3524364738184  0.5870839816840 1.0
C      1  0.7745117447806  0.2489557791016  0.4039078091837 1.0
C      1  0.1731791527002  0.5646721817315  0.7653659676193 1.0
C      1  0.7921276710692  0.6974709215858  0.4037167228757 1.0
C      1  0.6538378779943  0.6167450931172  0.4829084635117 1.0
C      1  0.4666073169027  0.8098829748413  0.6559359588327 1.0
C      1  0.5050404947253  0.2361837859896  0.6976955769029 1.0
C      1  0.7478666529707  0.4626460408717  0.2587679438369 1.0
C      1  0.6017366855830  0.5140832230891  0.6149105425094 1.0
C      1  0.1476829755016  0.4767581034133  0.7595250246689 1.0
C      1  0.3575409859335  0.4261925089075  0.7843439732428 1.0
C      1  0.6152842672037  0.5192787807160  0.7175682885774 1.0
C      1  0.4111773643146  0.2468718202870  0.4053364106109 1.0
C      1  0.3048957567125  0.4585647208581  0.2287440941899 1.0
C      1  0.6861557379296  0.7386819780614  0.6220108662688 1.0
C      1  0.6469117728916  0.4488139571841  0.3986782569343 1.0
C      1  0.2078259791094  0.2932631258216  0.5786150762372 1.0
C      1  0.3210744580060  0.6984226657379  0.2950788068406 1.0
C      1  0.1444634382071  0.3953658453278  0.7114306077018 1.0
C      1  0.2161948509555  0.6352351657788  0.7738892087180 1.0
C      1  0.7809870527869  0.3737724867139  0.2646154013795 1.0
C      1  0.6695479964286  0.7995324455720  0.4350287883313 1.0
C      1  0.2493624353645  0.5205797421734  0.2736122034893 1.0
C      1  0.5161683819118  0.7695596411453  0.5777947753017 1.0
C      1  0.1500374348134  0.6554200494748  0.4755388086423 1.0
C      1  0.7589137198005  0.3093292023288  0.5441380287353 1.0
C      1  0.6367705768349  0.7340069392877  0.3593237360352 1.0
C      1  0.7409282508246  0.2313274561952  0.4906344239149 1.0
C      1  0.3368697690908  0.7097501248150  0.8528924536080 1.0
C      1  0.3373539562501  0.4065630446728  0.5664253307029 1.0
C      1  0.4125249955714  0.5643624323626  0.7569913133078 1.0
C      1  0.4260817867254  0.4479084520029  0.8537384713611 1.0
C      1  0.7534908458520  0.3648569653353  0.7258744368040 1.0
C      1  0.3546750029662  0.6506751927541  0.5646098839592 1.0
C      1  0.4831316070317  0.2157653206928  0.1627385365650 1.0
C      1  0.8351296356358  0.3252415818955  0.4101362956405 1.0
C      1  0.3229838323536  0.2963281045087  0.4401459916278 1.0
C      1  0.5401384198768  0.7515205817234  0.3179253163852 1.0
C      1  0.5616885500529  0.4284302215321  0.4467025455968 1.0
C      1  0.3880754476520  0.2263492750368  0.3081570731873 1.0
C      1  0.1362764599865  0.5313226028699  0.3758369072206 1.0
C      1  0.4679241122370  0.6178307881334  0.7060628379054 1.0
C      1  0.3734880355981  0.7994389017162  0.6597223345148 1.0
C      1  0.3410932172811  0.3810964605599  0.2851666115072 1.0
C      1  0.5078804968648  0.2335629878006  0.0810031463041 1.0
C      1  0.3808641248517  0.4760599264767  0.1803675376170 1.0
C      1  0.8699430213159  0.5168652742289  0.4448479290189 1.0
C      1  0.4329499268604  0.4239630439136  0.2485451978033 1.0
C      1  0.6759139886920  0.6721508745671  0.6866032903368 1.0
C      1  0.5323111506613  0.5734102882732  0.2539794412517 1.0
C      1  0.4219799515917  0.5279482989261  0.5902916943582 1.0
C      1  0.2830203078164  0.6077928295836  0.4192154143744 1.0
C      1  0.3317458061544  0.4602693509443  0.4775622778301 1.0
C      1  0.6014413070545  0.4207615350397  0.7386946473047 1.0
C      1  0.7186674789207  0.6905221626274  0.2252200904959 1.0
C      1  0.5522937791342  0.8312769114057  0.6657363231358 1.0
C      1  0.6089023879489  0.1389262719500  0.4458547665266 1.0
C      1  0.4767461846968  0.7379841983171  0.3924508325753 1.0
C      1  0.1573535303320  0.5011101775308  0.4741773235297 1.0
C      1  0.4814208649352  0.4063153420514  0.3961589554292 1.0
C      1  0.5419877628250  0.5995571106441  0.8433717421172 1.0
C      1  0.4059196296997  0.6970104223732  0.8978907156673 1.0
C      1  0.1473828389996  0.3505654229877  0.5358246936991 1.0
C      1  0.8148751491877  0.4278434389264  0.6820999331636 1.0
C      1  0.2562096068533  0.5316997102173  0.4848285519326 1.0
C      1  0.3163796033002  0.3941075294773  0.4001797598682 1.0
C      1  0.4525181569452  0.4727102057127  0.3377166213950 1.0
C      1  0.7528602635014  0.7573098189698  0.4650459647158 1.0
C      1  0.5266956552538  0.1316028011888  0.4341010460687 1.0
C      1  0.7282476243015  0.5675076389474  0.4449507993500 1.0
C      1  0.4343194368295  0.8185466594547  0.4334297977331 1.0
C      1  0.3478246443763  0.8224815324295  0.4095219703400 1.0
C      1  0.4677779713549  0.3684354779270  0.8295084134954 1.0
C      1  0.4121790267534  0.5253924993630  0.4901968768646 1.0
C      1  0.2785968710953  0.7057523069982  0.7787693171603 1.0
C      1  0.4536142922349  0.1799302438529  0.4688406447410 1.0
C      1  0.5341797099481  0.4054490004148  0.2461566223155 1.0
C      1  0.6460082297812  0.6704909855399  0.1880619735185 1.0
C      1  0.8349482140395  0.4866946646159  0.6092405488112 1.0
C      1  0.3021470356088  0.3021326610272  0.5492269124343 1.0
C      1  0.7444739234772  0.6036253348240  0.6931803523999 1.0
C      1  0.6062343765917  0.8354273663337  0.4962253902286 1.0
C      1  0.8611717793186  0.4804121650538  0.3586355024276 1.0
C      1  0.1852331736511  0.4723772239736  0.3243121981702 1.0
C      1  0.8456452003986  0.3838935393010  0.3387903346858 1.0
C      1  0.5157996144094  0.6648139217816  0.5549725395299 1.0
C      1  0.8643833455410  0.7309345054288  0.5864147168510 1.0
C      1  0.3859448932464  0.6416215411550  0.1622151517433 1.0
C      1  0.4549007564811  0.1957312910495  0.2513065298723 1.0
C      1  0.5079859085629  0.1686999746561  0.6294736777783 1.0
C      1  0.4713260280386  0.6309413216805  0.8899184758252 1.0
C      1  0.5677453471267  0.6090785918749  0.7456109724376 1.0
C      1  0.7118801315538  0.5313725272252  0.7455170322851 1.0
END
