TITL C-72996-5122-11 -5.488 3375.00 -937.05377643 0 0 113 (C1) n - 1
REM
REM Run started: at 2021.01.15 19:21:20 in /rds/project/t2_vol4/rds-t2-cs072/BORA/CARBON/AIRSS/Generating-Clusters/Str-Search/Only-C1/C100-200
REM VASP from code version vasp.5.4.4.18Apr17-6-g9f103f2a35 (build Oct 11 2019 16:45:47) gamma-only
REM
REM
REM
REM
REM ./C.cell (efaf0b2bf1589a83377268d7ebe2c73f)
REM AIRSS Version 0.9.1 bugfix July 2018 build 013d7b7c2542+ Fri, 06 Jul 2018 19:26:36 +0100
REM compiler GCC version 4.8.5 20150623 (Red Hat 4.8.5-39)
REM options -cpp -mtune=generic -march=x86-64 -g -O0
REM seed 1525114946 -556181070 1618525595 -848851242 -106542950 -843396479 -783216339 -99543805 1668500028 1872616869 1729384012 -789816999
REM
REM C.POTCAR (d86ddea03c3ceb6dc662c8ad6801f873)
REM 
CELL 1.54180   15.00000   15.00000   15.00000   90.00000   90.00000   90.00000
LATT -1
SFAC C  
C      1  0.5554511563632  0.7125892386765  0.7122451502889 1.0
C      1  0.7491285702298  0.5965386490152  0.3966085891864 1.0
C      1  0.6925356860895  0.7217199189615  0.5447796710704 1.0
C      1  0.7310113100122  0.3045609186595  0.7238038363329 1.0
C      1  0.5132839009588  0.5513807550033  0.2134376503984 1.0
C      1  0.3266612306706  0.2594772988451  0.3470189549109 1.0
C      1  0.2789331859930  0.7621559381014  0.4701242061008 1.0
C      1  0.3351321880399  0.8082142267817  0.5345872231096 1.0
C      1  0.2455947912750  0.4484011866220  0.3756576223611 1.0
C      1  0.2348969401977  0.3721456101474  0.4329650573011 1.0
C      1  0.5985313539438  0.4096981555181  0.2387526477974 1.0
C      1  0.8606936802410  0.4833036398951  0.4990338009632 1.0
C      1  0.2806756928477  0.5614955592322  0.7230359166693 1.0
C      1  0.5199266122132  0.4557172760082  0.2117198041404 1.0
C      1  0.3408721829059  0.3307360681358  0.6616921869722 1.0
C      1  0.3116617651098  0.6583374767558  0.3184541474149 1.0
C      1  0.6120187924052  0.2579010265157  0.5287607910780 1.0
C      1  0.5628388297529  0.2096318040825  0.3836025035115 1.0
C      1  0.2256258416482  0.6820347352815  0.4605931484043 1.0
C      1  0.5211502324720  0.4000291931125  0.5896549303797 1.0
C      1  0.7521371076879  0.2861325679326  0.5840289321797 1.0
C      1  0.4487659790409  0.2259291122556  0.6036561354693 1.0
C      1  0.5797620475741  0.8464594311570  0.3197458175217 1.0
C      1  0.2027909513007  0.5900936332300  0.4814721696137 1.0
C      1  0.4046465071856  0.5195448400478  0.8070825906449 1.0
C      1  0.3747032636462  0.6208130911265  0.5379508219405 1.0
C      1  0.2814459583684  0.2877316256238  0.4299606300931 1.0
C      1  0.5015750006382  0.8611957311010  0.3689137256586 1.0
C      1  0.7069409004046  0.2782103469179  0.4991302246060 1.0
C      1  0.3934966177451  0.1874158616097  0.4646946639248 1.0
C      1  0.4201933109054  0.5718369645427  0.2303800856151 1.0
C      1  0.4589540925660  0.8959818155978  0.4477753314628 1.0
C      1  0.5863226323818  0.6104099216333  0.2307125041112 1.0
C      1  0.5281025797869  0.4926471756296  0.4355983672267 1.0
C      1  0.5577812148070  0.6220493831710  0.6727809590978 1.0
C      1  0.7918950564382  0.4412424125509  0.6656451371561 1.0
C      1  0.8167237707667  0.5082436721187  0.5953756373453 1.0
C      1  0.4328249646016  0.4181306566594  0.2181114279067 1.0
C      1  0.3260536937036  0.2446877999851  0.5044730888024 1.0
C      1  0.5606041600729  0.7027446842379  0.2496432928966 1.0
C      1  0.3898119286323  0.6816380842150  0.7628039481707 1.0
C      1  0.4976041572351  0.2798404081128  0.2644703052365 1.0
C      1  0.3648342126042  0.4385629021475  0.7747963978662 1.0
C      1  0.4840144946041  0.2112811230009  0.3296821686942 1.0
C      1  0.6699302061512  0.4939450163869  0.4952008219904 1.0
C      1  0.5647068068958  0.5758547265580  0.4101175825513 1.0
C      1  0.7672911790221  0.4826587163465  0.5079212821835 1.0
C      1  0.3546083483312  0.5958567655107  0.7768866508629 1.0
C      1  0.6070115663871  0.7839899283984  0.2685695852784 1.0
C      1  0.4188489151406  0.3273968717622  0.2365827801689 1.0
C      1  0.7178958935862  0.4403521729421  0.7244557941413 1.0
C      1  0.5337204760079  0.6596780419358  0.4525441608771 1.0
C      1  0.5317940470438  0.5378848605746  0.7033861212945 1.0
C      1  0.6058852452772  0.2412081982767  0.6267881256809 1.0
C      1  0.2889955456384  0.4677031815347  0.7250001798480 1.0
C      1  0.3710255377360  0.4879966952158  0.2405619058627 1.0
C      1  0.3606321389711  0.2656783850620  0.5963364729685 1.0
C      1  0.4602486785014  0.7237166640299  0.4254080602908 1.0
C      1  0.5633279331861  0.4709640519703  0.6375828021258 1.0
C      1  0.2183269646432  0.5400739727042  0.4024998774264 1.0
C      1  0.6235094398019  0.6588251887405  0.5067628744554 1.0
C      1  0.2759462728904  0.7142880747286  0.3881663908616 1.0
C      1  0.7940587865876  0.3458096785060  0.6542252875433 1.0
C      1  0.7671611412330  0.6906769037788  0.5892514007778 1.0
C      1  0.4547478602663  0.7796776370280  0.3479693039377 1.0
C      1  0.5167055879315  0.2549950506941  0.6639319049389 1.0
C      1  0.3155635378180  0.6629588182764  0.5994328129215 1.0
C      1  0.3356133376398  0.7576011973198  0.6166349942063 1.0
C      1  0.6761886044019  0.3661881188393  0.7683154329311 1.0
C      1  0.3316958780670  0.3053282976674  0.2681473319776 1.0
C      1  0.3821614941955  0.7533500636611  0.6989911447704 1.0
C      1  0.7575703005739  0.3604379138061  0.3538279396090 1.0
C      1  0.6281730737785  0.2737456694812  0.3506565135172 1.0
C      1  0.5760067008655  0.3640391857601  0.7860514077717 1.0
C      1  0.6245121868735  0.5185948263748  0.5809238223824 1.0
C      1  0.6981553405420  0.7399048594546  0.6394590847425 1.0
C      1  0.5460529353005  0.4408887442257  0.8208671415725 1.0
C      1  0.4676848622441  0.7176804590244  0.2756974381051 1.0
C      1  0.7430647830547  0.4195849608679  0.2979172184977 1.0
C      1  0.4999605955367  0.5111632678029  0.7932680926403 1.0
C      1  0.4700803846217  0.1843775689160  0.5185714847575 1.0
C      1  0.4643264119953  0.7343463823931  0.7425816942790 1.0
C      1  0.1865900896762  0.3984216286818  0.5095576036275 1.0
C      1  0.4975268730600  0.3191018742666  0.7347599292970 1.0
C      1  0.2875938657472  0.4178673984354  0.6394179927558 1.0
C      1  0.5761078329535  0.3563583870544  0.5206233031392 1.0
C      1  0.6749542694883  0.4667052981555  0.2539228404130 1.0
C      1  0.2514968619974  0.5987535638234  0.6393868840910 1.0
C      1  0.3995889257277  0.8693150145075  0.4999607421928 1.0
C      1  0.2035145147275  0.4516914108884  0.5782311045358 1.0
C      1  0.6924623507601  0.2527200545300  0.6537054768534 1.0
C      1  0.5528291842545  0.2011065622419  0.4756640947446 1.0
C      1  0.8033684492128  0.6032882502338  0.5664848114201 1.0
C      1  0.5856904069744  0.3196037330832  0.2744121680159 1.0
C      1  0.3759429258913  0.5290059413836  0.5195179572814 1.0
C      1  0.6044299015468  0.6069807883324  0.5901182005765 1.0
C      1  0.2024736234969  0.5507541264905  0.5738432376905 1.0
C      1  0.4358163385472  0.4176454762300  0.5491552203784 1.0
C      1  0.3545331482487  0.4542014652926  0.5772671411685 1.0
C      1  0.2676311910502  0.5760003642493  0.3275768570657 1.0
C      1  0.8130377017599  0.5751757626211  0.4728384396702 1.0
C      1  0.4415236724130  0.6695685893362  0.4906184840421 1.0
C      1  0.7400507065186  0.5975750770314  0.3086614833077 1.0
C      1  0.6574936779202  0.5813813151906  0.4426098293422 1.0
C      1  0.3962094189353  0.6544577794787  0.2683685103283 1.0
C      1  0.4452559343037  0.4783733592948  0.4728672650212 1.0
C      1  0.7063617478989  0.2994808228114  0.4045573818311 1.0
C      1  0.4004158548025  0.2016581295627  0.3715359986720 1.0
C      1  0.5990345657905  0.4282958940220  0.4632230792288 1.0
C      1  0.2968095422083  0.4891338552092  0.2983828749705 1.0
C      1  0.6336453338693  0.7563282964922  0.6986502662680 1.0
C      1  0.6714019887336  0.5651457258276  0.2538763327224 1.0
C      1  0.4044116566804  0.3555914187307  0.7332993669678 1.0
END
