TITL C-72996-5122-1 -4.7 3375.00 -807.04113340 0 0 100 (C1) n - 1
REM
REM Run started: at 2021.01.15 07:53:57 in /rds/project/t2_vol4/rds-t2-cs072/BORA/CARBON/AIRSS/Generating-Clusters/Str-Search/Only-C1/C100-200
REM VASP from code version vasp.5.4.4.18Apr17-6-g9f103f2a35 (build Oct 11 2019 16:45:47) gamma-only
REM
REM
REM
REM
REM ./C.cell (efaf0b2bf1589a83377268d7ebe2c73f)
REM AIRSS Version 0.9.1 bugfix July 2018 build 013d7b7c2542+ Fri, 06 Jul 2018 19:26:36 +0100
REM compiler GCC version 4.8.5 20150623 (Red Hat 4.8.5-39)
REM options -cpp -mtune=generic -march=x86-64 -g -O0
REM seed -610802854 -297787281 2100397548 -489702155 1042203989 1184849131 1810249264 2038262900 2104765049 1937549152 1454777521 1143165082
REM
REM C.POTCAR (d86ddea03c3ceb6dc662c8ad6801f873)
REM 
CELL 1.54180   15.00000   15.00000   15.00000   90.00000   90.00000   90.00000
LATT -1
SFAC C  
C      1  0.3348897581692  0.7969217504429  0.4937303414292 1.0
C      1  0.6967303217313  0.3482997982759  0.5987271309349 1.0
C      1  0.4819081850105  0.7721821389394  0.4530241524198 1.0
C      1  0.3256818340781  0.7096069571400  0.4414345188252 1.0
C      1  0.4253713820766  0.6306140024797  0.7480650062318 1.0
C      1  0.3630931898322  0.5453444918475  0.1650052424627 1.0
C      1  0.7345968320496  0.6214917315795  0.5218631365773 1.0
C      1  0.3164138809442  0.4417836045789  0.3746433531754 1.0
C      1  0.3532380471120  0.7995723622237  0.4005265556756 1.0
C      1  0.5863510585571  0.4297048073383  0.4265729530022 1.0
C      1  0.7399790340457  0.5425553734449  0.7306362210283 1.0
C      1  0.7341328391025  0.2910038802213  0.4548926775088 1.0
C      1  0.5407239966210  0.4925812121107  0.7716482215067 1.0
C      1  0.5702461714825  0.2398521016805  0.6404387222899 1.0
C      1  0.3790701735550  0.5561622823798  0.5901180307842 1.0
C      1  0.2503114613364  0.6414173325607  0.4448306694210 1.0
C      1  0.6231879497956  0.6316418401224  0.2852011620551 1.0
C      1  0.7357788730497  0.5120365960228  0.4058598101804 1.0
C      1  0.3894844312871  0.4425733052253  0.4556629071157 1.0
C      1  0.6452829843886  0.7478158184328  0.4165063374816 1.0
C      1  0.5323902947940  0.3717059761732  0.4843900301898 1.0
C      1  0.5351954984597  0.6130049663754  0.5412192871449 1.0
C      1  0.3128837739739  0.5433440197297  0.2318194158153 1.0
C      1  0.4459915600272  0.5233308948614  0.4448109309270 1.0
C      1  0.5622856404205  0.6079360607025  0.4243877160893 1.0
C      1  0.2272067011080  0.5468855252793  0.4528968632486 1.0
C      1  0.3256847522101  0.2765370043607  0.3963269750452 1.0
C      1  0.5709738618835  0.7000412328230  0.5655697106313 1.0
C      1  0.4497068540446  0.5268565782568  0.7513941932935 1.0
C      1  0.4694034705119  0.6445959977710  0.3740443180933 1.0
C      1  0.5557014581886  0.6893381173983  0.2641791362948 1.0
C      1  0.3243083025215  0.3491593734105  0.3322154346260 1.0
C      1  0.4678448704510  0.7040409323718  0.6994879147200 1.0
C      1  0.7206854724612  0.6051689319825  0.4309056805611 1.0
C      1  0.2124490438217  0.6154116415494  0.6126952774784 1.0
C      1  0.7506370536962  0.5057428870324  0.6421279332491 1.0
C      1  0.2792624275131  0.4030597099619  0.5814126412303 1.0
C      1  0.4575353364928  0.2668029552743  0.3055635588013 1.0
C      1  0.4516386478095  0.1870885575163  0.4617658622075 1.0
C      1  0.4698561903312  0.3790109276631  0.3250988498592 1.0
C      1  0.3973497552904  0.3396632119606  0.2744807948219 1.0
C      1  0.5451761147371  0.5133875227715  0.4289079168574 1.0
C      1  0.6805429658312  0.6931696228613  0.5712339157521 1.0
C      1  0.6551298369347  0.6886723499465  0.6713276985284 1.0
C      1  0.3403535449470  0.2662491686066  0.5629663790405 1.0
C      1  0.6333089561012  0.2955231836963  0.3394979748817 1.0
C      1  0.4210768755819  0.2133207344477  0.5516402814212 1.0
C      1  0.2408824780271  0.3785102406375  0.4976358652500 1.0
C      1  0.2372156010061  0.4558193378176  0.4347551236882 1.0
C      1  0.2997039339501  0.5332188010812  0.7377505584630 1.0
C      1  0.4870200029581  0.7226027003031  0.3122258998768 1.0
C      1  0.4562832115782  0.5208608640719  0.6486335681153 1.0
C      1  0.6729795974142  0.2415046319110  0.4088039677934 1.0
C      1  0.5544781071827  0.2909439713517  0.2876512371888 1.0
C      1  0.4214189327016  0.6790731913234  0.4571320264556 1.0
C      1  0.5249428164014  0.4019874056468  0.5715156344131 1.0
C      1  0.4950550430759  0.2177621724134  0.6127418794626 1.0
C      1  0.6892021444147  0.4810804232215  0.3282803468490 1.0
C      1  0.4585839794029  0.3781479827831  0.4260324149420 1.0
C      1  0.4362975027461  0.6003068762507  0.5171222709770 1.0
C      1  0.6372053474068  0.5345296804104  0.2671191667604 1.0
C      1  0.7610570908110  0.4631321449058  0.4865986050279 1.0
C      1  0.2093405006196  0.6100835033572  0.5230903575890 1.0
C      1  0.7413894356397  0.3631801605477  0.5087946915298 1.0
C      1  0.6376238848774  0.3538045801907  0.7476397845299 1.0
C      1  0.2872829242076  0.2935642736907  0.4817852970536 1.0
C      1  0.4079286972951  0.7604077322808  0.6479233784140 1.0
C      1  0.4409506739272  0.4256258814497  0.6178333819773 1.0
C      1  0.6425989916684  0.2978477602502  0.6605036758945 1.0
C      1  0.7083864631367  0.3995424950759  0.7853436969903 1.0
C      1  0.3197519411747  0.3320969512493  0.6317594885800 1.0
C      1  0.5568015325336  0.3954796777114  0.2759622117055 1.0
C      1  0.7656248700641  0.5339461948704  0.5548170900198 1.0
C      1  0.5942328078327  0.4613193298823  0.6050350043788 1.0
C      1  0.3817525162266  0.3872839957127  0.6894960901127 1.0
C      1  0.6804806192003  0.4384735005913  0.6271086312584 1.0
C      1  0.5912472498394  0.5626238039488  0.7199309901842 1.0
C      1  0.7486987584435  0.4741366013729  0.7946098238506 1.0
C      1  0.6717505419887  0.6121338858344  0.7270728068584 1.0
C      1  0.3721040554190  0.7954503613584  0.5809684606642 1.0
C      1  0.3655703604994  0.4642499697163  0.7458019848908 1.0
C      1  0.6216700438804  0.1636263168188  0.4317156885387 1.0
C      1  0.5731558682862  0.4783362762110  0.2193182740552 1.0
C      1  0.5124180223561  0.5089239942434  0.1584171941917 1.0
C      1  0.5632253006571  0.4054864596718  0.7759036758768 1.0
C      1  0.6342187272888  0.3969730029492  0.3432681893055 1.0
C      1  0.2970941711658  0.5895335658266  0.6480410952507 1.0
C      1  0.3304229212729  0.6189454972105  0.7396418917291 1.0
C      1  0.3469883069175  0.5214133809535  0.3179828385059 1.0
C      1  0.6650052394967  0.7745331155998  0.5004417132220 1.0
C      1  0.5511720834122  0.5480619785042  0.6244327586307 1.0
C      1  0.6455501810471  0.6525986140729  0.3850695675420 1.0
C      1  0.4099790214156  0.2279655945234  0.3859389061775 1.0
C      1  0.4454597297484  0.8011562942107  0.3660489749226 1.0
C      1  0.5641843296584  0.7703475229501  0.4959601750699 1.0
C      1  0.5406306300384  0.1588082574397  0.4486861805087 1.0
C      1  0.4194671692952  0.5612492263581  0.3576793708231 1.0
C      1  0.3609766693496  0.4577074026893  0.5553539147451 1.0
C      1  0.4400429274392  0.5303106367652  0.1209848662213 1.0
C      1  0.5614441792356  0.7110824079501  0.6638856720239 1.0
END
