TITL C-74556-631-8 -5.203 3375.00 -892.65330670 0 0 109 (C1) n - 1
REM
REM Run started: at 2020.12.22 19:29:37 in /rds/project/t2_vol4/rds-t2-cs072/BORA/CARBON/AIRSS/Generating-Clusters/Str-Search/Only-C1/C100-200
REM VASP from code version vasp.5.4.4.18Apr17-6-g9f103f2a35 (build Oct 11 2019 16:45:47) gamma-only
REM
REM
REM
REM
REM ./C.cell (efaf0b2bf1589a83377268d7ebe2c73f)
REM AIRSS Version 0.9.1 bugfix July 2018 build 013d7b7c2542+ Fri, 06 Jul 2018 19:26:36 +0100
REM compiler GCC version 4.8.5 20150623 (Red Hat 4.8.5-39)
REM options -cpp -mtune=generic -march=x86-64 -g -O0
REM seed -48132178 -959532685 182939087 192423897 -820539080 -1637809953 940267933 -1933377482 -328226888 184228187 -2001433722 84106347
REM
REM C.POTCAR (d86ddea03c3ceb6dc662c8ad6801f873)
REM 
CELL 1.54180   15.00000   15.00000   15.00000   90.00000   90.00000   90.00000
LATT -1
SFAC C  
C      1  0.2729646176525  0.7703202167713  0.5612119625594 1.0
C      1  0.2411453324260  0.5072787367109  0.4982024289990 1.0
C      1  0.2386905759707  0.4241093309693  0.4418456294224 1.0
C      1  0.5262273051989  0.5310454566805  0.3233018476322 1.0
C      1  0.4162813175881  0.3294099745480  0.5223828394855 1.0
C      1  0.7979412892993  0.4637832730112  0.4610206612356 1.0
C      1  0.4639728483529  0.7381429208669  0.3946747342446 1.0
C      1  0.4264075776590  0.1621727341083  0.4628910433576 1.0
C      1  0.2995596285194  0.2774523818343  0.4036213714858 1.0
C      1  0.5150753099884  0.6240593391733  0.2923619543834 1.0
C      1  0.2403893447289  0.3295752790053  0.4682758211255 1.0
C      1  0.4529619146244  0.5969517123782  0.6631327294521 1.0
C      1  0.6217633508364  0.7433793954658  0.4669013447173 1.0
C      1  0.7743993653132  0.3882358993639  0.4020153831578 1.0
C      1  0.6612791250950  0.2318939273675  0.5414629631174 1.0
C      1  0.3960987096717  0.3498150455537  0.2689219979927 1.0
C      1  0.7766468112360  0.5509463473569  0.4332475768483 1.0
C      1  0.5938216592924  0.7445851861454  0.5565559557142 1.0
C      1  0.5352215958347  0.2573612821619  0.4180307739326 1.0
C      1  0.5905641933497  0.7714753207879  0.2855149272565 1.0
C      1  0.5381227331002  0.6880277629524  0.7402287056510 1.0
C      1  0.7150436571795  0.2938339252177  0.5995841063915 1.0
C      1  0.7151909725769  0.4011259308563  0.3291341115337 1.0
C      1  0.6355537998345  0.6298528114100  0.1630011363036 1.0
C      1  0.4070492919795  0.4266524634934  0.2174063267203 1.0
C      1  0.5224160531870  0.2334677990009  0.6294856664648 1.0
C      1  0.3623998646528  0.6760688823839  0.2636984028896 1.0
C      1  0.2907244474681  0.3773691243090  0.7377329465156 1.0
C      1  0.7176703780096  0.5393787599162  0.6474309488853 1.0
C      1  0.5158420523988  0.7854575332097  0.5971631862468 1.0
C      1  0.4113762518264  0.7732224710497  0.4648805232436 1.0
C      1  0.4368677429037  0.6762471619276  0.3295131579450 1.0
C      1  0.4871736972748  0.3297048882123  0.4451874360388 1.0
C      1  0.3298075030431  0.5542791421810  0.4916357602750 1.0
C      1  0.5151752120183  0.1805565924301  0.4775350089727 1.0
C      1  0.6008894510726  0.4875089785364  0.2592058554343 1.0
C      1  0.3108389280199  0.4299557390983  0.3802540972631 1.0
C      1  0.5943270418801  0.5457991791028  0.1758736777870 1.0
C      1  0.4878368003453  0.4575455597303  0.5360734940123 1.0
C      1  0.4822417215044  0.3156256615937  0.5952568652465 1.0
C      1  0.5284343002355  0.4202762898306  0.4486133623473 1.0
C      1  0.6148337387846  0.4878785098891  0.7653293195062 1.0
C      1  0.3264204005764  0.7293721215089  0.4924018819921 1.0
C      1  0.2570912592775  0.2961532196704  0.5565218284919 1.0
C      1  0.3469507741857  0.5905337045519  0.2284102770258 1.0
C      1  0.3709632539024  0.5118423420204  0.2151427160661 1.0
C      1  0.1982950042548  0.7195810474384  0.5886261815048 1.0
C      1  0.4842950128607  0.3731823804636  0.2403389162578 1.0
C      1  0.6266341735444  0.4362548760426  0.4921535087406 1.0
C      1  0.5173104532306  0.2579517051658  0.7206527056702 1.0
C      1  0.3830420325470  0.4852759072002  0.4274091579535 1.0
C      1  0.4300197449479  0.2973601391086  0.7517939922797 1.0
C      1  0.1933134814721  0.5466213251801  0.5806387702046 1.0
C      1  0.6246664366391  0.5276805715955  0.5181258289285 1.0
C      1  0.6248908667149  0.2717047806909  0.3815398159140 1.0
C      1  0.6333104782555  0.3925506768064  0.7443477214719 1.0
C      1  0.7524657971968  0.4519346652184  0.6301573344664 1.0
C      1  0.6920393856790  0.4886504644370  0.3033455206349 1.0
C      1  0.4941426007885  0.6029265113001  0.7547563139572 1.0
C      1  0.3526195740131  0.8018544472105  0.6055355099041 1.0
C      1  0.3210044036630  0.4818362613807  0.5653819051057 1.0
C      1  0.6886491399563  0.3771256457563  0.6580621484464 1.0
C      1  0.6388135466572  0.3416572264858  0.3158926893902 1.0
C      1  0.4352260170071  0.8145707831780  0.5468351443774 1.0
C      1  0.5252831519502  0.6044464715419  0.6003189647352 1.0
C      1  0.5281532072559  0.5173588621425  0.7928552826377 1.0
C      1  0.5739551398738  0.3877403935363  0.2614017857255 1.0
C      1  0.3778803905116  0.6492774231015  0.6270058347880 1.0
C      1  0.5962411347996  0.6801117534266  0.3213142065592 1.0
C      1  0.5435776239791  0.7722093089213  0.2036812689695 1.0
C      1  0.3834347270906  0.7522352720476  0.2124859437366 1.0
C      1  0.5299569388747  0.3943764237905  0.6005793441901 1.0
C      1  0.4528848139504  0.7983795907021  0.1987055221406 1.0
C      1  0.6609233556443  0.5595581792264  0.7191537144893 1.0
C      1  0.7974748041266  0.4243323990669  0.5524082468096 1.0
C      1  0.3940665159182  0.4307631676163  0.5220379900170 1.0
C      1  0.3487296447769  0.2067546337777  0.4523252350728 1.0
C      1  0.3476639414030  0.2581837091097  0.5413838952394 1.0
C      1  0.3152768434934  0.5115489806187  0.9069437431751 1.0
C      1  0.3476997854897  0.6408663931062  0.5344876284610 1.0
C      1  0.4612545409913  0.4552411962285  0.8231423821437 1.0
C      1  0.2526765498773  0.4475699529595  0.7151836595049 1.0
C      1  0.4798060869576  0.3643100802023  0.8022464963533 1.0
C      1  0.1786255081835  0.6377470630527  0.5878004387843 1.0
C      1  0.3071409691902  0.2649563639153  0.6301701981362 1.0
C      1  0.6225776620786  0.3967688678993  0.5827606998314 1.0
C      1  0.4885740022866  0.7500276528432  0.6820377238859 1.0
C      1  0.7825755366269  0.3298960344634  0.5429920387725 1.0
C      1  0.3415127446785  0.3013507209347  0.7153866231431 1.0
C      1  0.7270342745262  0.5633291351608  0.3484128393676 1.0
C      1  0.3368568136389  0.3417145196906  0.3440280525454 1.0
C      1  0.6910018843250  0.2521429090252  0.4472094845461 1.0
C      1  0.4811644666810  0.4875665355271  0.3902733917271 1.0
C      1  0.2539275661463  0.4959441339918  0.6361025476993 1.0
C      1  0.6951242023488  0.6855561562151  0.4409351037601 1.0
C      1  0.3819900721245  0.4852567977606  0.8604325246782 1.0
C      1  0.5622414470821  0.7539205366603  0.3853265094004 1.0
C      1  0.3894111005122  0.7369161226285  0.6664272334602 1.0
C      1  0.5650300697109  0.3324806097564  0.7684728373378 1.0
C      1  0.6885007691619  0.5935014939118  0.5678937712152 1.0
C      1  0.5337838122884  0.5448775461934  0.5342885037442 1.0
C      1  0.6191636501609  0.6604389148848  0.6078344509876 1.0
C      1  0.5641534421515  0.6942076488227  0.1440400665151 1.0
C      1  0.5272602617067  0.6168746813989  0.1891547258884 1.0
C      1  0.6803713581335  0.6457692165369  0.3560306020680 1.0
C      1  0.6205749489836  0.6496247996626  0.7060329038687 1.0
C      1  0.7688098980893  0.3072984559594  0.4513622773058 1.0
C      1  0.5764769099395  0.1944105622023  0.5572672143978 1.0
C      1  0.7457858829775  0.6237085007771  0.4917980816071 1.0
END
