TITL C-74569-4705-3 -6.655 3375.00 -1162.51503984 0 0 141 (C1) n - 1
REM
REM Run started: at 2021.01.21 06:19:24 in /rds/project/t2_vol4/rds-t2-cs072/BORA/CARBON/AIRSS/Generating-Clusters/Str-Search/Only-C1/C100-200
REM VASP from code version vasp.5.4.4.18Apr17-6-g9f103f2a35 (build Oct 11 2019 16:45:47) gamma-only
REM
REM
REM
REM
REM ./C.cell (efaf0b2bf1589a83377268d7ebe2c73f)
REM AIRSS Version 0.9.1 bugfix July 2018 build 013d7b7c2542+ Fri, 06 Jul 2018 19:26:36 +0100
REM compiler GCC version 4.8.5 20150623 (Red Hat 4.8.5-39)
REM options -cpp -mtune=generic -march=x86-64 -g -O0
REM seed 1548671010 1780045751 -1220231911 779689048 1030536783 -1466095150 1220913642 -657788520 -969138664 -473272361 476665514 -1302710498
REM
REM C.POTCAR (d86ddea03c3ceb6dc662c8ad6801f873)
REM 
CELL 1.54180   15.00000   15.00000   15.00000   90.00000   90.00000   90.00000
LATT -1
SFAC C  
C      1  0.5020508191324  0.7331981133739  0.3241516680644 1.0
C      1  0.6108950840361  0.8207582439062  0.4205472626174 1.0
C      1  0.2497118369260  0.5691358811845  0.7080746411358 1.0
C      1  0.6242169910894  0.6338165499016  0.2679619141656 1.0
C      1  0.2681449080578  0.3002992361845  0.4685044546288 1.0
C      1  0.5143797734567  0.6355266665603  0.2915005597019 1.0
C      1  0.7166437547268  0.6546919157989  0.6778827615773 1.0
C      1  0.3090103104956  0.2682771687952  0.3850394961299 1.0
C      1  0.3135823914110  0.4090589943564  0.5969209617283 1.0
C      1  0.6002688063056  0.4439968674158  0.3344806246823 1.0
C      1  0.5252826703708  0.5510497038329  0.8433070295977 1.0
C      1  0.4420811343018  0.2386699437668  0.6595096331743 1.0
C      1  0.8172670944851  0.4847543716913  0.3354595795301 1.0
C      1  0.8836599697091  0.5778357317404  0.5124303937072 1.0
C      1  0.3185408083555  0.5387209562752  0.7582113877476 1.0
C      1  0.2172365279838  0.3853126877575  0.4438384770912 1.0
C      1  0.4460231814443  0.4121357966867  0.4395040421898 1.0
C      1  0.7642772017579  0.3354485452124  0.3544479231365 1.0
C      1  0.3578559361181  0.5570234070845  0.4898034568924 1.0
C      1  0.6712799239710  0.5815964298907  0.5101200001974 1.0
C      1  0.8040651017616  0.7092676344550  0.5387075465450 1.0
C      1  0.1700083237883  0.6205177204161  0.5568998810811 1.0
C      1  0.4116284147072  0.5587956896005  0.7219523430130 1.0
C      1  0.8444559648531  0.3013052914888  0.4950973524710 1.0
C      1  0.4257922916032  0.7116650313693  0.6810802617715 1.0
C      1  0.7729468688905  0.3225305253176  0.6402568234167 1.0
C      1  0.5494685154338  0.4596708355804  0.8459913673399 1.0
C      1  0.7810421026048  0.5741932377354  0.3238537605743 1.0
C      1  0.2574233141275  0.4182129769841  0.3546382761826 1.0
C      1  0.7063667880634  0.5480907668423  0.6834516727875 1.0
C      1  0.5410275712865  0.1613614069179  0.6778369650360 1.0
C      1  0.4997929867204  0.2481933777616  0.2163386939699 1.0
C      1  0.3183650741820  0.4682483248893  0.8215840838082 1.0
C      1  0.5031332036740  0.3106895658063  0.7819021067010 1.0
C      1  0.4328591219007  0.3066320726087  0.2015303805202 1.0
C      1  0.2084534048971  0.6286270946893  0.2791318162957 1.0
C      1  0.6889412481201  0.7658289724320  0.4499882497938 1.0
C      1  0.4688289111605  0.1805011828931  0.3601175652663 1.0
C      1  0.2992837337603  0.4990918429382  0.1822351154846 1.0
C      1  0.3008437095207  0.7919145593880  0.2950402522132 1.0
C      1  0.4025548498198  0.3239614448034  0.7778080441498 1.0
C      1  0.6755710954876  0.7952150532326  0.6040121595033 1.0
C      1  0.6749138221121  0.4698027163792  0.2846838562521 1.0
C      1  0.3505731087829  0.5338731893300  0.2594733464626 1.0
C      1  0.5904008833342  0.8380901135914  0.5773958725989 1.0
C      1  0.5710597632440  0.5111289270261  0.3985048171050 1.0
C      1  0.7343717716866  0.2468927747466  0.5923819577362 1.0
C      1  0.5648506860356  0.5153304066238  0.9209429251348 1.0
C      1  0.4938533965822  0.1985658769159  0.5858744777084 1.0
C      1  0.2648853081501  0.7013840707700  0.3276220614981 1.0
C      1  0.5671458487755  0.2642321218769  0.5548285926759 1.0
C      1  0.2527868374456  0.5628759590828  0.2249083935965 1.0
C      1  0.2039469754041  0.6887354581136  0.4088403801967 1.0
C      1  0.6183899978478  0.5063061787209  0.4869795507653 1.0
C      1  0.5069691682190  0.6006559712954  0.6052410656443 1.0
C      1  0.5689744494387  0.7511900162338  0.7088502914797 1.0
C      1  0.4683521781659  0.3668789713213  0.3612874111498 1.0
C      1  0.4819213069519  0.6079868170752  0.7824309473252 1.0
C      1  0.8480811535870  0.3488830610994  0.5796276998889 1.0
C      1  0.7982091194234  0.6524700036153  0.6180270693522 1.0
C      1  0.6519405090611  0.7165938923645  0.3061639872105 1.0
C      1  0.7074380728639  0.2203493082027  0.4544787521187 1.0
C      1  0.8824254348128  0.4345469649547  0.5756078682136 1.0
C      1  0.7360360024908  0.3913123876674  0.6991164280272 1.0
C      1  0.7551198957961  0.4195732607156  0.3039759182887 1.0
C      1  0.6236029014852  0.4990707167630  0.7010105713055 1.0
C      1  0.4337145162016  0.7850190283915  0.6236757054522 1.0
C      1  0.3634714333239  0.4615515098341  0.4493007676631 1.0
C      1  0.5323061721126  0.5906114438661  0.3799553160083 1.0
C      1  0.8404697081088  0.6518079215079  0.4675481513011 1.0
C      1  0.6913828114250  0.5653687093752  0.2789554675120 1.0
C      1  0.5260915865954  0.8118989301264  0.6409464757112 1.0
C      1  0.3680151516390  0.7846846769159  0.5481966778300 1.0
C      1  0.5713147991898  0.4511463437670  0.5550238173084 1.0
C      1  0.3552076748720  0.6191015710555  0.5624883727545 1.0
C      1  0.7353691902685  0.7733230151743  0.5345874671696 1.0
C      1  0.6526659730941  0.6665557281589  0.4549362293637 1.0
C      1  0.3454617586861  0.7620766480491  0.2169641580319 1.0
C      1  0.7112224233473  0.5941626824683  0.5955676531642 1.0
C      1  0.3049086864446  0.3446511088330  0.3253117161997 1.0
C      1  0.1536786393657  0.6221571524885  0.3585756242709 1.0
C      1  0.5671317565639  0.8630385133622  0.4885737724351 1.0
C      1  0.3128349430881  0.7019198735235  0.5407388644790 1.0
C      1  0.0993651464668  0.5665843986171  0.4128815352717 1.0
C      1  0.5848187491979  0.7779918412743  0.3360397468729 1.0
C      1  0.5645519710334  0.3570688150764  0.3421617113134 1.0
C      1  0.5176085054739  0.2410047803527  0.7196460266927 1.0
C      1  0.6592386409210  0.7368059585438  0.6814473229640 1.0
C      1  0.4988490135483  0.6935553511284  0.7442040083249 1.0
C      1  0.7853602783171  0.2326028976402  0.5067022280688 1.0
C      1  0.2514783621599  0.2541790469275  0.5579168296743 1.0
C      1  0.2244200243528  0.4632314717629  0.6146790834554 1.0
C      1  0.2883956651114  0.1656791043719  0.5621726788589 1.0
C      1  0.7960264374649  0.6488152819667  0.3807570740948 1.0
C      1  0.6564966627624  0.2298645871064  0.5422611485886 1.0
C      1  0.2231527665747  0.6837233541466  0.5009048598467 1.0
C      1  0.1607552850482  0.3916712926434  0.5943348998502 1.0
C      1  0.7185054092623  0.7078009204509  0.3771419466916 1.0
C      1  0.4110802080412  0.4340920482259  0.6062638777386 1.0
C      1  0.4194706637502  0.7411090797374  0.3635742598978 1.0
C      1  0.3557010354065  0.1220337939401  0.5427127505746 1.0
C      1  0.4529638262517  0.4809036939782  0.6708959430488 1.0
C      1  0.5226983585216  0.6441493553600  0.5315350202538 1.0
C      1  0.6066100289902  0.2748996737944  0.3294842797992 1.0
C      1  0.8657710912463  0.4433602145065  0.4095413224971 1.0
C      1  0.5536516752525  0.3536310692908  0.5561042168377 1.0
C      1  0.4134316552579  0.6223862949741  0.6424357803167 1.0
C      1  0.4774532947543  0.4078744894192  0.5330121671416 1.0
C      1  0.8384376047388  0.3510436379978  0.4136870575777 1.0
C      1  0.5649927652270  0.3817068728452  0.7910704927771 1.0
C      1  0.6419469125454  0.4115276595032  0.7337170580102 1.0
C      1  0.8927635906752  0.4841388378040  0.4902328756437 1.0
C      1  0.3664545592826  0.2803107935401  0.6985578622677 1.0
C      1  0.4469850932547  0.1377597830501  0.5210624370861 1.0
C      1  0.3580605088735  0.3951302083106  0.8161594386174 1.0
C      1  0.3401468872691  0.5858691895068  0.4042627695977 1.0
C      1  0.3277043209302  0.4214474357164  0.1385537056405 1.0
C      1  0.3592190060275  0.8162388087384  0.3785438192893 1.0
C      1  0.4764830068259  0.1357205161632  0.4368045070302 1.0
C      1  0.5444806981397  0.5099022357441  0.6401807202278 1.0
C      1  0.0957610916856  0.4912076839075  0.4733238871762 1.0
C      1  0.3611602268475  0.6608865643687  0.3484913186181 1.0
C      1  0.8647205974413  0.5826904572596  0.6065482849636 1.0
C      1  0.1400651306804  0.4151431915589  0.4999215258705 1.0
C      1  0.5358071216347  0.2124873189823  0.2918589065395 1.0
C      1  0.6962346493329  0.2674051056680  0.3708424867217 1.0
C      1  0.3234556006118  0.5007379271634  0.3557261073041 1.0
C      1  0.5547630576822  0.6544865028973  0.4505497101574 1.0
C      1  0.3923939303899  0.2405083680193  0.3529966945184 1.0
C      1  0.3029746910458  0.3964125731758  0.4961738832215 1.0
C      1  0.4009463935431  0.3262108188538  0.2971980831975 1.0
C      1  0.7783879145409  0.4773246385578  0.6923345319737 1.0
C      1  0.8559513895713  0.4963508574821  0.6431224976841 1.0
C      1  0.1041938095775  0.5791681211832  0.5063548695743 1.0
C      1  0.3795440944145  0.6893893343167  0.1903190215816 1.0
C      1  0.3820944271032  0.3583719743286  0.1405025864940 1.0
C      1  0.1960615012512  0.3087738509266  0.6196658671598 1.0
C      1  0.2123791548107  0.5613044600445  0.6268387794824 1.0
C      1  0.3605303767874  0.8278818125564  0.4668757374323 1.0
C      1  0.4073267248850  0.6199252342886  0.2584788385335 1.0
C      1  0.2929606706855  0.3158924693564  0.6394810553461 1.0
END
