TITL C-74569-4705-7 -6.755 3375.00 -1163.93639771 0 0 143 (C1) n - 1
REM
REM Run started: at 2021.01.21 09:02:04 in /rds/project/t2_vol4/rds-t2-cs072/BORA/CARBON/AIRSS/Generating-Clusters/Str-Search/Only-C1/C100-200
REM VASP from code version vasp.5.4.4.18Apr17-6-g9f103f2a35 (build Oct 11 2019 16:45:47) gamma-only
REM
REM
REM
REM
REM ./C.cell (efaf0b2bf1589a83377268d7ebe2c73f)
REM AIRSS Version 0.9.1 bugfix July 2018 build 013d7b7c2542+ Fri, 06 Jul 2018 19:26:36 +0100
REM compiler GCC version 4.8.5 20150623 (Red Hat 4.8.5-39)
REM options -cpp -mtune=generic -march=x86-64 -g -O0
REM seed 355833944 176935623 -2058864789 1509801708 95894998 668924937 1827104364 281231381 -121077339 396637061 20249049 -675334503
REM
REM C.POTCAR (d86ddea03c3ceb6dc662c8ad6801f873)
REM 
CELL 1.54180   15.00000   15.00000   15.00000   90.00000   90.00000   90.00000
LATT -1
SFAC C  
C      1  0.4147334645910  0.1776991594020  0.4359329303053 1.0
C      1  0.4123675945572  0.5907174814433  0.4896995237504 1.0
C      1  0.6138707343938  0.3706386025749  0.8410852586123 1.0
C      1  0.6780742143644  0.5279418474655  0.5014925640099 1.0
C      1  0.1908928242322  0.5960092908578  0.3299369578017 1.0
C      1  0.3447527754508  0.3627069361980  0.5676528323895 1.0
C      1  0.7265216292963  0.4030501761546  0.2738156144252 1.0
C      1  0.8222159415151  0.6394280981245  0.3243813435826 1.0
C      1  0.7881227062387  0.5586201180715  0.3242011403683 1.0
C      1  0.6930227226022  0.3567572027595  0.6956082368200 1.0
C      1  0.6398513481015  0.2358712203946  0.7243752060683 1.0
C      1  0.4010722169813  0.4584792723609  0.7408174463639 1.0
C      1  0.5406489162291  0.5242884410438  0.8601221321971 1.0
C      1  0.4239608571601  0.8192318173664  0.6705021155982 1.0
C      1  0.3685792404781  0.1703033509456  0.6946372482828 1.0
C      1  0.2846954390688  0.2608574812569  0.4243483078569 1.0
C      1  0.6392826521117  0.4130195492311  0.2293999965966 1.0
C      1  0.2860686068015  0.2075552440213  0.6875686747458 1.0
C      1  0.3310549085506  0.5062619544745  0.4008615678945 1.0
C      1  0.2578828557509  0.5039093301009  0.4530551376594 1.0
C      1  0.8758954037988  0.5185676416059  0.6133431394074 1.0
C      1  0.5149241025573  0.4826805608726  0.1606735310327 1.0
C      1  0.3816312448981  0.6896598420708  0.8345473753583 1.0
C      1  0.9304928758560  0.4470474795110  0.5642306526734 1.0
C      1  0.1988152707827  0.6573537783509  0.4049094375493 1.0
C      1  0.4308586348466  0.1696230076233  0.6158731280812 1.0
C      1  0.1836598003465  0.6271563901035  0.4953624605318 1.0
C      1  0.7887300098984  0.7333245393322  0.5498425735332 1.0
C      1  0.8647586429608  0.4402482505082  0.4926923740021 1.0
C      1  0.6029117295661  0.5896291630526  0.5232362967469 1.0
C      1  0.4519601261024  0.5966103754216  0.6307948150378 1.0
C      1  0.6624940507300  0.2590440791090  0.5604567199466 1.0
C      1  0.2803695675938  0.5170991182182  0.2279410658328 1.0
C      1  0.6676810854086  0.4682908275830  0.4081462977815 1.0
C      1  0.4296999420099  0.2670325482703  0.4834915535388 1.0
C      1  0.5503444323850  0.7486436811304  0.2393609343046 1.0
C      1  0.6569446723594  0.3188808206154  0.7763093525044 1.0
C      1  0.7838690464700  0.6975974063847  0.4695097514431 1.0
C      1  0.4872014702226  0.7716869678160  0.7331376258157 1.0
C      1  0.5876535358574  0.8171329232583  0.6349638100769 1.0
C      1  0.3145317866890  0.6879912948290  0.8881653076576 1.0
C      1  0.3088797813346  0.3624342112672  0.6506237441869 1.0
C      1  0.4177213261042  0.4330897290830  0.5569340521385 1.0
C      1  0.6093246715367  0.5934027398236  0.2266207881179 1.0
C      1  0.5020114505490  0.5012359513711  0.3809425561614 1.0
C      1  0.6573393733190  0.4325521534612  0.6434879692076 1.0
C      1  0.6108226950231  0.8547563065048  0.5539953693570 1.0
C      1  0.2634097528796  0.6035991100193  0.2707161250950 1.0
C      1  0.5920528377254  0.8011437310066  0.7331125357685 1.0
C      1  0.8067201383003  0.4749972211500  0.5606218158869 1.0
C      1  0.7038481467522  0.3136090017635  0.4931337132863 1.0
C      1  0.5786575387274  0.6855266984057  0.3833228603936 1.0
C      1  0.5837255827640  0.4405494381177  0.8739858746869 1.0
C      1  0.5552152469874  0.2770892626359  0.2869239866958 1.0
C      1  0.5770340951349  0.1979237479889  0.4324526689985 1.0
C      1  0.1656605418272  0.4686286983070  0.4238998579395 1.0
C      1  0.3881274518382  0.1910211184524  0.5319970958326 1.0
C      1  0.5913391205912  0.8565879310751  0.4719740968045 1.0
C      1  0.7902631495867  0.3134286486054  0.4696508723376 1.0
C      1  0.7215577745515  0.6243041403070  0.3580998708513 1.0
C      1  0.3873048613946  0.2344521448467  0.2925989690858 1.0
C      1  0.4548964986189  0.6318080617428  0.1871608875712 1.0
C      1  0.4110765874398  0.6483381840159  0.3472638322697 1.0
C      1  0.1640355831571  0.5014072807725  0.3314353200166 1.0
C      1  0.4835429741337  0.6053781730453  0.7291672615267 1.0
C      1  0.5804562478079  0.6050571237053  0.8740944796634 1.0
C      1  0.5919141106802  0.7722112763149  0.3297214528706 1.0
C      1  0.4736788535618  0.5197113396238  0.7796884808642 1.0
C      1  0.6567670531398  0.7497966950487  0.7813862018037 1.0
C      1  0.8368842053637  0.3720622609564  0.4213420835526 1.0
C      1  0.5922462734571  0.5216893577445  0.3674564449270 1.0
C      1  0.3587793648116  0.3285990159480  0.2677293954699 1.0
C      1  0.6002364278555  0.5016333682258  0.1979147412988 1.0
C      1  0.4492762006519  0.6892955906771  0.7747061264797 1.0
C      1  0.5512344970516  0.6084740769907  0.5991826969297 1.0
C      1  0.2709385710958  0.7212364721047  0.3830742357136 1.0
C      1  0.1880103821116  0.4670944805365  0.5841399212136 1.0
C      1  0.8608794721563  0.5809804995586  0.6748532124249 1.0
C      1  0.4190520059310  0.1475953129416  0.7719876401379 1.0
C      1  0.1706164318618  0.3742519000032  0.5521504276883 1.0
C      1  0.2166451480097  0.4536452688229  0.2696396316881 1.0
C      1  0.8201274069110  0.6560125416642  0.6985768360266 1.0
C      1  0.4894144784949  0.3924158443351  0.1802809459003 1.0
C      1  0.5071108724675  0.7624333063505  0.6345867558646 1.0
C      1  0.6525965985687  0.6335055290599  0.7356960065672 1.0
C      1  0.5239723784328  0.1781413305109  0.6195967272748 1.0
C      1  0.1678038579617  0.2986348373570  0.6076683675177 1.0
C      1  0.5476934454300  0.6609081405720  0.1983707895410 1.0
C      1  0.3134780071158  0.4469244813877  0.7001962366867 1.0
C      1  0.7492691575396  0.4733749797338  0.3407529965698 1.0
C      1  0.3600441583630  0.7665690896468  0.5174483965007 1.0
C      1  0.3948639729723  0.3909905886169  0.1968352200839 1.0
C      1  0.5514440171714  0.3496520552657  0.4318750944485 1.0
C      1  0.4114128637091  0.5356869957571  0.5639498840690 1.0
C      1  0.3616586974284  0.4842221705816  0.1897181606466 1.0
C      1  0.4159837396328  0.5585119507170  0.3947338686409 1.0
C      1  0.5006901467084  0.1701453613237  0.3883193426343 1.0
C      1  0.2132050807571  0.6485489283946  0.5829333458753 1.0
C      1  0.3318537275605  0.4244935045359  0.3592085332707 1.0
C      1  0.6469534712372  0.3664435561907  0.4285352639115 1.0
C      1  0.2636411124731  0.3721348356860  0.3094391396944 1.0
C      1  0.5729422167319  0.2224538312434  0.5362901504324 1.0
C      1  0.2395289373111  0.5979528182214  0.6446518375256 1.0
C      1  0.1752456040387  0.5277691429307  0.5036633004664 1.0
C      1  0.3036475786136  0.7748752298116  0.4483486207911 1.0
C      1  0.3364488678486  0.2790124571986  0.5104280256066 1.0
C      1  0.5128017688969  0.3090022633404  0.5150405797437 1.0
C      1  0.4061079097782  0.6934814338599  0.2513235230133 1.0
C      1  0.6255578906901  0.6584228010431  0.4664581778438 1.0
C      1  0.6261939959447  0.6085639286206  0.3255383376806 1.0
C      1  0.4995949132017  0.3900222537974  0.5745627414918 1.0
C      1  0.4854348354206  0.6820587538494  0.5849865600514 1.0
C      1  0.7165043162145  0.6222354555529  0.4558687665984 1.0
C      1  0.2227658079085  0.3231500397239  0.3925150201598 1.0
C      1  0.7104116611841  0.4702742496173  0.5771805910192 1.0
C      1  0.5536957144102  0.4265614838636  0.6453683830886 1.0
C      1  0.3434816318288  0.2055906090139  0.3720038015579 1.0
C      1  0.2443089739327  0.2832284886458  0.6612014174298 1.0
C      1  0.2438160046566  0.5031610458411  0.6582885953980 1.0
C      1  0.4727244110758  0.7057046517386  0.4047891364753 1.0
C      1  0.5651106652528  0.1830432326177  0.7112627373591 1.0
C      1  0.6864684323148  0.2707743826798  0.6473694886373 1.0
C      1  0.7784351818350  0.7168802560650  0.6353246598187 1.0
C      1  0.6020149945777  0.2808189415838  0.3754860363374 1.0
C      1  0.4800901618528  0.8002845789447  0.3618920519286 1.0
C      1  0.7978476985047  0.3887083903221  0.3305203814401 1.0
C      1  0.4912637412322  0.4454828248699  0.7157001539621 1.0
C      1  0.5781682862526  0.6105513922771  0.6914415296044 1.0
C      1  0.7278139372872  0.6961958605205  0.7184332142418 1.0
C      1  0.6286684861837  0.6635476299469  0.8271270947483 1.0
C      1  0.4831955294182  0.2153266351262  0.3017046418363 1.0
C      1  0.7865291699363  0.7153069903326  0.3686734490471 1.0
C      1  0.3210940765019  0.6788004222740  0.3024745628537 1.0
C      1  0.4876265648111  0.4083471045865  0.3869304204164 1.0
C      1  0.4071031256320  0.3779048681646  0.3488274547915 1.0
C      1  0.5641681331833  0.8478825323108  0.3849030302529 1.0
C      1  0.3764775371794  0.8122115101220  0.5991818785299 1.0
C      1  0.4651337425297  0.7709501613433  0.2673319457415 1.0
C      1  0.1724334568251  0.3755630187625  0.4538202081176 1.0
C      1  0.5652132803569  0.3494372612752  0.2248065203541 1.0
C      1  0.4386773207905  0.5412489853497  0.1685130602375 1.0
C      1  0.4362176870107  0.6869709637095  0.4992224973113 1.0
C      1  0.5005372542702  0.1612458983292  0.7761522692070 1.0
END
