TITL C-75206-6989-24 -1.403 3375.00 0 0 0 28 (C1) n - 1
REM
REM Run started: at 2020.03.16 11:53:58 in /rds/user/bk393/hpc-work/AIRSS.pl-DENE/CARBON/New-Try
REM VASP from code version vasp.5.4.4.18Apr17-6-g9f103f2a35 (build Oct 11 2019 16:45:47) gamma-only
REM
REM
REM
REM
REM ./C.cell (9f5935e56d41cf50cb14479ce98dda23)
REM AIRSS Version 0.9.1 bugfix July 2018 build 013d7b7c2542+ Fri, 06 Jul 2018 19:26:36 +0100
REM compiler GCC version 4.8.5 20150623 (Red Hat 4.8.5-39)
REM options -cpp -mtune=generic -march=x86-64 -g -O0
REM seed -228398986 2081608731 -632652733 -984878448 -1873217657 1467349848 1672909813 1979094616 2120309007 -1898327521 1224181811 611424508
REM
REM C.POTCAR (d86ddea03c3ceb6dc662c8ad6801f873)
REM 
CELL 1.54180   15.00000   15.00000   15.00000   90.00000   90.00000   90.00000
LATT -1
SFAC C  
C      1  0.5789278707899  0.6260336012719  0.5104205165695 1.0
C      1  0.3480391982902  0.4561854647566  0.2820173759457 1.0
C      1  0.6353821240526  0.6210157978461  0.6576985997471 1.0
C      1  0.4927944250321  0.6165746596049  0.6587211271607 1.0
C      1  0.6714411104175  0.5462927737817  0.6089054115538 1.0
C      1  0.5663055633854  0.5651288767859  0.6963543156371 1.0
C      1  0.5581445834317  0.4216081939326  0.5994779668499 1.0
C      1  0.5058282013368  0.3132513974973  0.5270153483687 1.0
C      1  0.6571295552898  0.5648556933833  0.5159941139139 1.0
C      1  0.5232295211180  0.5990569276822  0.4352818217020 1.0
C      1  0.3241985975170  0.5041725692376  0.3580509810532 1.0
C      1  0.6040690206577  0.4843488697842  0.6520752256781 1.0
C      1  0.5715040182177  0.5274148488109  0.3923334920675 1.0
C      1  0.6511005668157  0.5062783421314  0.4440791929174 1.0
C      1  0.4672966333950  0.3808709140687  0.5854592626461 1.0
C      1  0.6182576220989  0.4152509019405  0.4398984882265 1.0
C      1  0.3748379160624  0.5045525930276  0.6261187999890 1.0
C      1  0.3823222787306  0.4217894407057  0.5816213369926 1.0
C      1  0.5027503637112  0.3898038508768  0.3050654357006 1.0
C      1  0.5815435431177  0.3749847052278  0.5168728355461 1.0
C      1  0.3032311047615  0.4538185579170  0.4348462874681 1.0
C      1  0.3612620558238  0.5908580791725  0.3758459123087 1.0
C      1  0.5619000887742  0.6569305015290  0.6013718457331 1.0
C      1  0.4329910230172  0.6125812302390  0.4124721343679 1.0
C      1  0.5587303667691  0.4335448344185  0.3604131678063 1.0
C      1  0.4255170997881  0.4199337811379  0.2772260627506 1.0
C      1  0.4119160615664  0.5766010189855  0.6406795218559 1.0
C      1  0.3293494860317  0.4162616742471  0.5036832194438 1.0
END
