TITL C-75206-6989-10 -5.243 3375.00 0 0 0 110 (C1) n - 1
REM
REM Run started: at 2020.03.16 04:37:12 in /rds/user/bk393/hpc-work/AIRSS.pl-DENE/CARBON/New-Try
REM VASP from code version vasp.5.4.4.18Apr17-6-g9f103f2a35 (build Oct 11 2019 16:45:47) gamma-only
REM
REM
REM
REM
REM ./C.cell (9f5935e56d41cf50cb14479ce98dda23)
REM AIRSS Version 0.9.1 bugfix July 2018 build 013d7b7c2542+ Fri, 06 Jul 2018 19:26:36 +0100
REM compiler GCC version 4.8.5 20150623 (Red Hat 4.8.5-39)
REM options -cpp -mtune=generic -march=x86-64 -g -O0
REM seed 1440898982 -623082953 1736528385 500569557 2016663406 1238018643 389095115 1004316766 -1461247980 -1841329531 -2082326206 457163057
REM
REM C.POTCAR (d86ddea03c3ceb6dc662c8ad6801f873)
REM 
CELL 1.54180   15.00000   15.00000   15.00000   90.00000   90.00000   90.00000
LATT -1
SFAC C  
C      1  0.4578482958706  0.4833145218368  0.2159323303912 1.0
C      1  0.6812001437454  0.4200226015337  0.2431737408826 1.0
C      1  0.4533265289644  0.2653819406833  0.6966828537253 1.0
C      1  0.3412924253202  0.3877391602515  0.2701428844677 1.0
C      1  0.2969764302450  0.4579387378208  0.2249100488412 1.0
C      1  0.5436626674767  0.6215276347557  0.2602902141471 1.0
C      1  0.3777199669041  0.5434017915959  0.5233640171035 1.0
C      1  0.5523150765404  0.4852690799227  0.1872061376272 1.0
C      1  0.4720858461744  0.5935711409277  0.5235567869443 1.0
C      1  0.6044459541572  0.5538363414674  0.2291447227092 1.0
C      1  0.5011785304693  0.4935091093472  0.4058768069422 1.0
C      1  0.5998780314004  0.7501457257426  0.6066389177156 1.0
C      1  0.3132239891961  0.7850316151616  0.3860928218897 1.0
C      1  0.8236266784471  0.4181609531489  0.6275982810036 1.0
C      1  0.2836471423720  0.2622935626011  0.5884793610272 1.0
C      1  0.4845699569692  0.7216491569540  0.7416887549624 1.0
C      1  0.4962153419951  0.4515275843192  0.5725778521249 1.0
C      1  0.2400905221873  0.5004668390544  0.2918706443702 1.0
C      1  0.4391415967952  0.5532488425370  0.3675134920783 1.0
C      1  0.5941332225491  0.8631059758677  0.4588763916156 1.0
C      1  0.3187441450731  0.6083764751299  0.5720657889264 1.0
C      1  0.7757929291131  0.5474385000229  0.5264334497062 1.0
C      1  0.6133558411237  0.3652755897916  0.5360519424194 1.0
C      1  0.1690139694171  0.5354612734941  0.7161265535435 1.0
C      1  0.4199128759063  0.2378614420420  0.4067652702379 1.0
C      1  0.3624967905912  0.5735131820486  0.4269024083656 1.0
C      1  0.5491196472199  0.1483979613476  0.5634244519750 1.0
C      1  0.4534110708701  0.5748876937541  0.2691376181870 1.0
C      1  0.3841473210896  0.6678812154502  0.6346536919598 1.0
C      1  0.4009555966678  0.1818354914537  0.4847094838461 1.0
C      1  0.4075280798493  0.5531229532104  0.8645733257349 1.0
C      1  0.5273826197665  0.5174874363522  0.4965411834779 1.0
C      1  0.5558379368768  0.4850288161400  0.6371581204813 1.0
C      1  0.7647246369203  0.3608447105446  0.6721039700157 1.0
C      1  0.5942452158725  0.2246025803577  0.5931495953461 1.0
C      1  0.7251497224986  0.2815889315596  0.3567095534044 1.0
C      1  0.6336441110603  0.6761974781484  0.4691009230095 1.0
C      1  0.4004044647807  0.6737777545938  0.7368347604220 1.0
C      1  0.4158321378472  0.3178514131429  0.7491159025731 1.0
C      1  0.4740171354218  0.1411986629545  0.5271672226549 1.0
C      1  0.5849224853457  0.3467459143054  0.7205821246119 1.0
C      1  0.7072582941011  0.5558236446124  0.7437722868236 1.0
C      1  0.4016008709998  0.7681286856401  0.3610661520165 1.0
C      1  0.5400705637185  0.3988177421973  0.7862584357117 1.0
C      1  0.5511713349092  0.7043966690542  0.3023385046800 1.0
C      1  0.3632658395288  0.5159349720172  0.1866715851169 1.0
C      1  0.8017785765140  0.3276429884547  0.5936162535959 1.0
C      1  0.4847075209909  0.7169663747475  0.3882618395405 1.0
C      1  0.6067345234033  0.8172356568084  0.3839111546436 1.0
C      1  0.5471484067295  0.7354230448912  0.6842058073847 1.0
C      1  0.5412387371959  0.5660618627798  0.6747271997773 1.0
C      1  0.4547780372792  0.8053310477576  0.5563260635393 1.0
C      1  0.5330126364948  0.2916052156892  0.6476481429107 1.0
C      1  0.3016068036337  0.6523496140797  0.2687615724478 1.0
C      1  0.4426088708463  0.6370724024041  0.4335561589980 1.0
C      1  0.6743807155995  0.3927602553490  0.6995453628532 1.0
C      1  0.3303826091222  0.7312168752135  0.3108692140840 1.0
C      1  0.7092524375072  0.3387880552594  0.2812276803575 1.0
C      1  0.7600055637566  0.5700033901526  0.6677291248653 1.0
C      1  0.3718393798807  0.6011509301512  0.7869435754435 1.0
C      1  0.7719680728918  0.2777375760915  0.4338609894773 1.0
C      1  0.7212425987809  0.5555334159593  0.3488248423036 1.0
C      1  0.6544452398339  0.2637649150157  0.2938185904256 1.0
C      1  0.6866384660551  0.5149966014381  0.2665558562395 1.0
C      1  0.6560318801506  0.6828522982223  0.5596612797785 1.0
C      1  0.2438558883305  0.4824114909455  0.7285279167020 1.0
C      1  0.6778775505134  0.4677804774529  0.7675252129723 1.0
C      1  0.5950945854132  0.4780019141656  0.8119117745674 1.0
C      1  0.2259449408063  0.7140597600037  0.4928849183921 1.0
C      1  0.3313988914111  0.2129522223658  0.5408616605568 1.0
C      1  0.5492836803595  0.7990274871384  0.5331405676004 1.0
C      1  0.6646402496827  0.5916102621564  0.4230268538347 1.0
C      1  0.5955669472519  0.4029751480472  0.1962955511907 1.0
C      1  0.4891948523581  0.2571197168267  0.3463980424516 1.0
C      1  0.5126013261813  0.3554260155580  0.5585202792838 1.0
C      1  0.7536866157434  0.2810730411277  0.5224146974497 1.0
C      1  0.6578261785167  0.2772418188807  0.5497242609991 1.0
C      1  0.2467605991125  0.3953908638150  0.6899649210698 1.0
C      1  0.6424408381930  0.4400122748039  0.6113910066196 1.0
C      1  0.5604557919884  0.2594914925310  0.2767589331424 1.0
C      1  0.5341429621104  0.3341042613326  0.2208967774056 1.0
C      1  0.2434354477801  0.5908229665304  0.3159984141390 1.0
C      1  0.4013622153998  0.4503171572352  0.5483869201558 1.0
C      1  0.7639815817184  0.5638660980772  0.4286788159106 1.0
C      1  0.3977956267156  0.4716347024756  0.8148703733475 1.0
C      1  0.5432818340840  0.4137099987124  0.3885829414829 1.0
C      1  0.2563762876789  0.4618495470165  0.3800010526480 1.0
C      1  0.3993361176448  0.7545731078375  0.5895516091990 1.0
C      1  0.6250397209514  0.5139094456571  0.4769338895865 1.0
C      1  0.4441777284211  0.3864978559644  0.2560802942148 1.0
C      1  0.5626338661355  0.7437030979793  0.4486865901866 1.0
C      1  0.3693410057767  0.6030419648528  0.2190511506218 1.0
C      1  0.3166606420562  0.3878218353962  0.3660108143413 1.0
C      1  0.6077917345053  0.5601455993425  0.7533075907694 1.0
C      1  0.2496548665496  0.6256777961113  0.5116596332945 1.0
C      1  0.2472230270358  0.7833231360751  0.4517159138155 1.0
C      1  0.2635987539617  0.5663209389732  0.4162705257258 1.0
C      1  0.6132567719765  0.7746987857485  0.3008308094957 1.0
C      1  0.3903968116389  0.3387772670603  0.4166530198689 1.0
C      1  0.7155308294513  0.6073956029937  0.5872180365037 1.0
C      1  0.8206492350967  0.5124737968614  0.6146923054173 1.0
C      1  0.4175028025992  0.3700138039403  0.5065755172435 1.0
C      1  0.3263283484994  0.5156533363169  0.7664489696042 1.0
C      1  0.0963653414308  0.5800898956110  0.7130178967619 1.0
C      1  0.4772929653951  0.6198968474405  0.6190341469644 1.0
C      1  0.6171704408601  0.4149840670183  0.4490284617215 1.0
C      1  0.4722921194468  0.3547761416144  0.3515755960774 1.0
C      1  0.4450085328326  0.3915299944234  0.7997273633893 1.0
C      1  0.6824207163070  0.5143712958753  0.5558154859483 1.0
C      1  0.2529373690639  0.3273338443488  0.6422704128450 1.0
END
