TITL C-75206-6989-4 -5.625 3375.00 0 0 0 116 (C1) n - 1
REM
REM Run started: at 2020.03.16 01:34:36 in /rds/user/bk393/hpc-work/AIRSS.pl-DENE/CARBON/New-Try
REM VASP from code version vasp.5.4.4.18Apr17-6-g9f103f2a35 (build Oct 11 2019 16:45:47) gamma-only
REM
REM
REM
REM
REM ./C.cell (9f5935e56d41cf50cb14479ce98dda23)
REM AIRSS Version 0.9.1 bugfix July 2018 build 013d7b7c2542+ Fri, 06 Jul 2018 19:26:36 +0100
REM compiler GCC version 4.8.5 20150623 (Red Hat 4.8.5-39)
REM options -cpp -mtune=generic -march=x86-64 -g -O0
REM seed 1518272970 -541986282 1732395076 695726051 1526701529 566218088 1482938308 -607776870 1141683651 -283641460 -202003235 -843199317
REM
REM C.POTCAR (d86ddea03c3ceb6dc662c8ad6801f873)
REM 
CELL 1.54180   15.00000   15.00000   15.00000   90.00000   90.00000   90.00000
LATT -1
SFAC C  
C      1  0.6154573345406  0.4251139150981  0.6426380901518 1.0
C      1  0.3725920526992  0.2288484670572  0.2656068771923 1.0
C      1  0.4135344572100  0.6107569198780  0.8001507343714 1.0
C      1  0.4627529250732  0.4823104089907  0.5259310843286 1.0
C      1  0.5292642252899  0.7935354333742  0.5769615363989 1.0
C      1  0.6756733127228  0.4600660723877  0.2681441300203 1.0
C      1  0.5281686832737  0.5014033548666  0.8284670570707 1.0
C      1  0.6396031696563  0.7825156117963  0.4506675478505 1.0
C      1  0.4456760179913  0.2048222453096  0.2962002989088 1.0
C      1  0.2981555468838  0.7143770323145  0.3396144385889 1.0
C      1  0.2775798483315  0.3633505591035  0.6105098951418 1.0
C      1  0.6630401756096  0.3769244710347  0.4007573200902 1.0
C      1  0.5165641734995  0.2194312846769  0.7352348278971 1.0
C      1  0.2891910102712  0.5096817923364  0.5445656515355 1.0
C      1  0.4514953880429  0.2975372896583  0.4208741603400 1.0
C      1  0.4521839020771  0.5683112198415  0.5564802826806 1.0
C      1  0.7320422480906  0.5107510983755  0.5630229472368 1.0
C      1  0.5961359535640  0.2563526838660  0.3705636666904 1.0
C      1  0.6509469893255  0.4557898660673  0.5646825953936 1.0
C      1  0.4108410235824  0.7826993464076  0.4322351149870 1.0
C      1  0.3099747460051  0.3029552988951  0.6704176240754 1.0
C      1  0.6056898424022  0.4653790278313  0.7964295639877 1.0
C      1  0.6314775373422  0.1453441919186  0.6338288898078 1.0
C      1  0.6867361881572  0.2097805777124  0.5967599746587 1.0
C      1  0.7090388757049  0.6224929299833  0.2729730311866 1.0
C      1  0.4380297655347  0.7205355435076  0.6829548716895 1.0
C      1  0.8448830253029  0.5396746637532  0.4459415738738 1.0
C      1  0.6718694485677  0.5487705930226  0.2287881347415 1.0
C      1  0.3895152291193  0.2103883892678  0.5483992248149 1.0
C      1  0.7327051848453  0.6424424177039  0.7528130773539 1.0
C      1  0.3115663546125  0.6742445357597  0.5206528724055 1.0
C      1  0.4471226108904  0.4638057622790  0.1941162835090 1.0
C      1  0.1726431407630  0.7393820260295  0.2187163100922 1.0
C      1  0.5097758916295  0.5466317994165  0.3889268760735 1.0
C      1  0.3151414345844  0.4772041583273  0.7770446864262 1.0
C      1  0.2370670754912  0.5145631521716  0.2763360219172 1.0
C      1  0.7065517182815  0.2586271260915  0.5165715842172 1.0
C      1  0.7289731271104  0.4159416978913  0.3333106105900 1.0
C      1  0.5337611040492  0.6320148405021  0.1855754488781 1.0
C      1  0.4878029549023  0.6934052978072  0.2175758791855 1.0
C      1  0.3848076194836  0.7545137244869  0.3434695027984 1.0
C      1  0.5003182995285  0.3732914800092  0.3998407129161 1.0
C      1  0.2446754312019  0.6680565853223  0.6003263672301 1.0
C      1  0.5652388842558  0.6618188834032  0.7835258725839 1.0
C      1  0.3796639042232  0.6573872032823  0.7235088305173 1.0
C      1  0.4166566761068  0.4063884256666  0.5628002931005 1.0
C      1  0.2417354927722  0.4607028797491  0.4014689190127 1.0
C      1  0.4243247809805  0.5469343535100  0.3411525858713 1.0
C      1  0.4976192134194  0.8195736971280  0.4208634320331 1.0
C      1  0.3761997808385  0.5288947518134  0.8279112464986 1.0
C      1  0.5344044707900  0.6265129262513  0.5304319969305 1.0
C      1  0.5670814945339  0.1580852915558  0.6861435433316 1.0
C      1  0.4369759033528  0.7635929300686  0.5933573610266 1.0
C      1  0.6884090284022  0.7050042260838  0.3171296932890 1.0
C      1  0.1811509623658  0.6063360993926  0.5859092928212 1.0
C      1  0.5290068102877  0.7201944265120  0.7150004770043 1.0
C      1  0.3524150900007  0.5876440573226  0.5705565140379 1.0
C      1  0.5232924075428  0.4596148558557  0.4468507034298 1.0
C      1  0.3805901538412  0.7500120867942  0.5173117836871 1.0
C      1  0.4379960491555  0.4585458648631  0.8375318087975 1.0
C      1  0.4491900055673  0.1447275609792  0.5139115141612 1.0
C      1  0.3721021486846  0.5165316179436  0.1494564885877 1.0
C      1  0.6551483911674  0.4204055171330  0.7363481437881 1.0
C      1  0.2356542551436  0.7227126331413  0.2743339551705 1.0
C      1  0.4637171788551  0.7536092297739  0.2849904559246 1.0
C      1  0.3301177684099  0.3617307434636  0.5213596651418 1.0
C      1  0.3714988740118  0.3947700526423  0.7960184330551 1.0
C      1  0.6010027404952  0.6917923189923  0.5728359776941 1.0
C      1  0.2542025780826  0.5559246474652  0.3691699129696 1.0
C      1  0.5929597937605  0.4154756784656  0.2597676355568 1.0
C      1  0.5807550179253  0.3542986962537  0.3405684165313 1.0
C      1  0.2907768786928  0.4394786171193  0.4739330744027 1.0
C      1  0.6744058797069  0.7162126313474  0.5072810615836 1.0
C      1  0.5595642752139  0.8187603888145  0.4892943272178 1.0
C      1  0.5855187983284  0.7536858868167  0.6466519923197 1.0
C      1  0.7574803325026  0.6503029500963  0.3488562744514 1.0
C      1  0.5464655626421  0.3578307134707  0.6588638472528 1.0
C      1  0.5360564877762  0.7922503811680  0.3365475498536 1.0
C      1  0.5059858989611  0.5993849243305  0.8191703265621 1.0
C      1  0.1880071911896  0.5187347107165  0.5725802599696 1.0
C      1  0.5035771846124  0.2131630193499  0.3766335762574 1.0
C      1  0.6186864161445  0.4372577602369  0.4729768536286 1.0
C      1  0.4904344451253  0.1419199469208  0.4429092581775 1.0
C      1  0.4240812170933  0.2400201922810  0.7220223832790 1.0
C      1  0.2480036382926  0.3445234401158  0.2782229089336 1.0
C      1  0.8080795118719  0.4781508414033  0.5147927484615 1.0
C      1  0.3723275717454  0.2344212796531  0.6393265145853 1.0
C      1  0.7489653991854  0.6038252011166  0.5880762193989 1.0
C      1  0.7232791609980  0.2839374293821  0.6526727998575 1.0
C      1  0.7606493712573  0.6306219396018  0.6715033536921 1.0
C      1  0.8597289609283  0.4866607367964  0.3724380371793 1.0
C      1  0.7488264101001  0.6584015441266  0.5062611141600 1.0
C      1  0.2998872088298  0.2822430618958  0.2617508287133 1.0
C      1  0.3643083778218  0.3139946149338  0.7539200654299 1.0
C      1  0.6280208747435  0.7691979324501  0.3533921580673 1.0
C      1  0.2891856358500  0.6468116893690  0.4179666889910 1.0
C      1  0.6637097667120  0.2788448283091  0.4323427740243 1.0
C      1  0.5400559416356  0.6114319953571  0.4417672087889 1.0
C      1  0.6761571659307  0.3183460442143  0.7265507265348 1.0
C      1  0.3782011051903  0.2820001879949  0.4854961977200 1.0
C      1  0.3117038040100  0.5149744515711  0.2169977198203 1.0
C      1  0.3491116066236  0.5812886904128  0.3789257146475 1.0
C      1  0.3116660423133  0.6098381111626  0.6670110927045 1.0
C      1  0.8162717492279  0.3914295169526  0.5413296919520 1.0
C      1  0.6554649004190  0.6452171189628  0.7864617231705 1.0
C      1  0.3983773538277  0.4922734163608  0.2659382218343 1.0
C      1  0.2528156272244  0.4601325141192  0.6251190238512 1.0
C      1  0.5766898653778  0.2949057206824  0.7235742104418 1.0
C      1  0.8210173784924  0.4213995756275  0.3354516663081 1.0
C      1  0.5847059502132  0.5536566189678  0.1865099738176 1.0
C      1  0.4664345245128  0.3619785532060  0.6195475697460 1.0
C      1  0.7973210842826  0.6239215122756  0.4324561923117 1.0
C      1  0.2823507210314  0.5151749232127  0.7011571623505 1.0
C      1  0.5406413421261  0.4673492563448  0.1987975697483 1.0
C      1  0.7635336859487  0.3238853958209  0.5686018070749 1.0
C      1  0.2213331970700  0.4269131872957  0.3126270988696 1.0
END
