TITL C-75206-6989-6 -1.788 3375.00 0 0 0 37 (C1) n - 1
REM
REM Run started: at 2020.03.16 01:53:16 in /rds/user/bk393/hpc-work/AIRSS.pl-DENE/CARBON/New-Try
REM VASP from code version vasp.5.4.4.18Apr17-6-g9f103f2a35 (build Oct 11 2019 16:45:47) gamma-only
REM
REM
REM
REM
REM ./C.cell (9f5935e56d41cf50cb14479ce98dda23)
REM AIRSS Version 0.9.1 bugfix July 2018 build 013d7b7c2542+ Fri, 06 Jul 2018 19:26:36 +0100
REM compiler GCC version 4.8.5 20150623 (Red Hat 4.8.5-39)
REM options -cpp -mtune=generic -march=x86-64 -g -O0
REM seed 1898561624 1108746954 485780378 -1303809853 459030184 -622900477 1364867456 -572199466 708053633 1341048073 305923341 893093620
REM
REM C.POTCAR (d86ddea03c3ceb6dc662c8ad6801f873)
REM 
CELL 1.54180   15.00000   15.00000   15.00000   90.00000   90.00000   90.00000
LATT -1
SFAC C  
C      1  0.3764264781895  0.4977430231353  0.6489133314305 1.0
C      1  0.3558074405282  0.5538132541685  0.5134976101451 1.0
C      1  0.6076780655973  0.6579960177284  0.6390937520659 1.0
C      1  0.5821584954028  0.3245536347332  0.3773933998400 1.0
C      1  0.6277600827825  0.4877736034792  0.6012674542119 1.0
C      1  0.5865867126414  0.2925626960422  0.4685568099597 1.0
C      1  0.3729907640800  0.3916506476255  0.5137302935889 1.0
C      1  0.6094337480820  0.3462722978793  0.5423080014346 1.0
C      1  0.3537737719239  0.6297319006988  0.5753264215592 1.0
C      1  0.6237626083241  0.6306591133015  0.5019095362773 1.0
C      1  0.5977957321827  0.5971160010861  0.4156571881747 1.0
C      1  0.5255287570784  0.3691553534957  0.5895957838006 1.0
C      1  0.5175435784234  0.6685797455095  0.6677152361797 1.0
C      1  0.4289157718677  0.6698513438933  0.5276769430437 1.0
C      1  0.4499237969836  0.3368311039619  0.5370438343277 1.0
C      1  0.4966895504567  0.7143714897448  0.5769155015748 1.0
C      1  0.3517040265299  0.4458754633649  0.3412787760338 1.0
C      1  0.3523927626736  0.4697179405952  0.5604712347088 1.0
C      1  0.4844361596654  0.3103340135022  0.3756842376416 1.0
C      1  0.4607253717326  0.5997795235051  0.6960828452954 1.0
C      1  0.6656613076416  0.4219330429131  0.5474514145619 1.0
C      1  0.3599630367516  0.4043303086790  0.4203157707218 1.0
C      1  0.5147452482454  0.4609272667797  0.3709560869968 1.0
C      1  0.3697514473070  0.5942869767113  0.6604939474494 1.0
C      1  0.3638801631703  0.5313476487228  0.3065897765458 1.0
C      1  0.4301520001717  0.5854203170465  0.3153262328411 1.0
C      1  0.4316836218379  0.5930324568815  0.4645024663396 1.0
C      1  0.4413257489701  0.3965168380696  0.3600148374017 1.0
C      1  0.6417613411341  0.5820215796524  0.5869031528203 1.0
C      1  0.5002088554839  0.5613918875560  0.3927237474464 1.0
C      1  0.5873721679422  0.7023665147916  0.5542102003553 1.0
C      1  0.6597307883172  0.5461717114640  0.3744376782541 1.0
C      1  0.4709154459679  0.5028048935316  0.6773612742950 1.0
C      1  0.5985684651651  0.4175779221812  0.3552137846404 1.0
C      1  0.4870384201475  0.2817224697393  0.4679055896471 1.0
C      1  0.6755294558944  0.4707820818937  0.3386726685666 1.0
C      1  0.5396785107067  0.4529979159362  0.6368031798228 1.0
END
