TITL C-75206-6989-41 -5.314 3375.00 0 0 0 109 (C1) n - 1
REM
REM Run started: at 2020.03.16 19:07:31 in /rds/user/bk393/hpc-work/AIRSS.pl-DENE/CARBON/New-Try
REM VASP from code version vasp.5.4.4.18Apr17-6-g9f103f2a35 (build Oct 11 2019 16:45:47) gamma-only
REM
REM
REM
REM
REM ./C.cell (9f5935e56d41cf50cb14479ce98dda23)
REM AIRSS Version 0.9.1 bugfix July 2018 build 013d7b7c2542+ Fri, 06 Jul 2018 19:26:36 +0100
REM compiler GCC version 4.8.5 20150623 (Red Hat 4.8.5-39)
REM options -cpp -mtune=generic -march=x86-64 -g -O0
REM seed -1699136004 1107936476 -691458225 -157365032 1072244332 334854891 -1767798787 1656237773 1957572138 457543602 -1016350137 532789973
REM
REM C.POTCAR (d86ddea03c3ceb6dc662c8ad6801f873)
REM 
CELL 1.54180   15.00000   15.00000   15.00000   90.00000   90.00000   90.00000
LATT -1
SFAC C  
C      1  0.2200738524290  0.4025847390497  0.5904270979954 1.0
C      1  0.4419794565226  0.5181359911182  0.5457158336075 1.0
C      1  0.4691407178399  0.7577703200025  0.2989788767671 1.0
C      1  0.5106995297949  0.8072012730317  0.6531062862524 1.0
C      1  0.4703078807415  0.1777210939429  0.5034729509502 1.0
C      1  0.4257828468222  0.6018608972095  0.3963282123378 1.0
C      1  0.6728493211341  0.3703697019784  0.2761901883320 1.0
C      1  0.4304306228871  0.3760040527255  0.2018584575918 1.0
C      1  0.3851361707101  0.2056899729065  0.5347425965828 1.0
C      1  0.3802417343298  0.5928301028279  0.5508518044690 1.0
C      1  0.1980444898422  0.5172134576558  0.3795012272188 1.0
C      1  0.7624975622805  0.4323433988827  0.6722253030901 1.0
C      1  0.6432236446773  0.2830605396250  0.4190121488410 1.0
C      1  0.2036567578026  0.6103006344320  0.5125910576893 1.0
C      1  0.3166549776289  0.8050311369754  0.6081488111780 1.0
C      1  0.6170350577290  0.3841112205262  0.4096964312692 1.0
C      1  0.5110479953200  0.4971802349066  0.1458667114851 1.0
C      1  0.5248016232015  0.1745394491782  0.5793320948015 1.0
C      1  0.5755523083873  0.3133913712292  0.5602165465944 1.0
C      1  0.3633267427922  0.3660216741375  0.3602466222480 1.0
C      1  0.7424182408324  0.5118460270167  0.3741905377697 1.0
C      1  0.2716839653489  0.3685403700267  0.3053886839566 1.0
C      1  0.6945896446793  0.6593103733223  0.3314921493671 1.0
C      1  0.3479546131071  0.2663954611176  0.5950477899398 1.0
C      1  0.2790280605919  0.2924570220848  0.3689522761365 1.0
C      1  0.7343640627725  0.5746885409804  0.4551007021455 1.0
C      1  0.3985786273048  0.4383309654628  0.4132142848611 1.0
C      1  0.4382206076112  0.4562057858208  0.1560322218754 1.0
C      1  0.3951518565033  0.7806399783252  0.3296687728242 1.0
C      1  0.8240127701670  0.4827346942019  0.4399989892681 1.0
C      1  0.4832343609693  0.8357063115756  0.4942969195090 1.0
C      1  0.4636993919651  0.4704051949081  0.7737801878428 1.0
C      1  0.7685043594852  0.7139680824281  0.5654737471116 1.0
C      1  0.3580529402083  0.3428805944752  0.2593039448670 1.0
C      1  0.5423932044612  0.7596874186036  0.4934051251736 1.0
C      1  0.5579348023310  0.5334983140976  0.3247829897715 1.0
C      1  0.4487330390831  0.3852072381633  0.6349093630913 1.0
C      1  0.2724816571970  0.5711479571229  0.6765245689514 1.0
C      1  0.5093654194447  0.5385836264412  0.6156645923306 1.0
C      1  0.5186348463153  0.2514969874020  0.2660529030728 1.0
C      1  0.7003951820430  0.7316234439080  0.5036602610549 1.0
C      1  0.2370515935239  0.6098788244158  0.6037267995498 1.0
C      1  0.5921057698262  0.4881548644659  0.1896391830452 1.0
C      1  0.2307099217095  0.4545984102668  0.3130930154642 1.0
C      1  0.7327868792284  0.2209855859966  0.5555613610107 1.0
C      1  0.3300645751072  0.6387810063898  0.6274226458899 1.0
C      1  0.6351777342965  0.6153613625132  0.7511588732805 1.0
C      1  0.5837609489088  0.2706176978201  0.7160846255107 1.0
C      1  0.3898201680307  0.8516594774727  0.4702741037641 1.0
C      1  0.4512464433431  0.2201039455840  0.3312810458354 1.0
C      1  0.5551652398152  0.6230778936045  0.6009501534973 1.0
C      1  0.4946248452311  0.6435015534105  0.8145014177896 1.0
C      1  0.6808074731786  0.4339007381911  0.3559833050994 1.0
C      1  0.4964403209708  0.1860322933146  0.4107008271957 1.0
C      1  0.6727807806932  0.2856796316391  0.3148803149093 1.0
C      1  0.7735397382295  0.3462967920379  0.6398214021691 1.0
C      1  0.4962222826113  0.6040726710706  0.3305712143595 1.0
C      1  0.6262811284449  0.7764558632896  0.5410935219224 1.0
C      1  0.7862683114704  0.5172884970448  0.5173361448035 1.0
C      1  0.3765340795426  0.4849704673914  0.7700272566198 1.0
C      1  0.2855372937078  0.4063608179567  0.6600648493134 1.0
C      1  0.7598134881418  0.5830239362281  0.6652809683560 1.0
C      1  0.3624966698209  0.3459271145659  0.6456716394523 1.0
C      1  0.5984392935358  0.7701734385386  0.6366716910542 1.0
C      1  0.2443595372102  0.2867884338403  0.4596246034186 1.0
C      1  0.4405489276022  0.7534281227010  0.6967554091181 1.0
C      1  0.6022978129565  0.2238591359373  0.3007175871496 1.0
C      1  0.5018220067636  0.3697807500197  0.5493933241480 1.0
C      1  0.6303206959461  0.5597044161331  0.2546223962825 1.0
C      1  0.3036779466581  0.4857033326100  0.7112659626079 1.0
C      1  0.2054252139374  0.3589176534052  0.5077603990720 1.0
C      1  0.6004101141404  0.3373828539147  0.7619846009191 1.0
C      1  0.4591720277669  0.7039097807562  0.7713381929717 1.0
C      1  0.3673131109093  0.2665237753256  0.3254239696186 1.0
C      1  0.1763973040693  0.4469346848097  0.5181829644467 1.0
C      1  0.6645557213101  0.2901368219793  0.5151598829532 1.0
C      1  0.2264003614915  0.6861556560590  0.4636772239697 1.0
C      1  0.2824967318665  0.5275986111806  0.3393918106927 1.0
C      1  0.6198398393110  0.6640229898793  0.2716351765075 1.0
C      1  0.4514837346616  0.4379222075378  0.4931436130045 1.0
C      1  0.5178536130264  0.3350307402176  0.2170491766407 1.0
C      1  0.5883342806968  0.2017276719806  0.3920622948798 1.0
C      1  0.7090677215455  0.6647100731099  0.4292853128110 1.0
C      1  0.7860167782527  0.5087310991527  0.6149482425234 1.0
C      1  0.5173746866530  0.6731424851144  0.5193737036438 1.0
C      1  0.4741468183155  0.8650147594514  0.5862271468617 1.0
C      1  0.4817858341109  0.4659776002578  0.6754656032540 1.0
C      1  0.5646256813958  0.5825161972516  0.8065692279309 1.0
C      1  0.3579160303822  0.7321103368671  0.6490506326003 1.0
C      1  0.1737397624885  0.5285254432503  0.4701458345254 1.0
C      1  0.3420720570030  0.8017688474918  0.4047109742547 1.0
C      1  0.3673866867045  0.5253564195260  0.3823882832086 1.0
C      1  0.3008348017656  0.2418790283808  0.5183012934832 1.0
C      1  0.6258005922087  0.6732737591068  0.6627084845840 1.0
C      1  0.5818467322380  0.4596895189429  0.3754513173701 1.0
C      1  0.7203357909656  0.5711656559881  0.2999191592317 1.0
C      1  0.6242580324705  0.4259949672658  0.7846409517994 1.0
C      1  0.7054864180215  0.5571555891054  0.7385051253747 1.0
C      1  0.7329583661697  0.6652256615895  0.6315498845070 1.0
C      1  0.7589719071491  0.3152760643269  0.5459948103887 1.0
C      1  0.4374165920977  0.6317104173224  0.4827357026248 1.0
C      1  0.3761211971211  0.8618336247704  0.5651379919845 1.0
C      1  0.5566894816688  0.2407553826655  0.6301298442633 1.0
C      1  0.7052243443893  0.4628635023109  0.7480760046974 1.0
C      1  0.5537604378416  0.4871529101459  0.8133907260176 1.0
C      1  0.2690585136162  0.7494141281726  0.4303664241742 1.0
C      1  0.5278015780950  0.6856867265609  0.2917765320536 1.0
C      1  0.7463019494652  0.2598235700924  0.6435863196308 1.0
C      1  0.6007018028780  0.3921001604586  0.2131290476868 1.0
END
