TITL C-76470-1558-7 -8.566 3375.00 -1439.66116470 0 0 176 (C1) n - 1
REM
REM Run started: at 2021.01.18 18:18:13 in /rds/project/t2_vol4/rds-t2-cs072/BORA/CARBON/AIRSS/Generating-Clusters/Str-Search/Only-C1/C100-200
REM VASP from code version vasp.5.4.4.18Apr17-6-g9f103f2a35 (build Oct 11 2019 16:45:47) gamma-only
REM
REM
REM
REM
REM ./C.cell (efaf0b2bf1589a83377268d7ebe2c73f)
REM AIRSS Version 0.9.1 bugfix July 2018 build 013d7b7c2542+ Fri, 06 Jul 2018 19:26:36 +0100
REM compiler GCC version 4.8.5 20150623 (Red Hat 4.8.5-39)
REM options -cpp -mtune=generic -march=x86-64 -g -O0
REM seed 781327941 -937325398 1152217744 1150884664 444542633 -806995555 -1633521043 1780183210 -565889714 1730024198 453643440 57118598
REM
REM C.POTCAR (d86ddea03c3ceb6dc662c8ad6801f873)
REM 
CELL 1.54180   15.00000   15.00000   15.00000   90.00000   90.00000   90.00000
LATT -1
SFAC C  
C      1  0.2431994300264  0.5954410668757  0.2021444650278 1.0
C      1  0.5195495300188  0.4292166880772  0.6498685303301 1.0
C      1  0.4638890724392  0.4074656552040  0.8622543295705 1.0
C      1  0.3355074413717  0.3104791297065  0.8429260823641 1.0
C      1  0.4079998245339  0.7455871314677  0.8329196535232 1.0
C      1  0.6468562680315  0.7304216908566  0.7865459407251 1.0
C      1  0.7618503945967  0.5530073935985  0.6703992977038 1.0
C      1  0.2261557770016  0.7977007887202  0.5017512576082 1.0
C      1  0.4640718910691  0.5287401494439  0.1051769523958 1.0
C      1  0.5847456206666  0.5439398466267  0.3601979982540 1.0
C      1  0.4219800091065  0.0971636939262  0.6475663874597 1.0
C      1  0.2700511434890  0.3916878034394  0.3236723338832 1.0
C      1  0.3509232614393  0.7452794493908  0.2931325372749 1.0
C      1  0.6952429354136  0.6901571399120  0.5733862244835 1.0
C      1  0.5558341099725  0.7674390007851  0.7693893831878 1.0
C      1  0.7593720135985  0.7124881216123  0.6421852882986 1.0
C      1  0.5202220934253  0.6241034313003  0.3412793327813 1.0
C      1  0.2630716229497  0.4416913622617  0.7953449541755 1.0
C      1  0.4776802998376  0.4175437688750  0.4113142994909 1.0
C      1  0.1653265949013  0.8192299187976  0.6462752463333 1.0
C      1  0.5425882595722  0.5726925495836  0.9553704946610 1.0
C      1  0.0932374704491  0.4832362263482  0.6231131150359 1.0
C      1  0.5449491224402  0.5667299776027  0.0501540968666 1.0
C      1  0.3689119166350  0.7624730980653  0.5920032237163 1.0
C      1  0.7044128944616  0.7652348537218  0.7100860959976 1.0
C      1  0.3064599296506  0.5560270182731  0.7271858581018 1.0
C      1  0.3439692376840  0.8501135234622  0.4089103540643 1.0
C      1  0.2254299444327  0.5096227706481  0.1735786586419 1.0
C      1  0.6719023700148  0.5231500057219  0.1706489501413 1.0
C      1  0.4953240395763  0.4307916404573  0.1129780753874 1.0
C      1  0.3643082342916  0.5461115987576  0.1112105716108 1.0
C      1  0.6016316177715  0.8728059658105  0.6092710159929 1.0
C      1  0.1566944843134  0.2619596670181  0.6163283772174 1.0
C      1  0.4747534222742  0.8609693421307  0.3739581523498 1.0
C      1  0.6436004422394  0.6579624939025  0.8419259585508 1.0
C      1  0.8315313182803  0.4910452415313  0.6832291876539 1.0
C      1  0.4620896176532  0.5522373474334  0.9156466589061 1.0
C      1  0.6246143564807  0.3762621694112  0.3561450329802 1.0
C      1  0.8581561540734  0.4214040021346  0.5477705170956 1.0
C      1  0.6824936053835  0.5692453462946  0.4559299500432 1.0
C      1  0.8439433365746  0.6202036431742  0.3828644843113 1.0
C      1  0.7367014967687  0.3733450682460  0.2029424071917 1.0
C      1  0.2191575811838  0.6428378990969  0.5722485725260 1.0
C      1  0.5808360617622  0.3263755645733  0.8154297662074 1.0
C      1  0.7802402044078  0.2798018779913  0.5627079867414 1.0
C      1  0.4233836963318  0.8613259047034  0.4599554218645 1.0
C      1  0.8394361217133  0.4054710181759  0.6372898554783 1.0
C      1  0.7332122950590  0.1789128307791  0.3708768065901 1.0
C      1  0.3291491308272  0.4416918312800  0.4833346964599 1.0
C      1  0.7251905606774  0.3150746439747  0.7224204888637 1.0
C      1  0.4369158833482  0.2823797960782  0.3371222939199 1.0
C      1  0.3231833771148  0.6405030329631  0.4798042657264 1.0
C      1  0.6113179598995  0.5206042917500  0.7372050183918 1.0
C      1  0.6154176830602  0.4608554633076  0.3164838379112 1.0
C      1  0.4349671327171  0.4411912476582  0.3279167835601 1.0
C      1  0.3210976620579  0.2031949503537  0.5428521802923 1.0
C      1  0.8074917076690  0.2209731836692  0.4191279606101 1.0
C      1  0.5765021832228  0.7876226009704  0.2913735655126 1.0
C      1  0.3283214358325  0.1988190141006  0.4498492183969 1.0
C      1  0.4914750084158  0.5894831326037  0.6564526578529 1.0
C      1  0.1525592811353  0.5307972311111  0.6771645861787 1.0
C      1  0.5557996914954  0.1220392219386  0.5264398656786 1.0
C      1  0.7175536384012  0.4030112342312  0.4822686253840 1.0
C      1  0.6883683456772  0.1724821250967  0.4546900682236 1.0
C      1  0.7350592197269  0.8290125000814  0.3089554154934 1.0
C      1  0.8756279188930  0.5710448454610  0.7054615126399 1.0
C      1  0.8454937791921  0.6017703431790  0.5424065404641 1.0
C      1  0.2628269162662  0.7462788032271  0.3462074074231 1.0
C      1  0.2782054247117  0.2412694275048  0.3822564482484 1.0
C      1  0.1683103125884  0.3456818685073  0.4486578588403 1.0
C      1  0.4386539485476  0.8226484740872  0.5472000426879 1.0
C      1  0.4277298540073  0.3196061735891  0.8447811460930 1.0
C      1  0.7390107502097  0.3754030966727  0.7934455698198 1.0
C      1  0.5770288708260  0.3571849941912  0.6534083389023 1.0
C      1  0.4116408550690  0.3894207778081  0.4883944179792 1.0
C      1  0.4894293399900  0.7693194575753  0.8303564479786 1.0
C      1  0.3772601719863  0.3607878938490  0.2971536153784 1.0
C      1  0.8175279689568  0.6551841193276  0.4715072550067 1.0
C      1  0.4188032101174  0.5787115139081  0.5955269858296 1.0
C      1  0.2592412383334  0.8146109887079  0.4128387061298 1.0
C      1  0.5280866853766  0.2438796120135  0.7222625876201 1.0
C      1  0.6207840222630  0.3026357098967  0.7252390534297 1.0
C      1  0.1777848936202  0.8411642358845  0.5621279803240 1.0
C      1  0.3619918302827  0.7141363441973  0.7599477457886 1.0
C      1  0.5177887701077  0.8230078363924  0.6001191665924 1.0
C      1  0.1695564523217  0.2870013174582  0.5260204835382 1.0
C      1  0.3308440042553  0.6220030156195  0.1680294893871 1.0
C      1  0.5487449905809  0.4461238768229  0.4791492056893 1.0
C      1  0.6477609378942  0.8499195720820  0.3112763517542 1.0
C      1  0.5282890876505  0.3099215934319  0.5773130137697 1.0
C      1  0.3190150897418  0.5406008645463  0.3336637728240 1.0
C      1  0.3962548442854  0.1865422117892  0.6035388680956 1.0
C      1  0.5846295663169  0.6985196030985  0.3125167303505 1.0
C      1  0.1687302043114  0.5872682449143  0.3639389328510 1.0
C      1  0.4829857913798  0.2361275170689  0.6320075274853 1.0
C      1  0.8655153895323  0.5266268217043  0.3937664344216 1.0
C      1  0.5763887568862  0.5443788522127  0.4605163113389 1.0
C      1  0.4193895302244  0.6108673515674  0.4990593628318 1.0
C      1  0.4708968194647  0.3196194114102  0.4269140739463 1.0
C      1  0.4956567747145  0.6100915943449  0.4463633499959 1.0
C      1  0.7394277193450  0.4920441071040  0.4833202744987 1.0
C      1  0.7643014217495  0.2054436454896  0.5068930825968 1.0
C      1  0.5911774520277  0.0345901910750  0.5395788911508 1.0
C      1  0.2423662206592  0.5939848845898  0.2992693863983 1.0
C      1  0.6956048128000  0.2265189184669  0.2997071909486 1.0
C      1  0.2372836943043  0.4269488762951  0.2284382989185 1.0
C      1  0.5054430656097  0.7566750522307  0.6740815871558 1.0
C      1  0.3371012456019  0.4992579980730  0.8070664886729 1.0
C      1  0.5957394570776  0.1904997765168  0.4792139797171 1.0
C      1  0.4030257665620  0.5269824788012  0.3003462332863 1.0
C      1  0.2880226695182  0.6534884728718  0.7498534671049 1.0
C      1  0.2875227599121  0.7163763815449  0.5425008354071 1.0
C      1  0.6789240099898  0.5817657724373  0.3445054280176 1.0
C      1  0.5590308490331  0.4104740581892  0.8478336309402 1.0
C      1  0.6706530024532  0.4256983132780  0.1529909825728 1.0
C      1  0.2659725870271  0.3543300429812  0.8308213108021 1.0
C      1  0.3839113044737  0.6719119002932  0.2312849795627 1.0
C      1  0.6307720432686  0.6423674284585  0.6287606364336 1.0
C      1  0.4845472505423  0.1442891454351  0.5884921447420 1.0
C      1  0.4875208009612  0.4034199203503  0.5574879733253 1.0
C      1  0.6785643637963  0.5185951924389  0.2665751179212 1.0
C      1  0.8453762993171  0.3649727243942  0.3376616537192 1.0
C      1  0.5271448928683  0.2818593706865  0.2697928604931 1.0
C      1  0.2252389617440  0.3185373408217  0.3756529515729 1.0
C      1  0.1760875672577  0.7741250590369  0.7170253860008 1.0
C      1  0.0953122824425  0.4547625153544  0.5454188775592 1.0
C      1  0.5442969380088  0.6674059319301  0.6498460895506 1.0
C      1  0.2344115719585  0.2355137709757  0.5670911210025 1.0
C      1  0.4573908998011  0.6041554347671  0.2636351419510 1.0
C      1  0.3706422658379  0.3543953387620  0.1961705028861 1.0
C      1  0.7118685028822  0.4404266189226  0.8365620302504 1.0
C      1  0.6250320612195  0.4891968305662  0.8316638074719 1.0
C      1  0.2993193620628  0.4982847597000  0.5508984929158 1.0
C      1  0.8433997325205  0.5089290078408  0.4984923252795 1.0
C      1  0.1752100541106  0.6245704758959  0.6503316118822 1.0
C      1  0.3664596555048  0.2132412332693  0.3635871013184 1.0
C      1  0.5830047538430  0.3901139752683  0.1385441095633 1.0
C      1  0.2969563975150  0.3971572898685  0.1623207894116 1.0
C      1  0.8188115497667  0.6278856540958  0.6366933154611 1.0
C      1  0.8282522143051  0.6832252930139  0.3198220605891 1.0
C      1  0.1397047318085  0.4360702060117  0.4661354041023 1.0
C      1  0.2811703526499  0.4691069447612  0.3932194201784 1.0
C      1  0.7817148593877  0.3231303317621  0.6481357691846 1.0
C      1  0.2962023056747  0.4811060310101  0.1108055746131 1.0
C      1  0.6207448438673  0.3730240259876  0.4555959541991 1.0
C      1  0.6687530856307  0.5680267541580  0.6833653252563 1.0
C      1  0.2129856267871  0.6684545679512  0.3559693298599 1.0
C      1  0.6212281156107  0.2929896393805  0.3022702190550 1.0
C      1  0.1951177416615  0.5162876690093  0.4314503609396 1.0
C      1  0.7005597227986  0.2906894308062  0.2374567723617 1.0
C      1  0.3462475975854  0.5341242406071  0.6303645243957 1.0
C      1  0.8101252685812  0.3498713587194  0.4981114795114 1.0
C      1  0.5278961081130  0.3186733398234  0.1859634361613 1.0
C      1  0.4154357624422  0.4938922278789  0.8653116499418 1.0
C      1  0.5607806925396  0.2873947706230  0.4829494194736 1.0
C      1  0.3971936292725  0.0268791439746  0.6921186852118 1.0
C      1  0.4032184619297  0.7436937090550  0.6770807234395 1.0
C      1  0.5543148481644  0.8703969028600  0.3270991250462 1.0
C      1  0.6739809061524  0.6758726080238  0.3211424867424 1.0
C      1  0.8101909186874  0.4021683508067  0.2599309878031 1.0
C      1  0.4486241262031  0.3571770378496  0.1487724053676 1.0
C      1  0.6617475985109  0.8353472748847  0.6690297308711 1.0
C      1  0.6133321594596  0.5829211106844  0.8822506598149 1.0
C      1  0.7216073102314  0.6567519076147  0.4925210302735 1.0
C      1  0.6038202343999  0.9604112430238  0.5719743876512 1.0
C      1  0.5022938950007  0.2704139074708  0.8077830798978 1.0
C      1  0.8542781764426  0.4578349709270  0.3310429916111 1.0
C      1  0.5253804257763  0.5125728127919  0.6944126253300 1.0
C      1  0.2479950609653  0.5716862117547  0.5069991116151 1.0
C      1  0.3962067078171  0.8173543998776  0.3330265729401 1.0
C      1  0.8375770032511  0.3069346653544  0.4116266429797 1.0
C      1  0.5952864729178  0.5720709254533  0.1340332035821 1.0
C      1  0.2201431677764  0.5013268688162  0.7325387414228 1.0
C      1  0.2054114801536  0.6852606061657  0.7227941287438 1.0
C      1  0.5106621167672  0.5755158795965  0.1815730471507 1.0
C      1  0.7511864577526  0.7339213012888  0.3105878395116 1.0
END
