TITL C-76470-1558-8 -4.791 3375.00 -805.32704557 0 0 100 (C1) n - 1
REM
REM Run started: at 2021.01.18 18:40:51 in /rds/project/t2_vol4/rds-t2-cs072/BORA/CARBON/AIRSS/Generating-Clusters/Str-Search/Only-C1/C100-200
REM VASP from code version vasp.5.4.4.18Apr17-6-g9f103f2a35 (build Oct 11 2019 16:45:47) gamma-only
REM
REM
REM
REM
REM ./C.cell (efaf0b2bf1589a83377268d7ebe2c73f)
REM AIRSS Version 0.9.1 bugfix July 2018 build 013d7b7c2542+ Fri, 06 Jul 2018 19:26:36 +0100
REM compiler GCC version 4.8.5 20150623 (Red Hat 4.8.5-39)
REM options -cpp -mtune=generic -march=x86-64 -g -O0
REM seed 238725963 -1658661449 639811124 -484034429 1125443080 1728061723 -1968923101 -1981364916 -70097202 176206269 179684882 -1493247191
REM
REM C.POTCAR (d86ddea03c3ceb6dc662c8ad6801f873)
REM 
CELL 1.54180   15.00000   15.00000   15.00000   90.00000   90.00000   90.00000
LATT -1
SFAC C  
C      1  0.6411048211435  0.3899167119855  0.2286266986586 1.0
C      1  0.2597548275228  0.6399625586726  0.5218342828480 1.0
C      1  0.2973469477387  0.3289221891285  0.4511046385108 1.0
C      1  0.4244542731557  0.6989334393878  0.6966755587768 1.0
C      1  0.3346511254636  0.2488747382144  0.4603798332030 1.0
C      1  0.5689346927768  0.6839952288330  0.4950236228837 1.0
C      1  0.3466079660826  0.6748205281705  0.6461026293473 1.0
C      1  0.4547007650210  0.3751078097142  0.2461896259043 1.0
C      1  0.7499361151381  0.2840777568306  0.4776089631424 1.0
C      1  0.5476416697459  0.5227927312761  0.5609945705703 1.0
C      1  0.4724024663281  0.1838146816098  0.4292700263563 1.0
C      1  0.6744109899280  0.4036503846746  0.3948741463702 1.0
C      1  0.6529868504286  0.5704636359002  0.6812183011016 1.0
C      1  0.4057295862647  0.5251450141413  0.6390962330123 1.0
C      1  0.2725511084413  0.4912556595027  0.2975695533879 1.0
C      1  0.4730435690531  0.5445765643105  0.2296467232695 1.0
C      1  0.5992084776099  0.6999180734074  0.3950215834507 1.0
C      1  0.6139862308199  0.3054222864723  0.5863985464420 1.0
C      1  0.4469708075893  0.5281458653759  0.5425079097661 1.0
C      1  0.4230981988851  0.7240425146624  0.2660648719773 1.0
C      1  0.4445152865832  0.3604074464299  0.7483474125347 1.0
C      1  0.4878234888559  0.2738098029540  0.7458227736168 1.0
C      1  0.5626954675367  0.6551253451880  0.7879118935121 1.0
C      1  0.4638514132587  0.6528218721564  0.2154716353648 1.0
C      1  0.3430083436205  0.7138999779574  0.3144611265845 1.0
C      1  0.5780127307988  0.4302859836735  0.1734852467282 1.0
C      1  0.6026462128735  0.4677752267036  0.3692466726958 1.0
C      1  0.3918619686443  0.2115436721036  0.3911388480583 1.0
C      1  0.5298344262997  0.7750862481297  0.3957111789750 1.0
C      1  0.5969083962454  0.2221135112536  0.6464554998902 1.0
C      1  0.4847646349758  0.8100561680694  0.5702026452354 1.0
C      1  0.3654508147155  0.7801207179277  0.3861853097447 1.0
C      1  0.4920300521453  0.4517256629613  0.1860176165669 1.0
C      1  0.5921557273458  0.3812702997106  0.7274082094364 1.0
C      1  0.3740334483523  0.2591947851163  0.6371135805841 1.0
C      1  0.7605235731933  0.6498939112678  0.4623000023653 1.0
C      1  0.7269933910276  0.5752191444637  0.6114660183503 1.0
C      1  0.5239491283825  0.5830626688346  0.4856000172679 1.0
C      1  0.6358742310644  0.7634155407459  0.6325223581421 1.0
C      1  0.7373901894290  0.5337836582029  0.3062000724169 1.0
C      1  0.4484709898646  0.2173071226137  0.6788613536463 1.0
C      1  0.3117050838747  0.5793996098044  0.6564819520073 1.0
C      1  0.4536132393704  0.7831621100578  0.3400640417412 1.0
C      1  0.3672278316599  0.3510343981052  0.6844706017189 1.0
C      1  0.6928631829634  0.7561558034515  0.7100848722304 1.0
C      1  0.4652053558568  0.1851730520022  0.5282609375248 1.0
C      1  0.4384504995735  0.5168676429516  0.3228721089455 1.0
C      1  0.6441120674011  0.7043585085581  0.5609064947629 1.0
C      1  0.5518208525297  0.3602061647470  0.5351957155503 1.0
C      1  0.3264375126748  0.7468360804220  0.4642397371199 1.0
C      1  0.6471363900440  0.6137469550055  0.7680544310283 1.0
C      1  0.5374850666005  0.5460290326164  0.3864231751255 1.0
C      1  0.2950237740404  0.4157341366123  0.6823526352795 1.0
C      1  0.3166969680895  0.7079863143213  0.5607715533252 1.0
C      1  0.2101853169135  0.4564566365614  0.6651919389966 1.0
C      1  0.6798499583327  0.4521048502303  0.3036345929468 1.0
C      1  0.4682677039154  0.3725601571839  0.4868965011264 1.0
C      1  0.2066028447026  0.4520721081862  0.4899050016642 1.0
C      1  0.1952664490978  0.4928178182612  0.5781572147501 1.0
C      1  0.4661293858635  0.2330978181073  0.3383252473253 1.0
C      1  0.5396611713513  0.6157601061565  0.2441525670925 1.0
C      1  0.7750845749802  0.4343237725123  0.5252222309888 1.0
C      1  0.6867598271429  0.6117350588819  0.3237828014225 1.0
C      1  0.5104521974863  0.1808451885552  0.6161980498687 1.0
C      1  0.5790102610575  0.2821300881479  0.7319537722710 1.0
C      1  0.7679743952737  0.4968235852651  0.5787471716526 1.0
C      1  0.8138541398717  0.5459972479374  0.3580089573277 1.0
C      1  0.2675163330832  0.5060637486905  0.7206161966187 1.0
C      1  0.4847044300720  0.5343295548216  0.7097229334528 1.0
C      1  0.3738858770625  0.4319277731147  0.6196946073862 1.0
C      1  0.7229958153239  0.6472556285166  0.5522447616179 1.0
C      1  0.5882852839377  0.3261094531492  0.2768834047134 1.0
C      1  0.6729300428975  0.2312110990516  0.5832854346659 1.0
C      1  0.2733765589992  0.6672220007882  0.4345844139449 1.0
C      1  0.5055955191275  0.4328177253796  0.7484948784875 1.0
C      1  0.3775874695981  0.2271826262148  0.5461774129197 1.0
C      1  0.8278013384269  0.5964224018518  0.4242484242550 1.0
C      1  0.7003041357674  0.6763034308122  0.3912783262169 1.0
C      1  0.3004221444942  0.4127925275858  0.4778402208430 1.0
C      1  0.7351673650989  0.2072322155421  0.5168384477605 1.0
C      1  0.4388639957425  0.4165454105874  0.3266769328094 1.0
C      1  0.5128702232654  0.7669422220573  0.4879136167783 1.0
C      1  0.7444538090192  0.3733284149899  0.4604420815251 1.0
C      1  0.6260211128912  0.3915414544267  0.6421183683424 1.0
C      1  0.3949436867489  0.4343717528847  0.5214768367792 1.0
C      1  0.3383716093404  0.5473792170342  0.3264588543202 1.0
C      1  0.1602096274011  0.4574603446210  0.4117459726012 1.0
C      1  0.3049719163151  0.6366385950743  0.3508237997634 1.0
C      1  0.5863983803382  0.6206785414414  0.3300246162371 1.0
C      1  0.4655228373733  0.7732808712887  0.6587907609529 1.0
C      1  0.2473276479451  0.5695985286589  0.5796063459030 1.0
C      1  0.5495100845863  0.8027885966132  0.6370165757694 1.0
C      1  0.4998779489394  0.2851432379172  0.2633365164501 1.0
C      1  0.4813380110583  0.6345802073251  0.7480310167612 1.0
C      1  0.6462398857870  0.7080731449214  0.7732051025125 1.0
C      1  0.1978838199212  0.4696819001285  0.3345209120299 1.0
C      1  0.5880643006020  0.4371921974317  0.5672229435786 1.0
C      1  0.5673875662230  0.5529122187004  0.6522976387502 1.0
C      1  0.4873091762611  0.3723578175679  0.4000011895425 1.0
C      1  0.5826703913348  0.3674634574352  0.3678880612227 1.0
END
