TITL C-77496-952-7 -0.878 3375.00 -135.78763976 0 0 18 (C1) n - 1
REM
REM Run started: at 2020.12.04 18:47:02 in /rds/project/t2_vol4/rds-t2-cs072/BORA/CARBON/AIRSS/Generating-Clusters/Str-Search/Only-C1/C10-100
REM VASP from code version vasp.5.4.4.18Apr17-6-g9f103f2a35 (build Oct 11 2019 16:45:47) gamma-only
REM
REM
REM
REM
REM ./C.cell (67c5d0192afd7a3ce4a0888e5fe73b87)
REM AIRSS Version 0.9.1 bugfix July 2018 build 013d7b7c2542+ Fri, 06 Jul 2018 19:26:36 +0100
REM compiler GCC version 4.8.5 20150623 (Red Hat 4.8.5-39)
REM options -cpp -mtune=generic -march=x86-64 -g -O0
REM seed -1693032025 1981075332 668415419 -308085133 865705447 1369280871 620107446 -200988058 607658553 1253767787 -1101211216 -673392037
REM
REM C.POTCAR (d86ddea03c3ceb6dc662c8ad6801f873)
REM 
CELL 1.54180   15.00000   15.00000   15.00000   90.00000   90.00000   90.00000
LATT -1
SFAC C  
C      1  0.6423709105505  0.6206921796834  0.6088412591078 1.0
C      1  0.6154379932835  0.4059548543546  0.6153185683660 1.0
C      1  0.2336527979421  0.5844212183236  0.2713995834168 1.0
C      1  0.3116436322342  0.5916819517391  0.3279739969305 1.0
C      1  0.2676105942617  0.5017401123332  0.3076512218025 1.0
C      1  0.3866149391371  0.2955687090839  0.4224372380099 1.0
C      1  0.4231120375822  0.3738487238772  0.4412083491309 1.0
C      1  0.4976199744579  0.4083544692201  0.4999880044630 1.0
C      1  0.4063630911342  0.4685465995809  0.4146127868686 1.0
C      1  0.6388555023605  0.6078616563409  0.7048138412949 1.0
C      1  0.4793188737078  0.4992018208895  0.4707270400798 1.0
C      1  0.7343861042194  0.5907207075569  0.6065765446138 1.0
C      1  0.6900248696100  0.5306764417789  0.6716015363019 1.0
C      1  0.6746097140953  0.4408115395553  0.6696313027817 1.0
C      1  0.5208647603258  0.5767494364436  0.4985504532705 1.0
C      1  0.5758745939838  0.6184182034121  0.5442975857622 1.0
C      1  0.5567744040520  0.3755563448638  0.5612073413509 1.0
C      1  0.3448651070621  0.5091948309630  0.3631633464481 1.0
END
