TITL C-77496-952-17 -2.523 3375.00 -433.07342105 0 0 54 (C1) n - 1
REM
REM Run started: at 2020.12.04 23:05:49 in /rds/project/t2_vol4/rds-t2-cs072/BORA/CARBON/AIRSS/Generating-Clusters/Str-Search/Only-C1/C10-100
REM VASP from code version vasp.5.4.4.18Apr17-6-g9f103f2a35 (build Oct 11 2019 16:45:47) gamma-only
REM
REM
REM
REM
REM ./C.cell (67c5d0192afd7a3ce4a0888e5fe73b87)
REM AIRSS Version 0.9.1 bugfix July 2018 build 013d7b7c2542+ Fri, 06 Jul 2018 19:26:36 +0100
REM compiler GCC version 4.8.5 20150623 (Red Hat 4.8.5-39)
REM options -cpp -mtune=generic -march=x86-64 -g -O0
REM seed 80072227 -74190879 -1353101593 -2018479786 -1553673784 -1285374594 -1534858962 -2116549506 135716170 -627076610 -1970074012 424491004
REM
REM C.POTCAR (d86ddea03c3ceb6dc662c8ad6801f873)
REM 
CELL 1.54180   15.00000   15.00000   15.00000   90.00000   90.00000   90.00000
LATT -1
SFAC C  
C      1  0.6563702164284  0.5487536239133  0.4570999776449 1.0
C      1  0.3024841302559  0.5343101145142  0.6303475046321 1.0
C      1  0.3068855747647  0.4244473282337  0.5138844270108 1.0
C      1  0.3880100020073  0.3339081593738  0.3042566921936 1.0
C      1  0.4652529765505  0.3641501526837  0.3632297433782 1.0
C      1  0.4557979655789  0.3949999862130  0.4626121878133 1.0
C      1  0.4809519414530  0.7180462867767  0.5964159792632 1.0
C      1  0.6751535219875  0.3837256266511  0.4463415250372 1.0
C      1  0.5593733131363  0.3731704923785  0.3315154098366 1.0
C      1  0.4497875975834  0.5800878951146  0.2766196791899 1.0
C      1  0.3826063001925  0.5544441639150  0.4443506081732 1.0
C      1  0.5930568621438  0.5574060347090  0.6929082530582 1.0
C      1  0.4086933707576  0.6602690813594  0.6312384337010 1.0
C      1  0.6636556703937  0.5446696660574  0.6257399593691 1.0
C      1  0.6454115543254  0.6356532989780  0.4106936247966 1.0
C      1  0.6352807810598  0.4002487276748  0.5341810898800 1.0
C      1  0.4811862747064  0.5889598830419  0.4555913114132 1.0
C      1  0.5370602350169  0.4448000138769  0.5130319825672 1.0
C      1  0.5209888263261  0.6413165311421  0.3089556021335 1.0
C      1  0.3754246595955  0.4562899669145  0.4615265927448 1.0
C      1  0.4606801690847  0.3603536113875  0.6303217247852 1.0
C      1  0.6326976702720  0.5231607633557  0.2900241423307 1.0
C      1  0.4337346288143  0.5210647927970  0.7196125569816 1.0
C      1  0.4978181220888  0.2516377626264  0.4965308677724 1.0
C      1  0.4685159091127  0.6635188367920  0.3892485359705 1.0
C      1  0.6170032735430  0.3256902876961  0.3934886338631 1.0
C      1  0.5457494344896  0.6350389197497  0.7083711717890 1.0
C      1  0.2226009799745  0.5556717034181  0.4733625144389 1.0
C      1  0.6348952138259  0.3756595586814  0.6316041485824 1.0
C      1  0.4085550322654  0.4191364629166  0.2927456841145 1.0
C      1  0.6691504007784  0.5952274608883  0.5466402523763 1.0
C      1  0.3549525754428  0.4773602301251  0.6850020024972 1.0
C      1  0.5573954801453  0.7101838140271  0.6491207789866 1.0
C      1  0.7039410703080  0.4675607279662  0.4116927292971 1.0
C      1  0.5615238660882  0.4572177401798  0.2824088071061 1.0
C      1  0.3999413502981  0.6029094382461  0.3573524160265 1.0
C      1  0.4680088732987  0.4889747497802  0.2691975737364 1.0
C      1  0.5522650667579  0.5312578601856  0.4697110597052 1.0
C      1  0.6091296085443  0.6170306085118  0.3220750145022 1.0
C      1  0.3666975611431  0.3843604579944  0.6530308949228 1.0
C      1  0.5253480720576  0.4820922145802  0.6974751346464 1.0
C      1  0.3044497248163  0.5953069193105  0.5022227456174 1.0
C      1  0.5642027534171  0.2649410599566  0.4477207436472 1.0
C      1  0.5479751976303  0.3843718790205  0.6762741917954 1.0
C      1  0.4367635388693  0.3204933039337  0.5364692278319 1.0
C      1  0.7073494020543  0.4749690836167  0.3194559411124 1.0
C      1  0.3392502024072  0.3507598945188  0.5687908335734 1.0
C      1  0.2538214545512  0.5012102391761  0.5484427220576 1.0
C      1  0.5030173087288  0.4461892456986  0.6052759250689 1.0
C      1  0.3337028489777  0.6163484379823  0.5963679321962 1.0
C      1  0.6784848192075  0.4515641660786  0.6070218392838 1.0
C      1  0.5709733311707  0.7184280073370  0.5561430180716 1.0
C      1  0.6364703627148  0.6773239408763  0.4999365290514 1.0
C      1  0.4495029228578  0.6133288870673  0.7063212224252 1.0
END
