TITL C-77496-952-8 -0.51 3375.00 -74.22560063 0 0 10 (C1) n - 1
REM
REM Run started: at 2020.12.04 18:54:26 in /rds/project/t2_vol4/rds-t2-cs072/BORA/CARBON/AIRSS/Generating-Clusters/Str-Search/Only-C1/C10-100
REM VASP from code version vasp.5.4.4.18Apr17-6-g9f103f2a35 (build Oct 11 2019 16:45:47) gamma-only
REM
REM
REM
REM
REM ./C.cell (67c5d0192afd7a3ce4a0888e5fe73b87)
REM AIRSS Version 0.9.1 bugfix July 2018 build 013d7b7c2542+ Fri, 06 Jul 2018 19:26:36 +0100
REM compiler GCC version 4.8.5 20150623 (Red Hat 4.8.5-39)
REM options -cpp -mtune=generic -march=x86-64 -g -O0
REM seed 37286556 -1260119190 1623897851 877786131 1830339498 1548373849 -1215403992 -1934633675 633821853 1870097509 -1600689000 -1856333725
REM
REM C.POTCAR (d86ddea03c3ceb6dc662c8ad6801f873)
REM 
CELL 1.54180   15.00000   15.00000   15.00000   90.00000   90.00000   90.00000
LATT -1
SFAC C  
C      1  0.4242632346467  0.4998393784892  0.5482254980287 1.0
C      1  0.5774282974800  0.5764939584343  0.5342205287238 1.0
C      1  0.3502587644964  0.4565944510010  0.5476417845690 1.0
C      1  0.2759191844052  0.4129645046249  0.5448075135719 1.0
C      1  0.6890894323289  0.4530511805230  0.3343852182363 1.0
C      1  0.4980397469752  0.5421049754485  0.5473747380268 1.0
C      1  0.6558602736331  0.5587665775384  0.4688724513882 1.0
C      1  0.6568608100918  0.6237147297608  0.5352714689102 1.0
C      1  0.1992365568785  0.3721048319182  0.5373663151870 1.0
C      1  0.6730436990641  0.5043654122617  0.4018344833580 1.0
END
