TITL C-78693-5763-15 -3.187 3375.00 -530.65551277 0 0 66 (C1) n - 1
REM
REM Run started: at 2020.12.04 20:50:22 in /rds/project/t2_vol4/rds-t2-cs072/BORA/CARBON/AIRSS/Generating-Clusters/Str-Search/Only-C1/C10-100
REM VASP from code version vasp.5.4.4.18Apr17-6-g9f103f2a35 (build Oct 11 2019 16:45:47) gamma-only
REM
REM
REM
REM
REM ./C.cell (67c5d0192afd7a3ce4a0888e5fe73b87)
REM AIRSS Version 0.9.1 bugfix July 2018 build 013d7b7c2542+ Fri, 06 Jul 2018 19:26:36 +0100
REM compiler GCC version 4.8.5 20150623 (Red Hat 4.8.5-39)
REM options -cpp -mtune=generic -march=x86-64 -g -O0
REM seed -1313595083 326459179 -851581758 548867340 -1840572695 -1135275203 -396285899 -221399401 -2087279126 1069473272 1651805519 -903083782
REM
REM C.POTCAR (d86ddea03c3ceb6dc662c8ad6801f873)
REM 
CELL 1.54180   15.00000   15.00000   15.00000   90.00000   90.00000   90.00000
LATT -1
SFAC C  
C      1  0.4289165164485  0.4792936597047  0.7783815972469 1.0
C      1  0.3334375080278  0.4612869468921  0.7510293240825 1.0
C      1  0.4426570574311  0.2862369281132  0.3687490404722 1.0
C      1  0.7544864200200  0.4766461017709  0.5481424155979 1.0
C      1  0.5531691145002  0.3737958003474  0.4631992746607 1.0
C      1  0.4166509827021  0.4325738557529  0.4684330292665 1.0
C      1  0.5063414127789  0.7304249989128  0.3602111892312 1.0
C      1  0.6346084519292  0.2995919478717  0.5920209883752 1.0
C      1  0.3089366599988  0.7017000941886  0.4798665454562 1.0
C      1  0.2829966222756  0.6175371945418  0.4966554249139 1.0
C      1  0.4861112644610  0.6000291455862  0.4447859880479 1.0
C      1  0.4833150164778  0.6321126581501  0.3471403683056 1.0
C      1  0.4343960995058  0.7837983913864  0.3894357949239 1.0
C      1  0.6498677470836  0.3142961421524  0.4194365113404 1.0
C      1  0.5091462296553  0.2851727524047  0.4410411259326 1.0
C      1  0.5051794475843  0.5229848978425  0.2546773770089 1.0
C      1  0.4402626842843  0.6066292307458  0.6829857852364 1.0
C      1  0.6670770308624  0.7264003341761  0.4506645654048 1.0
C      1  0.3505778286359  0.7702056413923  0.4301503118296 1.0
C      1  0.3601563068700  0.6538201052432  0.5529300723102 1.0
C      1  0.5022178737990  0.4481242091233  0.4293160848964 1.0
C      1  0.7176779384587  0.6826015842254  0.5890661636110 1.0
C      1  0.3767174529499  0.8576877373525  0.4062923999325 1.0
C      1  0.5491312887241  0.2618920428409  0.6097539505479 1.0
C      1  0.4978795958719  0.4269517843918  0.2612006193571 1.0
C      1  0.5624884584715  0.4591391485739  0.5148051583382 1.0
C      1  0.4046057466292  0.4162120198502  0.2870482184361 1.0
C      1  0.5853420859216  0.2434152925718  0.3963172204110 1.0
C      1  0.3621629088095  0.5062713360507  0.3072787475489 1.0
C      1  0.4293446508465  0.3441954311204  0.7010131595127 1.0
C      1  0.6629545966389  0.4559895771872  0.6744243710087 1.0
C      1  0.3407528294414  0.3892039004648  0.6872032641148 1.0
C      1  0.5618538965732  0.4342923699398  0.6812537344693 1.0
C      1  0.3326619085518  0.4084566617119  0.4243625530176 1.0
C      1  0.4615277355388  0.5645050311519  0.7634357867679 1.0
C      1  0.5682804167741  0.3655042631635  0.2910373041982 1.0
C      1  0.4183359652919  0.4257743490572  0.5598323103388 1.0
C      1  0.7401381363858  0.4636471566095  0.4527564620101 1.0
C      1  0.4813958889650  0.5696846016480  0.6049186645302 1.0
C      1  0.5981934641263  0.7291371920976  0.3829703847702 1.0
C      1  0.7463892688829  0.3907721066891  0.5131520361451 1.0
C      1  0.7188703385383  0.6111616839546  0.6365782325001 1.0
C      1  0.5082792561576  0.4723164940336  0.5983898667898 1.0
C      1  0.5552010978631  0.5296694629538  0.4423305589619 1.0
C      1  0.6890813515552  0.3162804679075  0.5112371820457 1.0
C      1  0.7196549040945  0.5203821972668  0.6276748020016 1.0
C      1  0.6557132694522  0.6539526369657  0.3918965195662 1.0
C      1  0.6302461506908  0.5570680039568  0.3714115196419 1.0
C      1  0.3068889734077  0.4942396965621  0.3848756549037 1.0
C      1  0.4244404402725  0.5714688813549  0.2845690854411 1.0
C      1  0.4481226862351  0.6151482020946  0.5269246224467 1.0
C      1  0.2678568359138  0.5265752718366  0.4666580007587 1.0
C      1  0.6474471281147  0.3868809185790  0.3485190324554 1.0
C      1  0.2879478673979  0.6128573050177  0.7043107249276 1.0
C      1  0.6371261156358  0.3728362503040  0.6550405448782 1.0
C      1  0.6915764563531  0.7475019121860  0.5370308244977 1.0
C      1  0.5307626345402  0.2826036886298  0.3255797875329 1.0
C      1  0.3287372897383  0.4141669083573  0.5940173252457 1.0
C      1  0.4775132810929  0.2826672862625  0.6494691740965 1.0
C      1  0.4863396279679  0.4092888468486  0.7474454938901 1.0
C      1  0.2820644915235  0.5370952441094  0.7405562264865 1.0
C      1  0.6882504622276  0.4732252586636  0.3754263844254 1.0
C      1  0.3772587540034  0.3499752815653  0.3508709891379 1.0
C      1  0.3573859287279  0.6472348326873  0.6522839828172 1.0
C      1  0.5602472105796  0.5763551486608  0.3043319746933 1.0
C      1  0.2746450387317  0.4410528962442  0.5151960662519 1.0
END
