TITL C-78693-5763-4 -1.629 3375.00 -268.32933569 0 0 34 (C1) n - 1
REM
REM Run started: at 2020.12.04 17:19:46 in /rds/project/t2_vol4/rds-t2-cs072/BORA/CARBON/AIRSS/Generating-Clusters/Str-Search/Only-C1/C10-100
REM VASP from code version vasp.5.4.4.18Apr17-6-g9f103f2a35 (build Oct 11 2019 16:45:47) gamma-only
REM
REM
REM
REM
REM ./C.cell (67c5d0192afd7a3ce4a0888e5fe73b87)
REM AIRSS Version 0.9.1 bugfix July 2018 build 013d7b7c2542+ Fri, 06 Jul 2018 19:26:36 +0100
REM compiler GCC version 4.8.5 20150623 (Red Hat 4.8.5-39)
REM options -cpp -mtune=generic -march=x86-64 -g -O0
REM seed 829855380 -1582499648 -1890881596 -667637227 1690009886 -1562048414 -1187816381 -1853094873 -1705279617 -1532591266 -1136571962 1522830864
REM
REM C.POTCAR (d86ddea03c3ceb6dc662c8ad6801f873)
REM 
CELL 1.54180   15.00000   15.00000   15.00000   90.00000   90.00000   90.00000
LATT -1
SFAC C  
C      1  0.5742029518830  0.3288682738580  0.5757326519978 1.0
C      1  0.3933004382570  0.3898426075968  0.4199655906179 1.0
C      1  0.6267519246010  0.5590907041047  0.5619438543096 1.0
C      1  0.5344116296295  0.3641240338769  0.3449668828701 1.0
C      1  0.5627970465113  0.3957912865328  0.6395568808434 1.0
C      1  0.4876502757820  0.5714655295527  0.3431238103451 1.0
C      1  0.4959816038088  0.7155305644865  0.5610264300094 1.0
C      1  0.5804142398052  0.6899185075829  0.6146093854548 1.0
C      1  0.3953773271014  0.6044399249779  0.6243299895645 1.0
C      1  0.6082863668534  0.6474754690392  0.5279751735890 1.0
C      1  0.5780998500948  0.5687529839262  0.3154385320939 1.0
C      1  0.6578586306739  0.4634529588941  0.4244219542547 1.0
C      1  0.4480385030222  0.4076318077679  0.3427447940557 1.0
C      1  0.4741507381076  0.4794776172939  0.5332958580330 1.0
C      1  0.6355165870439  0.5310221455097  0.3640555187250 1.0
C      1  0.3196161710110  0.4577555325777  0.5784364227588 1.0
C      1  0.5303800241246  0.6767946534802  0.4778019858440 1.0
C      1  0.3655245528445  0.4889582111275  0.4244194161648 1.0
C      1  0.5167429203717  0.3060144245897  0.5034252374007 1.0
C      1  0.6369441000205  0.4025482054446  0.5798651261676 1.0
C      1  0.4837695527711  0.4546679191148  0.6281016626275 1.0
C      1  0.4740825050293  0.6163163447849  0.4271356923958 1.0
C      1  0.3212942929159  0.5522414361175  0.5892268635048 1.0
C      1  0.6158831247698  0.3855134400571  0.3907935228895 1.0
C      1  0.4214409439106  0.4997336836964  0.3337767066757 1.0
C      1  0.4054657640167  0.4131201099168  0.5784018590398 1.0
C      1  0.4170283533407  0.6862622285296  0.5894042206548 1.0
C      1  0.4318637018865  0.3546745192849  0.5010989128998 1.0
C      1  0.5608627060538  0.3141313915605  0.4196176986261 1.0
C      1  0.4406129271306  0.5395351133749  0.4730084122201 1.0
C      1  0.5670820163847  0.5930309019657  0.6360599321583 1.0
C      1  0.3024241288248  0.5135458129474  0.5017476182741 1.0
C      1  0.4800170648034  0.5524160280024  0.6502689220493 1.0
C      1  0.6561270366148  0.4758557284271  0.5242223808846 1.0
END
