TITL C-78693-5763-7 -2.491 3375.00 -415.93442475 0 0 52 (C1) n - 1
REM
REM Run started: at 2020.12.04 17:53:14 in /rds/project/t2_vol4/rds-t2-cs072/BORA/CARBON/AIRSS/Generating-Clusters/Str-Search/Only-C1/C10-100
REM VASP from code version vasp.5.4.4.18Apr17-6-g9f103f2a35 (build Oct 11 2019 16:45:47) gamma-only
REM
REM
REM
REM
REM ./C.cell (67c5d0192afd7a3ce4a0888e5fe73b87)
REM AIRSS Version 0.9.1 bugfix July 2018 build 013d7b7c2542+ Fri, 06 Jul 2018 19:26:36 +0100
REM compiler GCC version 4.8.5 20150623 (Red Hat 4.8.5-39)
REM options -cpp -mtune=generic -march=x86-64 -g -O0
REM seed -1521304051 239566327 -839460600 1120782356 903295333 -1906327601 -925077840 2142583254 -137719188 -1786241318 -963391021 -1284156255
REM
REM C.POTCAR (d86ddea03c3ceb6dc662c8ad6801f873)
REM 
CELL 1.54180   15.00000   15.00000   15.00000   90.00000   90.00000   90.00000
LATT -1
SFAC C  
C      1  0.3427790434575  0.6623903260763  0.5932082356960 1.0
C      1  0.3506662213875  0.4482040038530  0.3313767039679 1.0
C      1  0.4793788662785  0.2488676688314  0.5162023733525 1.0
C      1  0.4951696996101  0.6067775261895  0.7139568264845 1.0
C      1  0.4914322809459  0.5121604261330  0.7224536153209 1.0
C      1  0.6852823750651  0.3079403753775  0.5270208862589 1.0
C      1  0.3725017813551  0.5363294673518  0.3777762073972 1.0
C      1  0.5774449457837  0.6355731940593  0.6835481911402 1.0
C      1  0.7062068530496  0.3891826833150  0.5687336013791 1.0
C      1  0.3654645625848  0.7227985395333  0.6648295871455 1.0
C      1  0.4199546017414  0.4566571814332  0.7048949592558 1.0
C      1  0.3285654603155  0.3861623904927  0.4010065324013 1.0
C      1  0.4891371923410  0.3572424295513  0.2999612133753 1.0
C      1  0.3465979120029  0.4776493737455  0.6473179461270 1.0
C      1  0.4989097783631  0.6198168680210  0.3210068724228 1.0
C      1  0.6352016920798  0.6117584450847  0.6216591762646 1.0
C      1  0.5328945750123  0.2698065413738  0.4405795981448 1.0
C      1  0.5353981652827  0.3710639291916  0.6145314796712 1.0
C      1  0.4271176666031  0.5721014807998  0.5143459651965 1.0
C      1  0.7055254791275  0.5574454936658  0.4892687172807 1.0
C      1  0.6828149695561  0.5182431518668  0.3388907387422 1.0
C      1  0.6557521355908  0.5819772702307  0.2926546499560 1.0
C      1  0.6069546247249  0.3849866642792  0.5484970955610 1.0
C      1  0.3864018952475  0.2712576379220  0.4992345261049 1.0
C      1  0.3468441040230  0.5736369868823  0.6437624001847 1.0
C      1  0.4741827139849  0.5214173603327  0.3473123566463 1.0
C      1  0.7230165969747  0.4620128029748  0.6195221193191 1.0
C      1  0.4410158706337  0.4350378603662  0.2995246356192 1.0
C      1  0.6631327573148  0.6383863143751  0.4680258413590 1.0
C      1  0.4031100349621  0.6384859428425  0.6944600090289 1.0
C      1  0.7020772444314  0.5454005326176  0.5872066925188 1.0
C      1  0.4557270808614  0.7171508879281  0.4535439503295 1.0
C      1  0.5904262535858  0.6436408039225  0.3223695847064 1.0
C      1  0.6056332080368  0.4274588357608  0.4520110740594 1.0
C      1  0.3823209977335  0.6626776669252  0.4996610515141 1.0
C      1  0.3662633556741  0.5106681371659  0.4713918351296 1.0
C      1  0.3184609306761  0.4356347485662  0.4884686032602 1.0
C      1  0.6133998504362  0.3238872322946  0.4607618067628 1.0
C      1  0.4704526633400  0.3006064437305  0.3713647880217 1.0
C      1  0.4724682442449  0.3042732193274  0.5942084253894 1.0
C      1  0.3534089722600  0.6362097015025  0.3932350737496 1.0
C      1  0.4348627869166  0.6763219190777  0.3678923228141 1.0
C      1  0.5068848833878  0.4288094548829  0.6819038695655 1.0
C      1  0.3792640308299  0.3063114508576  0.4121024826278 1.0
C      1  0.3739012385515  0.3220472647281  0.5814750378496 1.0
C      1  0.3299507326978  0.4060703338363  0.5812704902393 1.0
C      1  0.5449400333003  0.7124021807230  0.4745225815378 1.0
C      1  0.6844432958769  0.4867324685968  0.4268188579615 1.0
C      1  0.5846362923789  0.6372633429732  0.5320319752233 1.0
C      1  0.5169669284320  0.5590220153902  0.5031128644013 1.0
C      1  0.6137695001014  0.6899762611112  0.4062017366896 1.0
C      1  0.5308868208471  0.4920645619297  0.4328816348445 1.0
END
