TITL C-78693-5763-21 -0.874 3375.00 -143.43263145 0 0 18 (C1) n - 1
REM
REM Run started: at 2020.12.04 22:55:25 in /rds/project/t2_vol4/rds-t2-cs072/BORA/CARBON/AIRSS/Generating-Clusters/Str-Search/Only-C1/C10-100
REM VASP from code version vasp.5.4.4.18Apr17-6-g9f103f2a35 (build Oct 11 2019 16:45:47) gamma-only
REM
REM
REM
REM
REM ./C.cell (67c5d0192afd7a3ce4a0888e5fe73b87)
REM AIRSS Version 0.9.1 bugfix July 2018 build 013d7b7c2542+ Fri, 06 Jul 2018 19:26:36 +0100
REM compiler GCC version 4.8.5 20150623 (Red Hat 4.8.5-39)
REM options -cpp -mtune=generic -march=x86-64 -g -O0
REM seed 185681545 -998218230 -1473346504 1425846784 650685473 206134976 -1914960921 -2053758202 1192514752 -326216686 119240894 -1447682022
REM
REM C.POTCAR (d86ddea03c3ceb6dc662c8ad6801f873)
REM 
CELL 1.54180   15.00000   15.00000   15.00000   90.00000   90.00000   90.00000
LATT -1
SFAC C  
C      1  0.6304585954851  0.4604410409766  0.4527382045302 1.0
C      1  0.9529271773941  0.5240170935290  0.5467682608944 1.0
C      1  0.7902452076747  0.4973101966295  0.5007091229157 1.0
C      1  0.1881282968779  0.4714452882086  0.5285157892489 1.0
C      1  0.8672600367992  0.5119096656250  0.5270062707746 1.0
C      1  0.4051063392202  0.3722299435412  0.4770705326845 1.0
C      1  0.0340576576808  0.5328707897806  0.5558401446531 1.0
C      1  0.3248016003128  0.5676623816563  0.5023074202639 1.0
C      1  0.7078174575118  0.4798255350679  0.4737361658140 1.0
C      1  0.4802431419336  0.5269644284966  0.4433579128514 1.0
C      1  0.2638060653549  0.6323675959945  0.5253291915841 1.0
C      1  0.1265010380011  0.5394571909016  0.5501543218022 1.0
C      1  0.1817808324291  0.6137611091737  0.5446575297392 1.0
C      1  0.3282589285739  0.4001739922902  0.4992381206880 1.0
C      1  0.4880374290467  0.3738294075872  0.4493250613774 1.0
C      1  0.5394408426564  0.4516470654868  0.4423812983689 1.0
C      1  0.4122700661852  0.5659446235611  0.4678805843764 1.0
C      1  0.2788590868627  0.4781423514938  0.5129840674331 1.0
END
