TITL C-79722-4368-23 -4.211 3375.00 -726.82982142 0 0 89 (C1) n - 1
REM
REM Run started: at 2020.12.04 23:09:06 in /rds/project/t2_vol4/rds-t2-cs072/BORA/CARBON/AIRSS/Generating-Clusters/Str-Search/Only-C1/C10-100
REM VASP from code version vasp.5.4.4.18Apr17-6-g9f103f2a35 (build Oct 11 2019 16:45:47) gamma-only
REM
REM
REM
REM
REM ./C.cell (67c5d0192afd7a3ce4a0888e5fe73b87)
REM AIRSS Version 0.9.1 bugfix July 2018 build 013d7b7c2542+ Fri, 06 Jul 2018 19:26:36 +0100
REM compiler GCC version 4.8.5 20150623 (Red Hat 4.8.5-39)
REM options -cpp -mtune=generic -march=x86-64 -g -O0
REM seed 2038056242 -506173441 1046988982 884757059 1996004045 1437410092 -1084132925 874552188 1873646005 -1264617080 -1801548767 -895356519
REM
REM C.POTCAR (d86ddea03c3ceb6dc662c8ad6801f873)
REM 
CELL 1.54180   15.00000   15.00000   15.00000   90.00000   90.00000   90.00000
LATT -1
SFAC C  
C      1  0.3800960629201  0.6111989458802  0.6755103209118 1.0
C      1  0.3141166080734  0.6654792309747  0.4016935276750 1.0
C      1  0.3766577870685  0.7206244174009  0.5499955456844 1.0
C      1  0.3657861496040  0.3385514615399  0.7050351471760 1.0
C      1  0.2893752214977  0.5289803317072  0.3240714554652 1.0
C      1  0.4406277629563  0.6104652993261  0.2807063853921 1.0
C      1  0.5925534578311  0.5666936159592  0.2636330751505 1.0
C      1  0.6389181059248  0.5931317263197  0.4599015183079 1.0
C      1  0.6000389730270  0.2770020407241  0.4843203919403 1.0
C      1  0.4958092005642  0.4702234595123  0.7546406777041 1.0
C      1  0.2555496757828  0.6133643179502  0.4538828313336 1.0
C      1  0.4041728141063  0.3164576587653  0.5604158108226 1.0
C      1  0.7975283798513  0.4276246581713  0.5002517936061 1.0
C      1  0.7045865348276  0.5282999423862  0.7510108412631 1.0
C      1  0.3875671012716  0.4329067344702  0.4493413298750 1.0
C      1  0.3028281684582  0.3970861628925  0.3970870712241 1.0
C      1  0.3497789650240  0.6058831309788  0.3267868525529 1.0
C      1  0.6137240696736  0.3666143730347  0.6560568660251 1.0
C      1  0.5284493683018  0.3854021066880  0.7170612840717 1.0
C      1  0.2507414192829  0.5492696496653  0.7517406208167 1.0
C      1  0.6214001797241  0.5692884867611  0.6118721983251 1.0
C      1  0.5393036854672  0.7597638630830  0.5453366495041 1.0
C      1  0.5405470621042  0.4622185978519  0.4135095261572 1.0
C      1  0.4758009885958  0.4477657336122  0.2312244555917 1.0
C      1  0.6913893010325  0.3875972493604  0.3465007609603 1.0
C      1  0.3881277162024  0.4069823234887  0.2541765296234 1.0
C      1  0.2306451779047  0.4490161283120  0.4444359004712 1.0
C      1  0.3249420219596  0.3204854737596  0.6219581841402 1.0
C      1  0.8141870011282  0.5172129924792  0.4813971302064 1.0
C      1  0.4533459263444  0.4856819695487  0.4045836369837 1.0
C      1  0.5835042354243  0.6541039624947  0.3107797295792 1.0
C      1  0.4996926367719  0.5382077916077  0.2383981885236 1.0
C      1  0.3773055715681  0.2630896122912  0.3520904681568 1.0
C      1  0.4747660328671  0.2507295714922  0.3678685836696 1.0
C      1  0.2608848483572  0.6000218124294  0.5507180398002 1.0
C      1  0.7188021660339  0.4444453549888  0.7330675207935 1.0
C      1  0.6839805153043  0.7584151930371  0.6432424891151 1.0
C      1  0.6592854450255  0.4998860766095  0.2706420356009 1.0
C      1  0.4899460855040  0.2745758126281  0.6116765181999 1.0
C      1  0.5435575341906  0.3771598123698  0.2544641008735 1.0
C      1  0.4814425409916  0.6136283094725  0.6687196003890 1.0
C      1  0.4630674904041  0.3202408492367  0.6938278551785 1.0
C      1  0.6092133186615  0.4240591759500  0.4758203441358 1.0
C      1  0.4501946797786  0.2372591217584  0.5294127418942 1.0
C      1  0.4205802495037  0.4117139133286  0.5326667149898 1.0
C      1  0.7587714814878  0.7207979314729  0.6294562782767 1.0
C      1  0.2207074140768  0.5168865343468  0.5881051548450 1.0
C      1  0.2361631245562  0.5330235703727  0.4046429409195 1.0
C      1  0.5444693957626  0.7183889205970  0.4540586646353 1.0
C      1  0.2177279344463  0.4344653014457  0.5372716680449 1.0
C      1  0.4692424693845  0.7372465396862  0.3906911203677 1.0
C      1  0.5358962537350  0.5558106175542  0.7372782046021 1.0
C      1  0.7906968874410  0.5358691349944  0.3886295020381 1.0
C      1  0.4643224814145  0.6484508999462  0.4428088841841 1.0
C      1  0.3861158330759  0.7117894588785  0.4492569125515 1.0
C      1  0.6277236772581  0.5594878911163  0.7087575624085 1.0
C      1  0.4979404907624  0.6890441727989  0.3052170654644 1.0
C      1  0.7346188170447  0.4766516488014  0.3356405880865 1.0
C      1  0.2597397320357  0.2853313357836  0.4858515700663 1.0
C      1  0.6298092692148  0.4063240487586  0.2748141078541 1.0
C      1  0.2172721077409  0.5213832455136  0.6801148742181 1.0
C      1  0.3071764603718  0.2947792321353  0.4097578704305 1.0
C      1  0.5106142297264  0.7101006722673  0.6502537683582 1.0
C      1  0.8114523951475  0.6599765896002  0.5938640511165 1.0
C      1  0.3475486872796  0.5549300889345  0.7435369644782 1.0
C      1  0.7746218360567  0.6277110325270  0.3716938118533 1.0
C      1  0.6837234974002  0.5857116916500  0.5462954151866 1.0
C      1  0.3410268968945  0.4031751797502  0.7680623909808 1.0
C      1  0.7838001577086  0.5878719211834  0.5473087613967 1.0
C      1  0.3993008913687  0.4760684082368  0.7696749002599 1.0
C      1  0.7233289645530  0.6913279198825  0.3883774306198 1.0
C      1  0.5159909003016  0.2463687182102  0.4543290218459 1.0
C      1  0.5760912930405  0.4092062984097  0.5675243848912 1.0
C      1  0.5957638115137  0.7544480551281  0.6258466502715 1.0
C      1  0.4373187980249  0.5764043037312  0.3776895800130 1.0
C      1  0.3298649767435  0.6487555056839  0.5988203599668 1.0
C      1  0.4521156654231  0.7557979388417  0.5885859040896 1.0
C      1  0.4945232004066  0.4647517279968  0.5742133353164 1.0
C      1  0.5775152529707  0.3071492456497  0.5812580416661 1.0
C      1  0.4977748927792  0.2994400541270  0.2847569158826 1.0
C      1  0.5221008719001  0.5526689271385  0.5946855846752 1.0
C      1  0.3160580691491  0.4419134912921  0.3060110020898 1.0
C      1  0.2510622222851  0.3443081723126  0.5603183726069 1.0
C      1  0.6693021884897  0.3469314430489  0.4413339072044 1.0
C      1  0.6247988180957  0.6750766979542  0.4026701712206 1.0
C      1  0.4043035913384  0.3176364351758  0.2757309731945 1.0
C      1  0.7582680795687  0.3556199415945  0.4861468764566 1.0
C      1  0.6142100046682  0.5120869173289  0.4349208067546 1.0
C      1  0.7043077404609  0.3700239858435  0.6922043987500 1.0
END
