TITL C-79722-4368-15 -2.71 3375.00 -449.43710311 0 0 55 (C1) n - 1
REM
REM Run started: at 2020.12.04 20:23:32 in /rds/project/t2_vol4/rds-t2-cs072/BORA/CARBON/AIRSS/Generating-Clusters/Str-Search/Only-C1/C10-100
REM VASP from code version vasp.5.4.4.18Apr17-6-g9f103f2a35 (build Oct 11 2019 16:45:47) gamma-only
REM
REM
REM
REM
REM ./C.cell (67c5d0192afd7a3ce4a0888e5fe73b87)
REM AIRSS Version 0.9.1 bugfix July 2018 build 013d7b7c2542+ Fri, 06 Jul 2018 19:26:36 +0100
REM compiler GCC version 4.8.5 20150623 (Red Hat 4.8.5-39)
REM options -cpp -mtune=generic -march=x86-64 -g -O0
REM seed -1281436172 2053190265 2101569448 -759356711 1202352025 1853800928 560778586 -673728156 -1821905845 -1378919608 1872084535 -1429941796
REM
REM C.POTCAR (d86ddea03c3ceb6dc662c8ad6801f873)
REM 
CELL 1.54180   15.00000   15.00000   15.00000   90.00000   90.00000   90.00000
LATT -1
SFAC C  
C      1  0.3536682615069  0.5656311419038  0.6666132228819 1.0
C      1  0.3579964445686  0.5782757123458  0.4217437702809 1.0
C      1  0.3981263415810  0.6104831374721  0.3427318130855 1.0
C      1  0.7265403583420  0.4872957412149  0.4678447633485 1.0
C      1  0.6540319792906  0.6292688984438  0.6280328685733 1.0
C      1  0.3754787306392  0.4617981784880  0.2787004199749 1.0
C      1  0.4099409764801  0.7105294164788  0.5043787983353 1.0
C      1  0.5858692788154  0.6678582825277  0.6860971530500 1.0
C      1  0.7086051543921  0.5733018898812  0.4248602015446 1.0
C      1  0.5129660832540  0.7118695315213  0.6450004643682 1.0
C      1  0.6290427708314  0.3400500930505  0.6438293541688 1.0
C      1  0.5385638419562  0.7460468375517  0.4742604636782 1.0
C      1  0.4554125615351  0.7354039990454  0.4253676635487 1.0
C      1  0.4286920484151  0.5829596376802  0.7275949769483 1.0
C      1  0.5171004310654  0.4497871338859  0.5211272240224 1.0
C      1  0.4579257304377  0.4148842323937  0.2539508637493 1.0
C      1  0.3416468323266  0.4157095195619  0.6148597747608 1.0
C      1  0.4744063137562  0.3148419886355  0.6146849039382 1.0
C      1  0.4696191653084  0.3347450238596  0.4439783188485 1.0
C      1  0.5079850437571  0.5077486937029  0.2702915541673 1.0
C      1  0.7005596201289  0.4414224362838  0.3828638136085 1.0
C      1  0.5163214552682  0.3043951544142  0.3606217294005 1.0
C      1  0.5098252474570  0.3510370409734  0.5314673479220 1.0
C      1  0.4221194632561  0.4885105105225  0.7576674457406 1.0
C      1  0.4772434514497  0.4236902436942  0.7924634123477 1.0
C      1  0.4510190047502  0.4359979273093  0.4542166779618 1.0
C      1  0.3292986251215  0.4217793584408  0.3519979591616 1.0
C      1  0.3262557610302  0.4770030086676  0.5415497909590 1.0
C      1  0.5565417401765  0.6464794995866  0.3512756043543 1.0
C      1  0.5423813545901  0.3218661568854  0.6805718457931 1.0
C      1  0.3398905002264  0.5686846919949  0.5742417530273 1.0
C      1  0.6060204440851  0.3068594914116  0.3526111751458 1.0
C      1  0.6808731078173  0.6524336016035  0.4673216806946 1.0
C      1  0.3442574926418  0.2863951320041  0.5209045361519 1.0
C      1  0.5814792459470  0.5573845988073  0.3137587414622 1.0
C      1  0.6930090058783  0.6702556714785  0.5578638997879 1.0
C      1  0.7007700905996  0.4693932363191  0.5558816752982 1.0
C      1  0.4892167770574  0.7369048861588  0.5601719673091 1.0
C      1  0.4656355149562  0.6766645299142  0.3536071959034 1.0
C      1  0.4971024771387  0.6431924774951  0.7112277305627 1.0
C      1  0.3760918775183  0.3250863361508  0.5988689983013 1.0
C      1  0.3519795890439  0.4766200356003  0.4401661834616 1.0
C      1  0.6664342647721  0.5280665924073  0.3501202403174 1.0
C      1  0.5507403143193  0.5170369354202  0.5708251314195 1.0
C      1  0.3730022535233  0.2936578106904  0.4377315771063 1.0
C      1  0.6706407518472  0.3589004223955  0.3652915814805 1.0
C      1  0.6024116424451  0.6923037981044  0.4274563235934 1.0
C      1  0.6789058989352  0.3872091138018  0.5970719261389 1.0
C      1  0.3614712565125  0.3310936252529  0.3497745454392 1.0
C      1  0.6344704118691  0.5369411564420  0.5958856067325 1.0
C      1  0.3604644235252  0.6284290139376  0.5032653744573 1.0
C      1  0.4196498737001  0.5442639342960  0.2817039884276 1.0
C      1  0.3535318494744  0.4718794805971  0.6921060010991 1.0
C      1  0.4493619882556  0.3327624576123  0.2979948246383 1.0
C      1  0.5174049764231  0.3569105436818  0.7635034415213 1.0
END
