TITL C-79722-4368-22 -3.382 3375.00 -591.77432107 0 0 71 (C1) n - 1
REM
REM Run started: at 2020.12.04 22:19:01 in /rds/project/t2_vol4/rds-t2-cs072/BORA/CARBON/AIRSS/Generating-Clusters/Str-Search/Only-C1/C10-100
REM VASP from code version vasp.5.4.4.18Apr17-6-g9f103f2a35 (build Oct 11 2019 16:45:47) gamma-only
REM
REM
REM
REM
REM ./C.cell (67c5d0192afd7a3ce4a0888e5fe73b87)
REM AIRSS Version 0.9.1 bugfix July 2018 build 013d7b7c2542+ Fri, 06 Jul 2018 19:26:36 +0100
REM compiler GCC version 4.8.5 20150623 (Red Hat 4.8.5-39)
REM options -cpp -mtune=generic -march=x86-64 -g -O0
REM seed -1482213547 131037213 -1436135542 126187020 439712974 1089270367 388262509 -1224237057 -754885072 1201335208 168244318 -1249989807
REM
REM C.POTCAR (d86ddea03c3ceb6dc662c8ad6801f873)
REM 
CELL 1.54180   15.00000   15.00000   15.00000   90.00000   90.00000   90.00000
LATT -1
SFAC C  
C      1  0.3637516551989  0.5392358374156  0.7227022025615 1.0
C      1  0.4863672805128  0.7224351764379  0.3772632932271 1.0
C      1  0.6852146708839  0.4141821772307  0.6133933908840 1.0
C      1  0.3026853868526  0.5482323932644  0.6493557620545 1.0
C      1  0.6293593877374  0.3812126781783  0.3290523608332 1.0
C      1  0.5154126826989  0.4254042795118  0.4746500556194 1.0
C      1  0.2782362314899  0.3547552052369  0.4967619472299 1.0
C      1  0.4772973998216  0.4516117618969  0.2708728071127 1.0
C      1  0.3374762860594  0.7017515880415  0.5569442133214 1.0
C      1  0.5585026354485  0.2637744538507  0.4067513273551 1.0
C      1  0.3110103769897  0.3151751091716  0.5767135838810 1.0
C      1  0.5966279411620  0.4141463395309  0.6672661497161 1.0
C      1  0.4494953280543  0.3169929603010  0.6514720183792 1.0
C      1  0.5146683765623  0.4928745900390  0.5412919076727 1.0
C      1  0.5877290685777  0.2972677477650  0.5613146508837 1.0
C      1  0.7405822312284  0.4235740449015  0.4338982702767 1.0
C      1  0.3333815230493  0.6301778300718  0.3502071254934 1.0
C      1  0.3209531945932  0.3425651064215  0.4106529283685 1.0
C      1  0.6748212374227  0.7080160621109  0.4995398813947 1.0
C      1  0.5588869522477  0.4930517571276  0.6183582036737 1.0
C      1  0.5912823596275  0.5653967702003  0.6806993552244 1.0
C      1  0.6700154638842  0.6727587836653  0.5897018429389 1.0
C      1  0.6845457978176  0.3367757498442  0.5595593322082 1.0
C      1  0.4355049817892  0.2491828856411  0.4948308956195 1.0
C      1  0.2728917058599  0.4647076951460  0.6103744937411 1.0
C      1  0.5578536073383  0.6910841034794  0.3251396315367 1.0
C      1  0.2946077346691  0.6263426601803  0.5933673319067 1.0
C      1  0.7056400573479  0.5363287257038  0.3351423797173 1.0
C      1  0.5406043563012  0.3330322811005  0.6402622869586 1.0
C      1  0.4091795617784  0.6829054818655  0.3398209095842 1.0
C      1  0.6391787253791  0.3178913907944  0.4030260354284 1.0
C      1  0.7126689858278  0.3422341270594  0.4672278373847 1.0
C      1  0.5016917310862  0.7359190830998  0.4753390906693 1.0
C      1  0.2818283622525  0.6473464562261  0.5016698883478 1.0
C      1  0.4780324519522  0.6485083333196  0.5308334678974 1.0
C      1  0.2912017779013  0.5006844807545  0.4366179246579 1.0
C      1  0.5038067127116  0.6934676972159  0.6212583534945 1.0
C      1  0.4509856854629  0.5825514365345  0.7454116225339 1.0
C      1  0.3858239398436  0.3779063012569  0.6984397581446 1.0
C      1  0.4819855962024  0.5509609585357  0.2612050232555 1.0
C      1  0.5345836305702  0.3781418314982  0.2976980676179 1.0
C      1  0.5916147838922  0.7620812408014  0.5126512739924 1.0
C      1  0.5741679533868  0.4824140601948  0.7409551745489 1.0
C      1  0.4488366221313  0.5602816417588  0.5181607870965 1.0
C      1  0.5906316506909  0.7331136737978  0.6016702825940 1.0
C      1  0.4424267668335  0.4472962436194  0.4222617569190 1.0
C      1  0.4301726305017  0.7315073993561  0.5569330032159 1.0
C      1  0.4067293729107  0.4436093353700  0.3361938419401 1.0
C      1  0.4876667401378  0.3007215684126  0.3510759087185 1.0
C      1  0.6535454738969  0.6805824385942  0.3400065467748 1.0
C      1  0.6986972353375  0.4428889106518  0.3459149285326 1.0
C      1  0.3130682732344  0.4262353781479  0.3644123307092 1.0
C      1  0.2758680440150  0.6008914969589  0.4189860337930 1.0
C      1  0.5662469571925  0.3477837454450  0.4742598800397 1.0
C      1  0.3884093739771  0.5114669797424  0.4650033221184 1.0
C      1  0.5563772441261  0.6091887725629  0.2682113089840 1.0
C      1  0.4889925837501  0.4957427553313  0.7738921706924 1.0
C      1  0.2580296022458  0.4470545358569  0.5158008335149 1.0
C      1  0.6523565015540  0.5994436438102  0.2902416839136 1.0
C      1  0.7143100740943  0.5042230178523  0.5783595618739 1.0
C      1  0.7348453481911  0.5756016679587  0.4192176183954 1.0
C      1  0.7456337068318  0.5058976903773  0.4866024175464 1.0
C      1  0.3958577532324  0.2754704456142  0.5772489818998 1.0
C      1  0.4055440353995  0.2872170844948  0.4073668247349 1.0
C      1  0.7012866951769  0.6661905733900  0.4223111911283 1.0
C      1  0.6752236865207  0.5857887127505  0.6237757128338 1.0
C      1  0.4036632325873  0.6048999838522  0.2884905743704 1.0
C      1  0.3075177846685  0.3820132904019  0.6454826877486 1.0
C      1  0.5110989677644  0.6277791595187  0.6935296119639 1.0
C      1  0.5310394084821  0.2376696940625  0.4968219850511 1.0
C      1  0.4037688250425  0.4543806276880  0.7480743555496 1.0
END
