TITL C-79722-4368-34 -4.224 3375.00 -722.07555628 0 0 90 (C1) n - 1
REM
REM Run started: at 2020.12.05 02:37:08 in /rds/project/t2_vol4/rds-t2-cs072/BORA/CARBON/AIRSS/Generating-Clusters/Str-Search/Only-C1/C10-100
REM VASP from code version vasp.5.4.4.18Apr17-6-g9f103f2a35 (build Oct 11 2019 16:45:47) gamma-only
REM
REM
REM
REM
REM ./C.cell (67c5d0192afd7a3ce4a0888e5fe73b87)
REM AIRSS Version 0.9.1 bugfix July 2018 build 013d7b7c2542+ Fri, 06 Jul 2018 19:26:36 +0100
REM compiler GCC version 4.8.5 20150623 (Red Hat 4.8.5-39)
REM options -cpp -mtune=generic -march=x86-64 -g -O0
REM seed -450468266 800796802 -1923060661 -1896008276 -649717421 936507823 495360862 -1851309138 -305559421 293295882 737787974 906638958
REM
REM C.POTCAR (d86ddea03c3ceb6dc662c8ad6801f873)
REM 
CELL 1.54180   15.00000   15.00000   15.00000   90.00000   90.00000   90.00000
LATT -1
SFAC C  
C      1  0.4239614078487  0.3261666180335  0.6935369018764 1.0
C      1  0.2079431360085  0.5864057056353  0.5753247516129 1.0
C      1  0.3905489265425  0.2632103589258  0.6255880854784 1.0
C      1  0.3537193229727  0.6828545644556  0.5054104793067 1.0
C      1  0.2148183790191  0.6040564352657  0.4837335511094 1.0
C      1  0.2460329199755  0.4397392559600  0.3316363016047 1.0
C      1  0.5387255994693  0.7426745088126  0.3356688782683 1.0
C      1  0.6796090172561  0.4943882531147  0.7069130803523 1.0
C      1  0.2217620590211  0.4261158806050  0.5064718591585 1.0
C      1  0.6717294660432  0.3346780618097  0.3230984438752 1.0
C      1  0.2789102768400  0.6031240914289  0.6343820156963 1.0
C      1  0.5610864444682  0.5168207476819  0.3488429670438 1.0
C      1  0.5990020186018  0.2547734227678  0.6688680231262 1.0
C      1  0.2874207887517  0.6461423679879  0.4448716476451 1.0
C      1  0.2883474083920  0.5230771503160  0.3197399420323 1.0
C      1  0.5689844218336  0.6230773449480  0.7199669263094 1.0
C      1  0.6428558579917  0.5182852786328  0.5243681493058 1.0
C      1  0.4022370750702  0.6341696183674  0.3091813995468 1.0
C      1  0.4985789298687  0.6133162105411  0.7873677163327 1.0
C      1  0.7120275486186  0.3361262000277  0.4613481000228 1.0
C      1  0.4105522838016  0.4492271620243  0.3737190671361 1.0
C      1  0.4022732095951  0.4104077625504  0.6465435620888 1.0
C      1  0.3466489069319  0.6651295646429  0.6004819274461 1.0
C      1  0.4737999668841  0.2006908590894  0.3866433431388 1.0
C      1  0.5937589594902  0.7662587026697  0.5049430064963 1.0
C      1  0.5196263333345  0.6405880652689  0.4705238782562 1.0
C      1  0.7248915460574  0.5117632670419  0.4724471975612 1.0
C      1  0.2550058137311  0.4063351264583  0.4210143000849 1.0
C      1  0.4245346158863  0.5606703250153  0.2464271715282 1.0
C      1  0.1897497264950  0.5153998279622  0.5154539252739 1.0
C      1  0.6157008022737  0.4237721748384  0.7308562358755 1.0
C      1  0.4182930783240  0.6371914583156  0.7442815648690 1.0
C      1  0.7725750344730  0.4167177774649  0.5978036015276 1.0
C      1  0.3061661449219  0.4386816190166  0.6477376449400 1.0
C      1  0.5328971436505  0.2651404878994  0.4225289019029 1.0
C      1  0.6980350673212  0.5547664353700  0.2662865106355 1.0
C      1  0.4913881827970  0.5362351205086  0.5967334346290 1.0
C      1  0.5658258710260  0.8371025833368  0.5520140123270 1.0
C      1  0.4979130541579  0.3468409325168  0.7453738574723 1.0
C      1  0.4074390077322  0.1452584404271  0.3942571538937 1.0
C      1  0.6868805680677  0.7067128090647  0.3728423481864 1.0
C      1  0.5084041512665  0.8226266155650  0.6187844657858 1.0
C      1  0.5450073567607  0.2142508410883  0.6200055130275 1.0
C      1  0.3159364578619  0.3837374264497  0.2858891940616 1.0
C      1  0.5931153300366  0.3299777831265  0.7253514827266 1.0
C      1  0.4486161993599  0.7841221869798  0.6628193203589 1.0
C      1  0.6283264936637  0.3035333847483  0.4126298977285 1.0
C      1  0.5642476162068  0.4805911406821  0.5485804236899 1.0
C      1  0.5193748573119  0.4468887133367  0.7521285490502 1.0
C      1  0.3888102629006  0.5440695579549  0.7363036217237 1.0
C      1  0.7557916946937  0.4769788183850  0.3921654636249 1.0
C      1  0.3054838938464  0.5259398864368  0.6885985399240 1.0
C      1  0.6136459294960  0.7621082671619  0.4062940627570 1.0
C      1  0.5200803090544  0.6356526407508  0.6272897783486 1.0
C      1  0.4860865084150  0.5310770993709  0.1866963692437 1.0
C      1  0.7502683308531  0.5617961848903  0.3414401448617 1.0
C      1  0.2654697914998  0.3813016273559  0.5828645154001 1.0
C      1  0.6356443436201  0.3540369562746  0.2421661886443 1.0
C      1  0.5473800142831  0.3633613395421  0.4240207851275 1.0
C      1  0.5624181027448  0.5978838045953  0.3903463079435 1.0
C      1  0.6158479281810  0.5212763979670  0.2643442038849 1.0
C      1  0.5252946652943  0.4042044177037  0.5112052542681 1.0
C      1  0.4703609910415  0.5197566759800  0.8035977018392 1.0
C      1  0.3450674568381  0.3692482167203  0.3994163281729 1.0
C      1  0.3903645364603  0.5252631177146  0.4357354808170 1.0
C      1  0.4385811903521  0.6892313009586  0.4545774879814 1.0
C      1  0.4614915523475  0.2206111595979  0.5775956833085 1.0
C      1  0.5601026262388  0.4801064804709  0.1903702517948 1.0
C      1  0.5793845844438  0.6670786277722  0.5460752391673 1.0
C      1  0.5093683913956  0.4359579058382  0.3704721040825 1.0
C      1  0.4512467230213  0.2450212483625  0.4822894690379 1.0
C      1  0.4488873186953  0.7044514270967  0.3549857755003 1.0
C      1  0.4302699760151  0.4046079030704  0.5379570013196 1.0
C      1  0.3682755277382  0.4799718828715  0.2830597454387 1.0
C      1  0.4137180625772  0.5056880191934  0.5224845289734 1.0
C      1  0.6444533180706  0.5773778646838  0.7223513981826 1.0
C      1  0.7508138744575  0.4965369643657  0.6395896095526 1.0
C      1  0.3335853311801  0.5929325427267  0.3752292719304 1.0
C      1  0.3232881439779  0.3044419604678  0.5646568595286 1.0
C      1  0.6040278403929  0.6727003377267  0.3392830502045 1.0
C      1  0.3824393082442  0.3224323653363  0.4836381340069 1.0
C      1  0.4276906540002  0.6869953642749  0.6588154148651 1.0
C      1  0.7443725245461  0.3575951167891  0.5437989597775 1.0
C      1  0.7532710733091  0.5910794245274  0.5972900401244 1.0
C      1  0.5967694841772  0.3933016619011  0.1772681959377 1.0
C      1  0.6631772421678  0.6097353463360  0.5514339074902 1.0
C      1  0.7332487946061  0.3849111423381  0.3791378503729 1.0
C      1  0.7494342118545  0.6053571118567  0.4947312547428 1.0
C      1  0.7507548779020  0.6426502742611  0.4010989327299 1.0
C      1  0.4580474250532  0.4854509895962  0.6779039759658 1.0
END
