TITL C-79722-4368-28 -2.825 3375.00 -462.45033927 0 0 58 (C1) n - 1
REM
REM Run started: at 2020.12.05 00:24:53 in /rds/project/t2_vol4/rds-t2-cs072/BORA/CARBON/AIRSS/Generating-Clusters/Str-Search/Only-C1/C10-100
REM VASP from code version vasp.5.4.4.18Apr17-6-g9f103f2a35 (build Oct 11 2019 16:45:47) gamma-only
REM
REM
REM
REM
REM ./C.cell (67c5d0192afd7a3ce4a0888e5fe73b87)
REM AIRSS Version 0.9.1 bugfix July 2018 build 013d7b7c2542+ Fri, 06 Jul 2018 19:26:36 +0100
REM compiler GCC version 4.8.5 20150623 (Red Hat 4.8.5-39)
REM options -cpp -mtune=generic -march=x86-64 -g -O0
REM seed 364607088 1479383911 1504088294 -963753246 -1312489893 2082377269 1364994456 311067031 2009646430 55997866 805250356 -590070475
REM
REM C.POTCAR (d86ddea03c3ceb6dc662c8ad6801f873)
REM 
CELL 1.54180   15.00000   15.00000   15.00000   90.00000   90.00000   90.00000
LATT -1
SFAC C  
C      1  0.4160770037013  0.2881490002953  0.3352857363401 1.0
C      1  0.4595900146274  0.3619470963342  0.2941052115415 1.0
C      1  0.5612803135849  0.3670978214825  0.2905083035364 1.0
C      1  0.3838170650442  0.5295180758576  0.7445082189845 1.0
C      1  0.3147466294000  0.4308528052685  0.4701783055535 1.0
C      1  0.3428962988631  0.4711617178329  0.3844895326820 1.0
C      1  0.3253973363137  0.5596206965823  0.3641344503405 1.0
C      1  0.3464963870537  0.2831060679772  0.3977490995030 1.0
C      1  0.6693728657698  0.6724655537005  0.4729413487708 1.0
C      1  0.4661280048537  0.5467115239778  0.5300797084400 1.0
C      1  0.7043063325708  0.3048934194098  0.5223190686446 1.0
C      1  0.5135123153619  0.4122876594790  0.6891535786173 1.0
C      1  0.4415598962293  0.7597745059215  0.3929300203816 1.0
C      1  0.5796638225996  0.4182968174071  0.3739948051535 1.0
C      1  0.5482073364362  0.6203938904186  0.3947712502067 1.0
C      1  0.5269024592305  0.2856881587687  0.5598096716717 1.0
C      1  0.4529233510265  0.2549554370021  0.5063862754077 1.0
C      1  0.3491766465402  0.6070067547342  0.7004533187674 1.0
C      1  0.5355102981701  0.5827464744208  0.2214413464078 1.0
C      1  0.4919231627288  0.3326145079539  0.6376162519586 1.0
C      1  0.6940074866873  0.6400277064975  0.5656686233790 1.0
C      1  0.7224796686527  0.5957962911905  0.4328406094256 1.0
C      1  0.3946001845954  0.3293540757328  0.6284368864620 1.0
C      1  0.5067572608661  0.4903216783640  0.3684460440177 1.0
C      1  0.7213241653107  0.5441586780640  0.3561038114906 1.0
C      1  0.6329416337126  0.4234325063415  0.2889416662967 1.0
C      1  0.7356673892356  0.5630148244845  0.5231554325994 1.0
C      1  0.6445150514699  0.6272766824053  0.6451849459630 1.0
C      1  0.6587143357172  0.5402637973897  0.6904614276155 1.0
C      1  0.4293956566772  0.2385354662572  0.4154126864603 1.0
C      1  0.3349325992050  0.6405271059690  0.3450222377912 1.0
C      1  0.5851001358372  0.4764607621113  0.6614175862746 1.0
C      1  0.3554176578114  0.4005637701326  0.6729895339945 1.0
C      1  0.3739546640418  0.5665611872153  0.5515189637733 1.0
C      1  0.6086895792789  0.3129115736210  0.5175798800727 1.0
C      1  0.3793338581994  0.7168519983095  0.3577182857028 1.0
C      1  0.4624897274481  0.7470027497953  0.5417061444356 1.0
C      1  0.5396193966085  0.5750602243401  0.3089778960745 1.0
C      1  0.5471737629221  0.6314461629482  0.6374241553849 1.0
C      1  0.5280904564745  0.5442665790050  0.6075232794703 1.0
C      1  0.6883816815491  0.4683404671649  0.6435928214202 1.0
C      1  0.3817531203627  0.7477921298972  0.5938976530197 1.0
C      1  0.2948513971939  0.5315782442306  0.7062126192514 1.0
C      1  0.4263623194956  0.4395254415217  0.3378815992567 1.0
C      1  0.3190411699447  0.3345148935120  0.4750217498498 1.0
C      1  0.4746817620413  0.6866504171957  0.6131772674526 1.0
C      1  0.3724091381897  0.2945896734818  0.5456088570678 1.0
C      1  0.5047501369806  0.5544101563839  0.4429732020840 1.0
C      1  0.6212736018735  0.3848308024081  0.4548498394224 1.0
C      1  0.7017406337658  0.4014545984155  0.5044599797972 1.0
C      1  0.2846429326509  0.4620711781116  0.6421166010912 1.0
C      1  0.4268003345698  0.4480307174971  0.7202807008020 1.0
C      1  0.3117011225227  0.4896120749044  0.5494431585274 1.0
C      1  0.7293968205686  0.4755188632379  0.5569389540508 1.0
C      1  0.7037499479474  0.4842426701702  0.2987273356317 1.0
C      1  0.3791251659175  0.6467705119756  0.6161110692096 1.0
C      1  0.5081909455184  0.7566361050760  0.4611700573216 1.0
C      1  0.5864555580507  0.7003093498168  0.4381509351507 1.0
END
