TITL C-79722-4368-21 -1.256 3375.00 -199.49386361 0 0 26 (C1) n - 1
REM
REM Run started: at 2020.12.04 21:45:11 in /rds/project/t2_vol4/rds-t2-cs072/BORA/CARBON/AIRSS/Generating-Clusters/Str-Search/Only-C1/C10-100
REM VASP from code version vasp.5.4.4.18Apr17-6-g9f103f2a35 (build Oct 11 2019 16:45:47) gamma-only
REM
REM
REM
REM
REM ./C.cell (67c5d0192afd7a3ce4a0888e5fe73b87)
REM AIRSS Version 0.9.1 bugfix July 2018 build 013d7b7c2542+ Fri, 06 Jul 2018 19:26:36 +0100
REM compiler GCC version 4.8.5 20150623 (Red Hat 4.8.5-39)
REM options -cpp -mtune=generic -march=x86-64 -g -O0
REM seed -1248242797 1052385827 -354086293 799508551 -81959623 984774184 1106820359 801833530 1040653371 -723586802 1223705248 -1518668596
REM
REM C.POTCAR (d86ddea03c3ceb6dc662c8ad6801f873)
REM 
CELL 1.54180   15.00000   15.00000   15.00000   90.00000   90.00000   90.00000
LATT -1
SFAC C  
C      1  0.4627403979405  0.6652861189872  0.5574528849972 1.0
C      1  0.6317676790200  0.5899509817555  0.4554444127238 1.0
C      1  0.4627137455984  0.5054909520086  0.3107248696761 1.0
C      1  0.6369043408741  0.3691833264243  0.5508253083832 1.0
C      1  0.5492955023657  0.5734899710621  0.4062493416761 1.0
C      1  0.6035673273008  0.4259661155350  0.6167686657938 1.0
C      1  0.4027968192880  0.4978640084334  0.3886006292130 1.0
C      1  0.4594706992569  0.3524380559848  0.6401815113152 1.0
C      1  0.5005647847218  0.5831022298554  0.5761050662146 1.0
C      1  0.6224212513230  0.4285082577879  0.4105398997568 1.0
C      1  0.3708495657983  0.5233864552937  0.6171818566664 1.0
C      1  0.3926759427657  0.7036357624107  0.5261783946770 1.0
C      1  0.4766648648866  0.4530350152938  0.4467812421703 1.0
C      1  0.6627386151032  0.4984570637059  0.4687098691254 1.0
C      1  0.4589265272908  0.5945191602345  0.3583920508460 1.0
C      1  0.4618551245919  0.3322775389625  0.5581179668289 1.0
C      1  0.3732902916239  0.5879171120520  0.4077347414174 1.0
C      1  0.3215682345657  0.5608978148607  0.5601551929543 1.0
C      1  0.3471525704731  0.6225278356540  0.4912647825380 1.0
C      1  0.5444341095753  0.4756786038049  0.3701881319308 1.0
C      1  0.4961375493100  0.3586149530094  0.4766480975419 1.0
C      1  0.5925705473453  0.3548630066273  0.4661441918667 1.0
C      1  0.5118354559922  0.4355159514697  0.6484486557878 1.0
C      1  0.5184531491528  0.5354095113037  0.4956535638912 1.0
C      1  0.6757171042217  0.4561786854551  0.5554734606862 1.0
C      1  0.4628876996143  0.5158058120281  0.6400352113218 1.0
END
