TITL C-8371-7233-93 -3.467 3375.00 -584.99251277 0 0 73 () n - 1
REM
REM Run started: at 2020.12.25 19:34:18 in /gpfs/home/chem/mssmkc/CARBON/AIRSS/Generating-Clusters/Str-Search/Only-C1/C10-100
REM VASP from code version vasp.5.4.4.18Apr17-6-g9f103f2a35 (build Oct 11 2019 16:45:47) gamma-only
REM
REM
REM
REM
REM ./C.cell (67c5d0192afd7a3ce4a0888e5fe73b87)
REM AIRSS Version 0.9.1 bugfix July 2018 build 013d7b7c2542+ Fri, 06 Jul 2018 19:26:36 +0100
REM compiler GCC version 6.3.0
REM options -cpp -iprefix /gpfs/warwick/csc/orac/software/Core/GCCcore/6.3.0/bin/../lib/gcc/x86_64-pc-linux-gnu/6.3.0/ -mtune=generic -march=x86-64 -g -O0
REM seed 490092312 -1349640959 -2011309276 -1787933895 -218009862 1372310011 -944025549 410386413 817674686 535883140 128872721 1344768020
REM
REM C.POTCAR (d86ddea03c3ceb6dc662c8ad6801f873)
REM 
CELL 1.54180   15.00000   15.00000   15.00000   90.00000   90.00000   90.00000
LATT -1
SFAC C  
C      1  0.6929881698453  0.6727728258848  0.3607352335080 1.0
C      1  0.2609970722672  0.6148552531105  0.4608194235220 1.0
C      1  0.4790846638474  0.5772299815339  0.5981081268121 1.0
C      1  0.4961148980025  0.7687626009795  0.4936177742327 1.0
C      1  0.3210605063294  0.6840371056257  0.6213717214409 1.0
C      1  0.3069652255747  0.6322161801892  0.3798807331465 1.0
C      1  0.5173615048128  0.4190804938882  0.4142750994328 1.0
C      1  0.7309562574898  0.6337154342727  0.4312564839465 1.0
C      1  0.3158736857605  0.6350881396850  0.5448938382759 1.0
C      1  0.6055728823735  0.6209334690011  0.3414580200229 1.0
C      1  0.5656769382725  0.5735948104634  0.2645700898522 1.0
C      1  0.5302626921241  0.2790018399722  0.5173903022059 1.0
C      1  0.4347623046638  0.3119146650260  0.2999796236477 1.0
C      1  0.6682315731452  0.3596958885914  0.6765839482679 1.0
C      1  0.5184753774533  0.4260592577976  0.2308300427031 1.0
C      1  0.4283265139598  0.4473802117962  0.7231424206465 1.0
C      1  0.5936470185514  0.4787671270021  0.2537604371868 1.0
C      1  0.6540091598864  0.4251608641241  0.3118655133226 1.0
C      1  0.6199782273881  0.3029812262739  0.5415926578346 1.0
C      1  0.7092635749710  0.6671150247786  0.5873776454604 1.0
C      1  0.4734611294194  0.5802793499971  0.2524761331129 1.0
C      1  0.6969365960558  0.6120112303272  0.6686947450209 1.0
C      1  0.7442812332185  0.5158083399385  0.5475356318095 1.0
C      1  0.3404223826752  0.4265002338993  0.6815090938861 1.0
C      1  0.2137645907144  0.4736939849721  0.5946984935004 1.0
C      1  0.6657119429103  0.5614096923116  0.4012505568144 1.0
C      1  0.5923154223444  0.5637679191414  0.4732485417584 1.0
C      1  0.7528025663698  0.6110222897765  0.5199264694026 1.0
C      1  0.5739023142313  0.4841690798249  0.6438000766302 1.0
C      1  0.6620588330976  0.3649319573741  0.4835434152594 1.0
C      1  0.4661476360111  0.7047302170241  0.7057039836783 1.0
C      1  0.4047505395918  0.5854750554036  0.5282933757641 1.0
C      1  0.6046101352463  0.3754747836716  0.4000958179414 1.0
C      1  0.2618902981314  0.4716425263253  0.6648515428633 1.0
C      1  0.6606803617061  0.4478219215902  0.6719531771050 1.0
C      1  0.5410108893856  0.6158741180812  0.4219906963104 1.0
C      1  0.6218479022434  0.2924788083867  0.6387493264230 1.0
C      1  0.4870841844901  0.5073251094401  0.6753319669663 1.0
C      1  0.5541223851556  0.6755631597341  0.7192603812261 1.0
C      1  0.7193595042646  0.4432139499228  0.4807705554458 1.0
C      1  0.3961509789252  0.4859576567676  0.4983797047691 1.0
C      1  0.5328289590992  0.2578863483837  0.6698801594927 1.0
C      1  0.3710004616000  0.3055233408713  0.3717858588493 1.0
C      1  0.3516808893425  0.3633752118587  0.2987855579023 1.0
C      1  0.4575535291420  0.4713260323662  0.3558151421013 1.0
C      1  0.3463319719744  0.3633947010051  0.6066186762233 1.0
C      1  0.4773078077700  0.3509578957655  0.4761330583556 1.0
C      1  0.5558737205527  0.7343440759346  0.5598013659925 1.0
C      1  0.2393867780340  0.4589338497551  0.5065416070504 1.0
C      1  0.6109010208676  0.3312363569935  0.3146721426697 1.0
C      1  0.4301068081791  0.7422593156880  0.4431459424399 1.0
C      1  0.4384873097282  0.4862064420920  0.2551986411406 1.0
C      1  0.3906627465560  0.6812442440875  0.3822574342722 1.0
C      1  0.5222910654683  0.3384061561496  0.2701437322947 1.0
C      1  0.3794178346504  0.3258872670935  0.4723391468157 1.0
C      1  0.3047475528568  0.5254051535667  0.3570736837210 1.0
C      1  0.7017422012691  0.4725221825522  0.3860661312472 1.0
C      1  0.3794242677769  0.7020376408239  0.6828162594179 1.0
C      1  0.3275109969753  0.4069758163148  0.5175050070020 1.0
C      1  0.7196405305495  0.5204548559288  0.6418390578109 1.0
C      1  0.5163537947761  0.6675560895529  0.6239596810119 1.0
C      1  0.4646411694570  0.3750097735462  0.7697546261155 1.0
C      1  0.3863515235286  0.4985578134545  0.4032280685271 1.0
C      1  0.4957854283877  0.3024423998405  0.7407097908473 1.0
C      1  0.2379144589052  0.5228428266990  0.4369051628530 1.0
C      1  0.6476529460892  0.7304748685854  0.5588841759501 1.0
C      1  0.3401712334065  0.4560336102303  0.2763334261181 1.0
C      1  0.5509901294014  0.5161695568257  0.5514643562547 1.0
C      1  0.4895682160331  0.4474802433854  0.5060504447488 1.0
C      1  0.3870593788739  0.2871654463877  0.5716129873750 1.0
C      1  0.4772106525348  0.2510724449372  0.5908352949243 1.0
C      1  0.4508061899017  0.6344525845349  0.4443361845051 1.0
C      1  0.6356782534063  0.6428518708835  0.7319346748143 1.0
END
