TITL C-8371-7233-60 -1.774 3375.00 -289.37496884 0 0 36 () n - 1
REM
REM Run started: at 2020.12.25 13:02:45 in /gpfs/home/chem/mssmkc/CARBON/AIRSS/Generating-Clusters/Str-Search/Only-C1/C10-100
REM VASP from code version vasp.5.4.4.18Apr17-6-g9f103f2a35 (build Oct 11 2019 16:45:47) gamma-only
REM
REM
REM
REM
REM ./C.cell (67c5d0192afd7a3ce4a0888e5fe73b87)
REM AIRSS Version 0.9.1 bugfix July 2018 build 013d7b7c2542+ Fri, 06 Jul 2018 19:26:36 +0100
REM compiler GCC version 6.3.0
REM options -cpp -iprefix /gpfs/warwick/csc/orac/software/Core/GCCcore/6.3.0/bin/../lib/gcc/x86_64-pc-linux-gnu/6.3.0/ -mtune=generic -march=x86-64 -g -O0
REM seed 707905550 1369140574 -44035273 -1764017867 -1256254750 587705996 -178404397 -67468369 55096313 425573600 -518995258 -1227508450
REM
REM C.POTCAR (d86ddea03c3ceb6dc662c8ad6801f873)
REM 
CELL 1.54180   15.00000   15.00000   15.00000   90.00000   90.00000   90.00000
LATT -1
SFAC C  
C      1  0.4612494531423  0.2316477360385  0.4214447957008 1.0
C      1  0.5589860374208  0.3172002933244  0.5374108705196 1.0
C      1  0.6777815463683  0.4336421498797  0.5720618734750 1.0
C      1  0.4104140879494  0.5014079170664  0.6566014818194 1.0
C      1  0.6800208644518  0.3926191826648  0.4089044977942 1.0
C      1  0.4702325325254  0.4810814031876  0.3602546816608 1.0
C      1  0.3304534639817  0.4559457554825  0.4369511164351 1.0
C      1  0.5436474156909  0.6224223437838  0.6323590292359 1.0
C      1  0.6706571354863  0.6107752566745  0.4345209248288 1.0
C      1  0.3794621233709  0.5975261091482  0.3985562491365 1.0
C      1  0.3547177577557  0.4635473370169  0.5887616837517 1.0
C      1  0.4981350144165  0.4665144711660  0.6431118007163 1.0
C      1  0.6699493799410  0.4665524242527  0.3705864116055 1.0
C      1  0.3949701995229  0.3840492250974  0.5525552283411 1.0
C      1  0.5130541274802  0.2535495048788  0.4861062683656 1.0
C      1  0.3635960421210  0.3691600372623  0.4623892241810 1.0
C      1  0.5982344325555  0.6810072493786  0.5817308219204 1.0
C      1  0.3502463817140  0.6042944999053  0.4908720783857 1.0
C      1  0.6509392256336  0.4927444822178  0.6224182592996 1.0
C      1  0.6393609946908  0.3841069563125  0.4988557952413 1.0
C      1  0.5681864851005  0.5304790746313  0.6484343576590 1.0
C      1  0.4933431591399  0.3896551507512  0.5738032605579 1.0
C      1  0.3763904413705  0.5055087498960  0.3707246789708 1.0
C      1  0.3200888629276  0.5159845075439  0.5160784124633 1.0
C      1  0.5616120667732  0.7202870309408  0.5039275967712 1.0
C      1  0.5428251461662  0.4032745881497  0.4819905817820 1.0
C      1  0.3889071098463  0.5911277706450  0.6775723831682 1.0
C      1  0.4794478410532  0.6921887113757  0.4707596680830 1.0
C      1  0.6412310784468  0.6697125042095  0.4922569469735 1.0
C      1  0.4318968464582  0.3248691626532  0.4110586037405 1.0
C      1  0.4144894710944  0.6654341866072  0.5363993790256 1.0
C      1  0.5278282079898  0.5589649618037  0.3686593832998 1.0
C      1  0.4959243818064  0.3969945146240  0.3949356872088 1.0
C      1  0.4681457202634  0.6318231189102  0.3935127456831 1.0
C      1  0.4467765829294  0.6424973533960  0.6242755487989 1.0
C      1  0.6267985824150  0.5514042791234  0.3791578734000 1.0
END
