TITL C-8371-7233-179 -4.201 3375.00 -741.63539283 0 0 91 () n - 1
REM
REM Run started: at 2020.12.26 16:59:29 in /gpfs/home/chem/mssmkc/CARBON/AIRSS/Generating-Clusters/Str-Search/Only-C1/C10-100
REM VASP from code version vasp.5.4.4.18Apr17-6-g9f103f2a35 (build Oct 11 2019 16:45:47) gamma-only
REM
REM
REM
REM
REM ./C.cell (67c5d0192afd7a3ce4a0888e5fe73b87)
REM AIRSS Version 0.9.1 bugfix July 2018 build 013d7b7c2542+ Fri, 06 Jul 2018 19:26:36 +0100
REM compiler GCC version 6.3.0
REM options -cpp -iprefix /gpfs/warwick/csc/orac/software/Core/GCCcore/6.3.0/bin/../lib/gcc/x86_64-pc-linux-gnu/6.3.0/ -mtune=generic -march=x86-64 -g -O0
REM seed -160522537 408519659 1388944411 -1087531261 86658050 -2104790533 931988286 -1370694912 -935875987 486929075 1224588063 -548327196
REM
REM C.POTCAR (d86ddea03c3ceb6dc662c8ad6801f873)
REM 
CELL 1.54180   15.00000   15.00000   15.00000   90.00000   90.00000   90.00000
LATT -1
SFAC C  
C      1  0.7400369326562  0.6285468644123  0.5763417016424 1.0
C      1  0.5063245335698  0.4697193728586  0.3063344130974 1.0
C      1  0.5297043835378  0.3428172503910  0.4172687306315 1.0
C      1  0.3660945048463  0.5455013877423  0.2617105030084 1.0
C      1  0.4416314012688  0.6968484460531  0.7855551011724 1.0
C      1  0.6324094455060  0.3723151883928  0.2938754941961 1.0
C      1  0.7816061165745  0.4741145176666  0.4643122090856 1.0
C      1  0.2995291115633  0.3503701188032  0.5387607673690 1.0
C      1  0.5497055959390  0.5152603452966  0.5388528611790 1.0
C      1  0.4596795817483  0.3359301958838  0.6720280793307 1.0
C      1  0.5252131619521  0.4744030420547  0.2021953594859 1.0
C      1  0.7811906036642  0.4645617061345  0.5627313269484 1.0
C      1  0.5390403318603  0.6243207326234  0.3055010648799 1.0
C      1  0.5969530066826  0.3387216041836  0.5906098756525 1.0
C      1  0.3050486893028  0.7002848801680  0.4794491150414 1.0
C      1  0.7078274301828  0.5908467526500  0.3619442413168 1.0
C      1  0.5470166924923  0.5497875528542  0.7018740814042 1.0
C      1  0.3966533329003  0.3783871129572  0.2428551365870 1.0
C      1  0.3311917968913  0.3604055439484  0.3131709442129 1.0
C      1  0.3434778571997  0.6430854940213  0.6250547420833 1.0
C      1  0.2832489707205  0.5496458376542  0.3079798605897 1.0
C      1  0.6078724878219  0.4047224216567  0.7325153945790 1.0
C      1  0.4501082088880  0.4546599498957  0.7835832885841 1.0
C      1  0.4019108695981  0.3865718266682  0.7337218346969 1.0
C      1  0.7653439461599  0.5447634438179  0.6133868941400 1.0
C      1  0.4830840134428  0.5491733310887  0.6217835930430 1.0
C      1  0.2398699010828  0.5007410595204  0.4562749247737 1.0
C      1  0.2261579785055  0.4946030691585  0.3584545952131 1.0
C      1  0.3785484198394  0.4012401404694  0.4047228836406 1.0
C      1  0.4258778512377  0.4737945447949  0.2318569847653 1.0
C      1  0.4747618123921  0.3261752790762  0.2593906583237 1.0
C      1  0.3922239023875  0.6169474385039  0.7889630057364 1.0
C      1  0.4962231364660  0.5307141432311  0.4515904041641 1.0
C      1  0.5715242906721  0.5376761103541  0.2723399683826 1.0
C      1  0.4402344186681  0.7693843791253  0.5340658815310 1.0
C      1  0.3743382423692  0.6502028193857  0.4207646535151 1.0
C      1  0.3172954545466  0.4180224363681  0.7035742673084 1.0
C      1  0.6799443420281  0.6637890023195  0.4212827076122 1.0
C      1  0.3513963213789  0.6078941962404  0.3324782517439 1.0
C      1  0.6688051669561  0.5270268923325  0.3038686974715 1.0
C      1  0.2891681469686  0.4051785750796  0.6112454190572 1.0
C      1  0.5127298583876  0.7549344958664  0.4650256400316 1.0
C      1  0.2935156157974  0.5152382594077  0.6991625543957 1.0
C      1  0.2555389316010  0.4039165611821  0.3563238280975 1.0
C      1  0.5418026798112  0.4719230033464  0.7552335843767 1.0
C      1  0.7732512506259  0.5628036077994  0.4311502173534 1.0
C      1  0.6965821112866  0.2632244136807  0.4973299682052 1.0
C      1  0.5214539621875  0.3380577787595  0.5213015480131 1.0
C      1  0.4737885678581  0.4432589089404  0.3979232150853 1.0
C      1  0.2862586336136  0.4092751406328  0.4557432527629 1.0
C      1  0.4688911742637  0.2010819309936  0.4188514104987 1.0
C      1  0.6923340036855  0.4306832145754  0.6935955569287 1.0
C      1  0.6511311918622  0.6552638436355  0.6177730448343 1.0
C      1  0.6928125453723  0.3172036876068  0.5770186978982 1.0
C      1  0.6248333826858  0.7449629110910  0.6521839343029 1.0
C      1  0.6984792749450  0.4388179582063  0.3187087387574 1.0
C      1  0.5381883442847  0.6080640148663  0.3975261662881 1.0
C      1  0.5353934208596  0.7055942240456  0.2630582791603 1.0
C      1  0.4299621635953  0.7051806247487  0.6146426545935 1.0
C      1  0.5543855938894  0.3455331154748  0.6791395487248 1.0
C      1  0.7502061202440  0.6389810687276  0.4858215905447 1.0
C      1  0.4230246010185  0.5869184551753  0.4945963972452 1.0
C      1  0.3834068783397  0.5520984801778  0.5843021792362 1.0
C      1  0.4291471333315  0.7390738853108  0.4241926038891 1.0
C      1  0.3637660289714  0.2757994428298  0.5361482328227 1.0
C      1  0.2463405151915  0.5567362418285  0.5294343955661 1.0
C      1  0.3604784177897  0.7820859509473  0.4793285260721 1.0
C      1  0.5141117250690  0.7779021051022  0.2231193473305 1.0
C      1  0.4865018137827  0.6338453491935  0.5726175264855 1.0
C      1  0.3768502104235  0.3033336966203  0.3801925706409 1.0
C      1  0.4674059214347  0.7355124048575  0.7071483941034 1.0
C      1  0.3251056186121  0.6002318396409  0.7188570949062 1.0
C      1  0.6341187129244  0.5828925359561  0.6863794021507 1.0
C      1  0.2904861992405  0.5030429241182  0.5998791177083 1.0
C      1  0.7076503795638  0.5240288187464  0.6884160140080 1.0
C      1  0.6193778773943  0.3304953308814  0.3766126460817 1.0
C      1  0.3838296148315  0.2345925481722  0.4525784818761 1.0
C      1  0.7454239393112  0.4094747209085  0.4023175484660 1.0
C      1  0.5559446001432  0.7670236165207  0.6924719830675 1.0
C      1  0.5701852108554  0.4221028993909  0.5470551656808 1.0
C      1  0.2705349790063  0.6493080994370  0.5492330109502 1.0
C      1  0.4412350644923  0.3096277269499  0.5808423741891 1.0
C      1  0.7384525170210  0.3917640269510  0.6144137630027 1.0
C      1  0.5507739093044  0.3874646958301  0.2455780327739 1.0
C      1  0.5506650740359  0.1749106435710  0.4561220816528 1.0
C      1  0.4693965834114  0.2825475983035  0.3521781743054 1.0
C      1  0.7021243846440  0.3280636889856  0.4267240428931 1.0
C      1  0.5818745571804  0.6290643932407  0.5455465767732 1.0
C      1  0.6272671635037  0.2001462510398  0.4794910255299 1.0
C      1  0.4110690183389  0.5311294997275  0.8170015858858 1.0
C      1  0.5836403315082  0.6756283601622  0.4554379566577 1.0
END
