TITL C-8371-7233-22 -1.274 3375.00 -197.90125661 0 0 25 () n - 1
REM
REM Run started: at 2020.12.25 03:59:33 in /gpfs/home/chem/mssmkc/CARBON/AIRSS/Generating-Clusters/Str-Search/Only-C1/C10-100
REM VASP from code version vasp.5.4.4.18Apr17-6-g9f103f2a35 (build Oct 11 2019 16:45:47) gamma-only
REM
REM
REM
REM
REM ./C.cell (67c5d0192afd7a3ce4a0888e5fe73b87)
REM AIRSS Version 0.9.1 bugfix July 2018 build 013d7b7c2542+ Fri, 06 Jul 2018 19:26:36 +0100
REM compiler GCC version 6.3.0
REM options -cpp -iprefix /gpfs/warwick/csc/orac/software/Core/GCCcore/6.3.0/bin/../lib/gcc/x86_64-pc-linux-gnu/6.3.0/ -mtune=generic -march=x86-64 -g -O0
REM seed -729915625 -1733637248 -1712743519 1654376859 -294854027 1341518334 -622919444 -1648482556 -1644589264 -1707214553 1586045190 -1613682286
REM
REM C.POTCAR (d86ddea03c3ceb6dc662c8ad6801f873)
REM 
CELL 1.54180   15.00000   15.00000   15.00000   90.00000   90.00000   90.00000
LATT -1
SFAC C  
C      1  0.4839839232904  0.3691755658180  0.5863251370439 1.0
C      1  0.4557945686589  0.6728050962329  0.5022782733978 1.0
C      1  0.4664409313103  0.6754577896910  0.4108691197345 1.0
C      1  0.6628186383428  0.5730256435961  0.4943627277130 1.0
C      1  0.4709671755711  0.3479845600183  0.4919507119883 1.0
C      1  0.3760140301320  0.3673263472331  0.4676442315854 1.0
C      1  0.6326416652617  0.5048521074412  0.4356453467625 1.0
C      1  0.4050423884376  0.5036336853557  0.3933382728077 1.0
C      1  0.5565556773779  0.4752412431101  0.3897112430826 1.0
C      1  0.5440328491776  0.6719994584287  0.5359515940474 1.0
C      1  0.4086762355468  0.4254920652739  0.6101239974441 1.0
C      1  0.5028238300382  0.3925754861504  0.4106566921482 1.0
C      1  0.7084968391702  0.4225931923104  0.5754187956631 1.0
C      1  0.6411568410538  0.3759593911974  0.6035398346763 1.0
C      1  0.4909089551187  0.5408499382199  0.3618561922377 1.0
C      1  0.5636908318227  0.3479454259565  0.6293624793057 1.0
C      1  0.3576116073952  0.4382423791239  0.5261792062303 1.0
C      1  0.6239599960972  0.6485670428739  0.5338478603623 1.0
C      1  0.4104513823247  0.4094126420497  0.3865790715143 1.0
C      1  0.3898038068980  0.5806125743199  0.6260982235722 1.0
C      1  0.3677849375411  0.5275798682142  0.4806819940307 1.0
C      1  0.3920941816315  0.6056095734205  0.5358382974523 1.0
C      1  0.4050124922393  0.5043009158755  0.6586039409636 1.0
C      1  0.4926363516172  0.6325613830761  0.3425566861056 1.0
C      1  0.6905999639452  0.4861968250126  0.5105800701305 1.0
END
