TITL C-8371-7233-52 -4.716 3375.00 -808.87560829 0 0 100 () n - 1
REM
REM Run started: at 2020.12.25 11:08:24 in /gpfs/home/chem/mssmkc/CARBON/AIRSS/Generating-Clusters/Str-Search/Only-C1/C10-100
REM VASP from code version vasp.5.4.4.18Apr17-6-g9f103f2a35 (build Oct 11 2019 16:45:47) gamma-only
REM
REM
REM
REM
REM ./C.cell (67c5d0192afd7a3ce4a0888e5fe73b87)
REM AIRSS Version 0.9.1 bugfix July 2018 build 013d7b7c2542+ Fri, 06 Jul 2018 19:26:36 +0100
REM compiler GCC version 6.3.0
REM options -cpp -iprefix /gpfs/warwick/csc/orac/software/Core/GCCcore/6.3.0/bin/../lib/gcc/x86_64-pc-linux-gnu/6.3.0/ -mtune=generic -march=x86-64 -g -O0
REM seed -599883043 2124394181 -423525202 -1835711647 -163966593 1103788585 1288353375 -1429077740 2100795717 791795472 1441629651 -1250230220
REM
REM C.POTCAR (d86ddea03c3ceb6dc662c8ad6801f873)
REM 
CELL 1.54180   15.00000   15.00000   15.00000   90.00000   90.00000   90.00000
LATT -1
SFAC C  
C      1  0.7881436787578  0.4104695673852  0.4474278969258 1.0
C      1  0.5320832177709  0.1988552301521  0.3786464796204 1.0
C      1  0.4123183863143  0.2235022118941  0.5207056696299 1.0
C      1  0.4140674650768  0.2644579236819  0.7090923667508 1.0
C      1  0.2737858284975  0.3561784861511  0.6685432601205 1.0
C      1  0.4167659220915  0.7032489800839  0.5327756312591 1.0
C      1  0.6357465134337  0.7880701971166  0.3344017578413 1.0
C      1  0.6339658556450  0.4586689575005  0.3533032707958 1.0
C      1  0.3002371673148  0.7004716500501  0.4097370676873 1.0
C      1  0.8052104261587  0.5109514396254  0.3206084185450 1.0
C      1  0.3426215794274  0.3267136573022  0.7334036405876 1.0
C      1  0.5810199659117  0.2197940828573  0.4982159619385 1.0
C      1  0.2217485285927  0.5065771481566  0.6238554573093 1.0
C      1  0.6769981534919  0.7434956173528  0.5955233118699 1.0
C      1  0.2142419405111  0.4275739509247  0.3623474080312 1.0
C      1  0.5834961922309  0.6127025049475  0.3773986587529 1.0
C      1  0.5592702614230  0.6864419991506  0.6967579547398 1.0
C      1  0.6142787035257  0.2426355509599  0.4086301549568 1.0
C      1  0.5654310068420  0.3570916538378  0.2416486722647 1.0
C      1  0.4873383620475  0.3235379893114  0.2405484142329 1.0
C      1  0.3179750107874  0.3082203106442  0.3017351203914 1.0
C      1  0.7273384387589  0.4741876125682  0.6860155764749 1.0
C      1  0.6660996272832  0.5504916025639  0.3684201886675 1.0
C      1  0.4872842411668  0.7768984712792  0.4145526612749 1.0
C      1  0.6171481693765  0.7920779029993  0.5427720542468 1.0
C      1  0.2748946098787  0.6595833590048  0.5816290282637 1.0
C      1  0.6031018714495  0.5335957465409  0.5056809899581 1.0
C      1  0.6300350555437  0.2055740364223  0.5761245093204 1.0
C      1  0.7201577545772  0.6357103369075  0.7049400617936 1.0
C      1  0.2576274535166  0.5926033213364  0.6425417950643 1.0
C      1  0.2854013475689  0.2997558817893  0.3865656186146 1.0
C      1  0.7366859832858  0.3298023073728  0.4660093110576 1.0
C      1  0.7610859755384  0.6122905456444  0.6195254983090 1.0
C      1  0.6994634874916  0.5538665919475  0.4687301394135 1.0
C      1  0.2102478302411  0.3805638438689  0.5172762730034 1.0
C      1  0.5443621065293  0.7613718058467  0.3413868240319 1.0
C      1  0.7684931789000  0.5186625573834  0.6060161157560 1.0
C      1  0.7421318221203  0.6469381503659  0.4678548593972 1.0
C      1  0.2862405875584  0.4017257664020  0.3051032603660 1.0
C      1  0.5287654872805  0.6461898067851  0.6157441293107 1.0
C      1  0.5450276605599  0.6677251675656  0.3062816005499 1.0
C      1  0.3853251940017  0.4354443127170  0.3086008608494 1.0
C      1  0.6568414134599  0.7071682245431  0.6851546787116 1.0
C      1  0.2160084185284  0.3582593359077  0.4244521542676 1.0
C      1  0.4430945359924  0.3590937696584  0.7123545611828 1.0
C      1  0.7161226763481  0.3565114115697  0.3188256005802 1.0
C      1  0.4315607863587  0.4408909329006  0.4090962926557 1.0
C      1  0.7528884875508  0.5836627865580  0.3274859192550 1.0
C      1  0.6020362815676  0.4374446496593  0.4446648141442 1.0
C      1  0.6082967758070  0.5337630043089  0.7518972759536 1.0
C      1  0.5125271279021  0.6767171699714  0.5276561015730 1.0
C      1  0.7029587022571  0.5550767148066  0.7507281461170 1.0
C      1  0.3318888535961  0.2629423366463  0.5515788473738 1.0
C      1  0.5086569905162  0.4127819097312  0.4569300352189 1.0
C      1  0.3994413480808  0.7194812111308  0.4360044674185 1.0
C      1  0.6243892062989  0.4787312199880  0.6775289988498 1.0
C      1  0.1950331711284  0.4771669409815  0.5371566253402 1.0
C      1  0.5149093110298  0.6251871643570  0.2329875874292 1.0
C      1  0.4034275125460  0.5209906150570  0.6452053987415 1.0
C      1  0.7818014438398  0.4263448415792  0.3493882146952 1.0
C      1  0.4450728772233  0.3671171104329  0.6118823579663 1.0
C      1  0.4890340023486  0.2124279000544  0.4673060953393 1.0
C      1  0.4077872441554  0.3401690401142  0.2753041286874 1.0
C      1  0.2622012699269  0.4469879477358  0.6838936831146 1.0
C      1  0.7191602282132  0.3027618957478  0.6824379721382 1.0
C      1  0.4983697709718  0.5566361487381  0.6480623280754 1.0
C      1  0.4144227202893  0.2709876217169  0.6060533130990 1.0
C      1  0.2397884267925  0.5752747024719  0.3136891575783 1.0
C      1  0.2633955012921  0.6286631457277  0.4877349711884 1.0
C      1  0.6851656400635  0.4014720059839  0.4985498486168 1.0
C      1  0.3764588906476  0.4823073436381  0.4797522728507 1.0
C      1  0.3901045565587  0.6676014990957  0.6986175853590 1.0
C      1  0.2589647336564  0.3220733768171  0.5788596850314 1.0
C      1  0.7552614307062  0.6736049855178  0.3770769334496 1.0
C      1  0.3380141181355  0.5824647713760  0.7006799339366 1.0
C      1  0.2017421743058  0.5200282827911  0.3786622864248 1.0
C      1  0.7427448619972  0.6823899195040  0.5557123340313 1.0
C      1  0.4995233261094  0.4249091020445  0.5562796647371 1.0
C      1  0.7507755031762  0.4786550921880  0.5143751015406 1.0
C      1  0.6372459582784  0.3951429652429  0.2766921343395 1.0
C      1  0.3801605340623  0.6285283779321  0.3936954377458 1.0
C      1  0.5425131967858  0.7749517823993  0.4993224632603 1.0
C      1  0.5520944360230  0.6082461996347  0.4640571918764 1.0
C      1  0.4730760613081  0.6739856820649  0.7472395691589 1.0
C      1  0.3428251573336  0.4861323980787  0.7305338256363 1.0
C      1  0.3870038962566  0.5182048219234  0.2466021703797 1.0
C      1  0.4024976717786  0.4558538735736  0.5713893374868 1.0
C      1  0.6955349460009  0.2887029519608  0.3884096688134 1.0
C      1  0.7082997810268  0.7486295770193  0.3488055763616 1.0
C      1  0.6769272945208  0.2375085465702  0.6371636308796 1.0
C      1  0.5304159867666  0.5902395378344  0.7394222300656 1.0
C      1  0.3481962388434  0.5672018849960  0.4624562418651 1.0
C      1  0.4623906214720  0.5596451885750  0.2211664781971 1.0
C      1  0.1985991409649  0.5479618747649  0.4690853787549 1.0
C      1  0.3865933558062  0.4071460498280  0.7734140869770 1.0
C      1  0.7419970468717  0.3792157831358  0.7047638741966 1.0
C      1  0.5641488483492  0.4937419678388  0.5976213817751 1.0
C      1  0.3612010152905  0.6998100404229  0.6073441379487 1.0
C      1  0.3059482438727  0.6485375726932  0.3253645506047 1.0
C      1  0.3087985005313  0.5771489560638  0.2543474310297 1.0
END
