TITL C-8371-7233-92 -1.744 3375.00 -281.37466942 0 0 35 () n - 1
REM
REM Run started: at 2020.12.25 19:19:49 in /gpfs/home/chem/mssmkc/CARBON/AIRSS/Generating-Clusters/Str-Search/Only-C1/C10-100
REM VASP from code version vasp.5.4.4.18Apr17-6-g9f103f2a35 (build Oct 11 2019 16:45:47) gamma-only
REM
REM
REM
REM
REM ./C.cell (67c5d0192afd7a3ce4a0888e5fe73b87)
REM AIRSS Version 0.9.1 bugfix July 2018 build 013d7b7c2542+ Fri, 06 Jul 2018 19:26:36 +0100
REM compiler GCC version 6.3.0
REM options -cpp -iprefix /gpfs/warwick/csc/orac/software/Core/GCCcore/6.3.0/bin/../lib/gcc/x86_64-pc-linux-gnu/6.3.0/ -mtune=generic -march=x86-64 -g -O0
REM seed -754471391 527473212 1712684925 -55459337 -398007950 -2043407502 -1307398330 1003735161 2068352455 833115664 750005319 -2137383719
REM
REM C.POTCAR (d86ddea03c3ceb6dc662c8ad6801f873)
REM 
CELL 1.54180   15.00000   15.00000   15.00000   90.00000   90.00000   90.00000
LATT -1
SFAC C  
C      1  0.6572272295677  0.4129729813477  0.4506701084883 1.0
C      1  0.5931613850911  0.6579646054133  0.4887656988265 1.0
C      1  0.3410187844495  0.4979994460212  0.4410656699271 1.0
C      1  0.3776306230041  0.5289986948544  0.6741381242193 1.0
C      1  0.5055466689873  0.6628778362166  0.4764285006976 1.0
C      1  0.5526933701730  0.5180439475461  0.3085619715785 1.0
C      1  0.4654245644030  0.4951415939389  0.3456384816090 1.0
C      1  0.3880332779555  0.3769163494775  0.6210687439745 1.0
C      1  0.4068460457501  0.5527922451420  0.3962511805893 1.0
C      1  0.6048095738998  0.5057643259874  0.5768458691952 1.0
C      1  0.4464306312650  0.4054189118140  0.3782162930649 1.0
C      1  0.3598842453200  0.6166404276810  0.5340063128551 1.0
C      1  0.4223839478625  0.3755188059364  0.5314416492593 1.0
C      1  0.4245478143943  0.6267015603818  0.4594324491291 1.0
C      1  0.6364697968136  0.6677447579597  0.3170581732501 1.0
C      1  0.5825687455167  0.6052603836756  0.2981165685456 1.0
C      1  0.5231871142615  0.3574549158815  0.4091694931814 1.0
C      1  0.6553960357143  0.6545609298138  0.4100670946681 1.0
C      1  0.4386361094149  0.3393322903175  0.6913584098347 1.0
C      1  0.6905543490062  0.5723106990309  0.4443009699840 1.0
C      1  0.5190184127137  0.3662640547032  0.5073568747790 1.0
C      1  0.5998741351758  0.4188072570526  0.5287020570378 1.0
C      1  0.5642215933968  0.4405009544912  0.7198686173370 1.0
C      1  0.2657243039729  0.4770227490720  0.5746197116101 1.0
C      1  0.4668460076804  0.5558063759398  0.6612042077319 1.0
C      1  0.4933716787795  0.3912280529706  0.7342327768863 1.0
C      1  0.6087941287603  0.3726412909683  0.3752260332301 1.0
C      1  0.5499587124258  0.5121669440147  0.6578203589177 1.0
C      1  0.3273757807592  0.4537237138610  0.6395422829994 1.0
C      1  0.3808857717585  0.4102938493064  0.4486365948147 1.0
C      1  0.3005859849479  0.5420552984134  0.5159518256845 1.0
C      1  0.6247464536730  0.4578999124640  0.3334721667708 1.0
C      1  0.6399515899533  0.5774174925800  0.5276272041132 1.0
C      1  0.3940949153022  0.6057612237580  0.6215292662141 1.0
C      1  0.6921004178504  0.4879953219676  0.4016083589958 1.0
END
