TITL C-8371-7233-13 -3.978 3375.00 -671.14574419 0 0 82 () n - 1
REM
REM Run started: at 2020.12.25 01:55:15 in /gpfs/home/chem/mssmkc/CARBON/AIRSS/Generating-Clusters/Str-Search/Only-C1/C10-100
REM VASP from code version vasp.5.4.4.18Apr17-6-g9f103f2a35 (build Oct 11 2019 16:45:47) gamma-only
REM
REM
REM
REM
REM ./C.cell (67c5d0192afd7a3ce4a0888e5fe73b87)
REM AIRSS Version 0.9.1 bugfix July 2018 build 013d7b7c2542+ Fri, 06 Jul 2018 19:26:36 +0100
REM compiler GCC version 6.3.0
REM options -cpp -iprefix /gpfs/warwick/csc/orac/software/Core/GCCcore/6.3.0/bin/../lib/gcc/x86_64-pc-linux-gnu/6.3.0/ -mtune=generic -march=x86-64 -g -O0
REM seed 1336836605 -261044588 1907983766 597147456 1020030362 1110335771 240959246 -306008918 1587321157 -662011858 -801519483 -2141661209
REM
REM C.POTCAR (d86ddea03c3ceb6dc662c8ad6801f873)
REM 
CELL 1.54180   15.00000   15.00000   15.00000   90.00000   90.00000   90.00000
LATT -1
SFAC C  
C      1  0.8031364083322  0.6666714294337  0.4641657090393 1.0
C      1  0.8088593176396  0.6001833208962  0.3972134288364 1.0
C      1  0.4920113537885  0.4371651517179  0.2654318852737 1.0
C      1  0.6748349919126  0.3131059310161  0.2662069069269 1.0
C      1  0.4263368379320  0.4722359431969  0.3307962498061 1.0
C      1  0.3955228610526  0.2387902127910  0.5167847422513 1.0
C      1  0.6283791769199  0.2812536327770  0.4051735464168 1.0
C      1  0.5807783541172  0.2921126776844  0.2476655036228 1.0
C      1  0.5252964356662  0.2390740935237  0.6012248811442 1.0
C      1  0.5082692597603  0.3454225533801  0.2793644961895 1.0
C      1  0.6013803721136  0.6400796476114  0.6739501636292 1.0
C      1  0.3794626812426  0.6404143920207  0.4516660693686 1.0
C      1  0.4707442955867  0.7448757752861  0.6311226520683 1.0
C      1  0.3542944081617  0.5241448582690  0.7666165183808 1.0
C      1  0.4660982297465  0.6277018720905  0.7460832778037 1.0
C      1  0.3371931910741  0.6099885709942  0.3704423977381 1.0
C      1  0.7316778587218  0.7289570919424  0.4763354376184 1.0
C      1  0.6779566510991  0.2781260327142  0.4889364715385 1.0
C      1  0.4655128363847  0.3069296552919  0.3613671229088 1.0
C      1  0.4484609124364  0.2430989267953  0.6591688273207 1.0
C      1  0.6711332561552  0.3621742483375  0.3519344827741 1.0
C      1  0.5268559938925  0.2724137071277  0.4252135728636 1.0
C      1  0.6088812231438  0.6969684043472  0.3413688077181 1.0
C      1  0.5099472048577  0.5408492455445  0.7496396261984 1.0
C      1  0.3271664104460  0.6614240730048  0.6685277974024 1.0
C      1  0.6833060001919  0.7303946708030  0.3935679376590 1.0
C      1  0.2913696880464  0.4713050727116  0.7183225223857 1.0
C      1  0.3366441466318  0.6845305363772  0.5314325812844 1.0
C      1  0.3737247652854  0.3298775813440  0.3856009230395 1.0
C      1  0.6981404814216  0.6727439804147  0.3222468243278 1.0
C      1  0.6347872782164  0.2373704008691  0.3072967651573 1.0
C      1  0.4684389576294  0.4949968082700  0.4212606681878 1.0
C      1  0.2692062496429  0.4679055852444  0.3449752725648 1.0
C      1  0.7503845156605  0.6068010735046  0.6264169935597 1.0
C      1  0.6100110788302  0.7952203954158  0.5634377504461 1.0
C      1  0.4843630032302  0.3158107834681  0.7105186021508 1.0
C      1  0.6751011291915  0.3276220003385  0.5557103694248 1.0
C      1  0.4342279558185  0.7861194813413  0.4309236723618 1.0
C      1  0.4851639396126  0.5984531548844  0.2788973975508 1.0
C      1  0.6990041932167  0.5174026660829  0.3038530873752 1.0
C      1  0.7538549949887  0.5945621683147  0.3207598645160 1.0
C      1  0.6794350344739  0.4496578444261  0.3745976897507 1.0
C      1  0.3693469153310  0.2480669159905  0.6094892316033 1.0
C      1  0.6078796335363  0.4741796537290  0.6197844878166 1.0
C      1  0.4926253515205  0.2396016770985  0.5086106758364 1.0
C      1  0.5158580707692  0.6861258684701  0.6941052176225 1.0
C      1  0.6757135431575  0.4973451422779  0.5426366945390 1.0
C      1  0.6821711295807  0.7389478593389  0.5582975102904 1.0
C      1  0.5207835966494  0.4681402365813  0.5645762128723 1.0
C      1  0.6308293769249  0.3692100435256  0.6284170521821 1.0
C      1  0.3822034098791  0.7163314945412  0.6101134080364 1.0
C      1  0.3460297619015  0.4136254742779  0.3464327981005 1.0
C      1  0.4548617948713  0.7046346630348  0.4041870419726 1.0
C      1  0.6287141162319  0.5179703104131  0.2489280542047 1.0
C      1  0.6381145549706  0.4722919535566  0.4611826363064 1.0
C      1  0.2929884915390  0.5584263629257  0.3107772528269 1.0
C      1  0.8173334587630  0.5771146073164  0.4897863269669 1.0
C      1  0.5684472075210  0.3081407682564  0.6588901621356 1.0
C      1  0.5892055558100  0.5448475029769  0.6944071841593 1.0
C      1  0.1925525668128  0.4991790006326  0.5025414562282 1.0
C      1  0.5427658609804  0.4619645438655  0.4744014099188 1.0
C      1  0.4401774548860  0.4768174654021  0.7644991272758 1.0
C      1  0.5385700040778  0.5206582787186  0.2443134101554 1.0
C      1  0.2747575789439  0.3382010713694  0.5279148103845 1.0
C      1  0.3413101882623  0.3904758211354  0.6821640325474 1.0
C      1  0.3534131576915  0.4661487069462  0.6096891059631 1.0
C      1  0.6794977349460  0.6674571604570  0.6278432348000 1.0
C      1  0.3692335246290  0.6161217341486  0.7397204911736 1.0
C      1  0.5181127874322  0.6679162085271  0.3370244511495 1.0
C      1  0.2679412061041  0.5035048698862  0.6309543435147 1.0
C      1  0.3946300911847  0.5631471424395  0.3005327866371 1.0
C      1  0.2115610961337  0.4583781621002  0.4193521418848 1.0
C      1  0.4288755299907  0.3866936091918  0.7324556182234 1.0
C      1  0.4293284847738  0.5028778976880  0.5700581555289 1.0
C      1  0.2183780205801  0.4062112659320  0.4969498912262 1.0
C      1  0.5289150222422  0.7964550214337  0.5816817507216 1.0
C      1  0.3374559297736  0.2925725640317  0.4648692731126 1.0
C      1  0.2181931386739  0.5593202570141  0.5718210366650 1.0
C      1  0.3075252987489  0.3181871650177  0.6187213810455 1.0
C      1  0.2705056684683  0.6365068291228  0.5864289108131 1.0
C      1  0.4180375792309  0.5477751059063  0.4803351450964 1.0
C      1  0.7578018722040  0.5434938331184  0.5588862918820 1.0
END
