TITL C-8371-7233-184 -3.173 3375.00 -544.14858367 0 0 68 () n - 1
REM
REM Run started: at 2020.12.26 18:19:11 in /gpfs/home/chem/mssmkc/CARBON/AIRSS/Generating-Clusters/Str-Search/Only-C1/C10-100
REM VASP from code version vasp.5.4.4.18Apr17-6-g9f103f2a35 (build Oct 11 2019 16:45:47) gamma-only
REM
REM
REM
REM
REM ./C.cell (67c5d0192afd7a3ce4a0888e5fe73b87)
REM AIRSS Version 0.9.1 bugfix July 2018 build 013d7b7c2542+ Fri, 06 Jul 2018 19:26:36 +0100
REM compiler GCC version 6.3.0
REM options -cpp -iprefix /gpfs/warwick/csc/orac/software/Core/GCCcore/6.3.0/bin/../lib/gcc/x86_64-pc-linux-gnu/6.3.0/ -mtune=generic -march=x86-64 -g -O0
REM seed 1338163060 1667388303 391845613 -666984890 -718052882 -1365394101 -1061529096 1373460255 -918459504 -383002614 671044127 402971138
REM
REM C.POTCAR (d86ddea03c3ceb6dc662c8ad6801f873)
REM 
CELL 1.54180   15.00000   15.00000   15.00000   90.00000   90.00000   90.00000
LATT -1
SFAC C  
C      1  0.3767567475759  0.4981276617434  0.3169221317840 1.0
C      1  0.5914661641389  0.3635525428156  0.4442398015854 1.0
C      1  0.5344195984033  0.2971556607344  0.3065987365025 1.0
C      1  0.4345134190472  0.5996683280723  0.7085946672616 1.0
C      1  0.5170290639038  0.4953633729086  0.5520254062194 1.0
C      1  0.4682387712125  0.2563466037524  0.3611093204365 1.0
C      1  0.3676668646021  0.4937748277961  0.4168235124823 1.0
C      1  0.4260924186383  0.2530314183553  0.4325357137838 1.0
C      1  0.6993531676218  0.4986872350161  0.6320220193808 1.0
C      1  0.3072171280731  0.5609087358205  0.2867196844888 1.0
C      1  0.5849050620806  0.5836361588236  0.5528634807155 1.0
C      1  0.3553007233035  0.5161952859670  0.6194990450304 1.0
C      1  0.6342427636830  0.5560827399918  0.6844013291040 1.0
C      1  0.5126521865389  0.3568475538719  0.2411092421533 1.0
C      1  0.6841820645340  0.3400591840588  0.5822143071385 1.0
C      1  0.5407392492039  0.5295462446844  0.4205055734668 1.0
C      1  0.4696495289131  0.5126086331643  0.2764602282172 1.0
C      1  0.6125282619755  0.3246535928189  0.3598023781435 1.0
C      1  0.7172027679496  0.4602010486369  0.4637786857898 1.0
C      1  0.6772197245436  0.4042790095756  0.6506417908449 1.0
C      1  0.5160649933320  0.3537920494395  0.6911370399033 1.0
C      1  0.6249455069460  0.7291792367720  0.6051777439357 1.0
C      1  0.3608347508080  0.4048044201191  0.3653588700922 1.0
C      1  0.5328328566542  0.6826225940716  0.3499796588252 1.0
C      1  0.6637109420237  0.7422065803107  0.5184572484259 1.0
C      1  0.2947357835620  0.6286282850632  0.3330739456081 1.0
C      1  0.2914567544364  0.6088606431680  0.4912929408560 1.0
C      1  0.4363874041913  0.6536321288833  0.5616254788996 1.0
C      1  0.5872392765641  0.6372979143933  0.6390102443981 1.0
C      1  0.2215999039728  0.4151612354895  0.5745724609417 1.0
C      1  0.4257907950380  0.7384100421864  0.5115934363999 1.0
C      1  0.6431693071095  0.2563451441404  0.5949866303979 1.0
C      1  0.5045751981349  0.7832032559362  0.4844795993403 1.0
C      1  0.4875706307358  0.6501786420237  0.6520814404405 1.0
C      1  0.6789693924962  0.3720140184987  0.4905525366406 1.0
C      1  0.3844205951410  0.7296886676081  0.4272804452174 1.0
C      1  0.5023931718915  0.5843363900451  0.5034197379280 1.0
C      1  0.6301310641992  0.6701720346647  0.3697325908974 1.0
C      1  0.4249033650451  0.4124519484208  0.4421532002728 1.0
C      1  0.2995567035658  0.3638717185581  0.4383630670225 1.0
C      1  0.4766921095030  0.7443136827030  0.3923110135129 1.0
C      1  0.2963033079835  0.4336799517794  0.6215174971262 1.0
C      1  0.3138636783415  0.6663546426646  0.4172360299018 1.0
C      1  0.5757525588532  0.4955021160268  0.7267178648283 1.0
C      1  0.3413935020101  0.5933501349441  0.6783414486779 1.0
C      1  0.3970461169390  0.3087016125765  0.5932350765937 1.0
C      1  0.7499673065140  0.3751992117329  0.4179264272341 1.0
C      1  0.4408415512439  0.4138307273710  0.7013175742612 1.0
C      1  0.5608151730919  0.2425380027634  0.5928629622909 1.0
C      1  0.3778474934039  0.3169555613786  0.4907622600904 1.0
C      1  0.6721652640247  0.5892993786938  0.4983259824850 1.0
C      1  0.5977278567584  0.4023714714968  0.7065400871826 1.0
C      1  0.7025069388102  0.3486849340977  0.3453852447158 1.0
C      1  0.4524950856697  0.4832155366439  0.6263283860945 1.0
C      1  0.4865795356867  0.2864374878801  0.6273874713419 1.0
C      1  0.5197718395275  0.4341930339050  0.4627057884316 1.0
C      1  0.5808682853702  0.7816128668884  0.5356337672336 1.0
C      1  0.6497095128895  0.5285590935500  0.4210732812496 1.0
C      1  0.2467226661937  0.4321762072552  0.4836228264045 1.0
C      1  0.7286380942779  0.5206700248458  0.5454787168589 1.0
C      1  0.3611056698462  0.3713521887944  0.6548122217663 1.0
C      1  0.5011979936571  0.4407286778781  0.2324774639927 1.0
C      1  0.4777445303142  0.5086062352382  0.7240877881563 1.0
C      1  0.2808050170278  0.5160509545773  0.4572093576183 1.0
C      1  0.6802224575319  0.6795653330928  0.4538674853988 1.0
C      1  0.5297257025956  0.5769261277856  0.3275199622887 1.0
C      1  0.6337868468413  0.5817101062041  0.3365006995149 1.0
C      1  0.3450393333030  0.6098318088322  0.5756201437764 1.0
END
