TITL C-8371-7233-190 -1.96 3375.00 -315.24243046 0 0 40 () n - 1
REM
REM Run started: at 2020.12.26 19:31:45 in /gpfs/home/chem/mssmkc/CARBON/AIRSS/Generating-Clusters/Str-Search/Only-C1/C10-100
REM VASP from code version vasp.5.4.4.18Apr17-6-g9f103f2a35 (build Oct 11 2019 16:45:47) gamma-only
REM
REM
REM
REM
REM ./C.cell (67c5d0192afd7a3ce4a0888e5fe73b87)
REM AIRSS Version 0.9.1 bugfix July 2018 build 013d7b7c2542+ Fri, 06 Jul 2018 19:26:36 +0100
REM compiler GCC version 6.3.0
REM options -cpp -iprefix /gpfs/warwick/csc/orac/software/Core/GCCcore/6.3.0/bin/../lib/gcc/x86_64-pc-linux-gnu/6.3.0/ -mtune=generic -march=x86-64 -g -O0
REM seed 1453021362 -805583504 -1587310325 851975731 947028077 67887870 -435475477 977239631 -1009486612 1921360946 -446212427 -511543965
REM
REM C.POTCAR (d86ddea03c3ceb6dc662c8ad6801f873)
REM 
CELL 1.54180   15.00000   15.00000   15.00000   90.00000   90.00000   90.00000
LATT -1
SFAC C  
C      1  0.4444166703382  0.5155447262959  0.2932974927838 1.0
C      1  0.5018935850175  0.4404032294989  0.2735068885311 1.0
C      1  0.4060760593447  0.3884287625503  0.4055887410452 1.0
C      1  0.5009444322944  0.4553470305444  0.7036094082116 1.0
C      1  0.4767892453412  0.7173714786009  0.4464616596467 1.0
C      1  0.4817581434045  0.4151894591406  0.4501659837539 1.0
C      1  0.4358388217115  0.5990404086045  0.3365782081003 1.0
C      1  0.6656995353002  0.5233048557614  0.5286865456551 1.0
C      1  0.6810539150854  0.4378617073254  0.5536094589219 1.0
C      1  0.4830069552493  0.4461943428774  0.5426274282334 1.0
C      1  0.5585445470652  0.3252028081506  0.5814094438872 1.0
C      1  0.4601855956792  0.6007071282494  0.5858011899879 1.0
C      1  0.3108879578202  0.5100379339957  0.5795585267540 1.0
C      1  0.6142939355822  0.6336955944664  0.6358029127225 1.0
C      1  0.3506009208546  0.6013990617093  0.3753661062582 1.0
C      1  0.5839067230857  0.5323626259695  0.4629738039839 1.0
C      1  0.5883096643001  0.6209887011413  0.4180465155809 1.0
C      1  0.4022810247381  0.2953676393366  0.5313396420745 1.0
C      1  0.4166771008859  0.4262654878615  0.3140041517977 1.0
C      1  0.6373518403457  0.3578035499054  0.5308535761704 1.0
C      1  0.5662266220858  0.4455576188090  0.4146118858997 1.0
C      1  0.6497366774238  0.3553777751137  0.3410288414371 1.0
C      1  0.6321272972015  0.3688540475194  0.4347987201446 1.0
C      1  0.3484744931570  0.3555166805634  0.4827018828257 1.0
C      1  0.6259301331976  0.6732255799073  0.4878899086630 1.0
C      1  0.5030806101308  0.6558631497849  0.3813925509366 1.0
C      1  0.4209882680922  0.4986018101361  0.6986337866335 1.0
C      1  0.6668780527082  0.6179530942941  0.5577316014907 1.0
C      1  0.2801400183204  0.5201980658081  0.4923284308111 1.0
C      1  0.4832308802734  0.2762104293779  0.5514377518832 1.0
C      1  0.3044527024975  0.4329104909163  0.5219351143162 1.0
C      1  0.5276443888853  0.6756163509653  0.5994838098465 1.0
C      1  0.3824644467127  0.5482638992080  0.6357906004779 1.0
C      1  0.6107810091779  0.5736151092750  0.7067542961277 1.0
C      1  0.5436800158264  0.7192015970609  0.5172497168866 1.0
C      1  0.5823656644974  0.4176101264685  0.3183331731440 1.0
C      1  0.5745163013258  0.5054240138810  0.7374757729372 1.0
C      1  0.2849041825876  0.5755592778897  0.4190991850435 1.0
C      1  0.5108669760867  0.4034561524578  0.6209423751322 1.0
C      1  0.5009943863683  0.5384679985781  0.5310927112630 1.0
END
