TITL C-8371-7233-129 -2.354 3375.00 -389.23541818 0 0 49 () n - 1
REM
REM Run started: at 2020.12.26 05:31:50 in /gpfs/home/chem/mssmkc/CARBON/AIRSS/Generating-Clusters/Str-Search/Only-C1/C10-100
REM VASP from code version vasp.5.4.4.18Apr17-6-g9f103f2a35 (build Oct 11 2019 16:45:47) gamma-only
REM
REM
REM
REM
REM ./C.cell (67c5d0192afd7a3ce4a0888e5fe73b87)
REM AIRSS Version 0.9.1 bugfix July 2018 build 013d7b7c2542+ Fri, 06 Jul 2018 19:26:36 +0100
REM compiler GCC version 6.3.0
REM options -cpp -iprefix /gpfs/warwick/csc/orac/software/Core/GCCcore/6.3.0/bin/../lib/gcc/x86_64-pc-linux-gnu/6.3.0/ -mtune=generic -march=x86-64 -g -O0
REM seed 1696379474 2072418186 -699815913 -246705213 -373020390 914931771 1687394935 -2025144083 -657597542 1859284501 1824539756 454322754
REM
REM C.POTCAR (d86ddea03c3ceb6dc662c8ad6801f873)
REM 
CELL 1.54180   15.00000   15.00000   15.00000   90.00000   90.00000   90.00000
LATT -1
SFAC C  
C      1  0.3334150850783  0.5408551890451  0.6602452584073 1.0
C      1  0.3158744738283  0.5049518592716  0.3767738403465 1.0
C      1  0.6630222991888  0.5771562513682  0.5328660482518 1.0
C      1  0.6736706252427  0.5316261103786  0.4485971176494 1.0
C      1  0.5432087958867  0.6950931955642  0.4191718593010 1.0
C      1  0.3069425117186  0.4970342210155  0.5872259807438 1.0
C      1  0.6632389049955  0.3509825107563  0.4538020970264 1.0
C      1  0.4384871361622  0.7333454363083  0.5444608917359 1.0
C      1  0.5990400341781  0.2749148159819  0.5484948549377 1.0
C      1  0.2287445828268  0.4527722249184  0.5518742395834 1.0
C      1  0.5190499324630  0.6353568682771  0.3462731887656 1.0
C      1  0.6881031461923  0.5556842023169  0.6225900561381 1.0
C      1  0.4842305065033  0.3919706904261  0.3608093183571 1.0
C      1  0.5946710831119  0.2846771447768  0.4460044081803 1.0
C      1  0.5192629006012  0.2918380717982  0.5919530830203 1.0
C      1  0.3802606097320  0.4546623822822  0.5217893502351 1.0
C      1  0.2420234686373  0.4023531869611  0.4856503696463 1.0
C      1  0.5209229698163  0.5240543642892  0.5711970687108 1.0
C      1  0.5117630303154  0.7811432824205  0.5666796539155 1.0
C      1  0.5234223792775  0.4751273276974  0.3072936920188 1.0
C      1  0.3121252031097  0.6666284520736  0.4499760872790 1.0
C      1  0.4725900223799  0.4890354242705  0.4971744254825 1.0
C      1  0.6206982604717  0.7390664198598  0.3764460331076 1.0
C      1  0.5293817820926  0.6921726821293  0.5196212773920 1.0
C      1  0.6153194658846  0.6479239166231  0.3459896658349 1.0
C      1  0.5275783358536  0.4676932974639  0.6458366289779 1.0
C      1  0.3892932200587  0.5607268864000  0.7224854253072 1.0
C      1  0.7152994451993  0.3923554301087  0.6085024163315 1.0
C      1  0.3256310779885  0.4234343569971  0.4337662632308 1.0
C      1  0.4117053507478  0.3748908183768  0.5754415433509 1.0
C      1  0.4704898898406  0.5618398272816  0.3115414523612 1.0
C      1  0.3631401792923  0.7059496864285  0.5038010897513 1.0
C      1  0.3913997242046  0.3607647579782  0.3917939014078 1.0
C      1  0.5185324209475  0.2981009485024  0.3964898018701 1.0
C      1  0.4318108940327  0.2898234567560  0.4398718735664 1.0
C      1  0.3797650620289  0.5568815911393  0.3334986099014 1.0
C      1  0.5256429656407  0.4439241019607  0.4386543628050 1.0
C      1  0.6574344584168  0.5625876680367  0.3617591905264 1.0
C      1  0.6769516093076  0.3342367767677  0.5480197754976 1.0
C      1  0.6142428682408  0.5993940599982  0.6661918639450 1.0
C      1  0.7238734363872  0.4701397054935  0.6354774800123 1.0
C      1  0.5501017895043  0.5402948997756  0.7156185075833 1.0
C      1  0.4707234110428  0.5629086134639  0.7517303496377 1.0
C      1  0.4872706597107  0.3800372817912  0.6347993236796 1.0
C      1  0.3156827162058  0.5970221624562  0.3919514904937 1.0
C      1  0.4360658274744  0.2928203693736  0.5357219926740 1.0
C      1  0.5723283066923  0.6115776253823  0.5687161036413 1.0
C      1  0.6313314118181  0.4404580592940  0.4243868072096 1.0
C      1  0.6142358296694  0.4817114879641  0.3309838801706 1.0
END
