TITL C-8371-7233-171 -4.171 3375.00 -728.28841585 0 0 89 () n - 1
REM
REM Run started: at 2020.12.26 15:14:42 in /gpfs/home/chem/mssmkc/CARBON/AIRSS/Generating-Clusters/Str-Search/Only-C1/C10-100
REM VASP from code version vasp.5.4.4.18Apr17-6-g9f103f2a35 (build Oct 11 2019 16:45:47) gamma-only
REM
REM
REM
REM
REM ./C.cell (67c5d0192afd7a3ce4a0888e5fe73b87)
REM AIRSS Version 0.9.1 bugfix July 2018 build 013d7b7c2542+ Fri, 06 Jul 2018 19:26:36 +0100
REM compiler GCC version 6.3.0
REM options -cpp -iprefix /gpfs/warwick/csc/orac/software/Core/GCCcore/6.3.0/bin/../lib/gcc/x86_64-pc-linux-gnu/6.3.0/ -mtune=generic -march=x86-64 -g -O0
REM seed -253333983 1267773221 16625438 2134516988 -1971972786 2044850300 -1503694799 1915051786 -1642352046 -217474383 170985923 -1868993347
REM
REM C.POTCAR (d86ddea03c3ceb6dc662c8ad6801f873)
REM 
CELL 1.54180   15.00000   15.00000   15.00000   90.00000   90.00000   90.00000
LATT -1
SFAC C  
C      1  0.4746095360350  0.6376391256742  0.2807316659928 1.0
C      1  0.5489026608038  0.4604082860876  0.5566538337441 1.0
C      1  0.5598008360522  0.6651517512783  0.3209708136352 1.0
C      1  0.5422395132414  0.4166493645141  0.1890475352776 1.0
C      1  0.3584672776440  0.2875294311243  0.5221645721436 1.0
C      1  0.3930967612686  0.6538441586340  0.3356839244268 1.0
C      1  0.5741174444804  0.7571193334409  0.5811206290647 1.0
C      1  0.6406257468381  0.6103984150332  0.3139195434632 1.0
C      1  0.7944216989974  0.4259861460348  0.5860799155919 1.0
C      1  0.7655747030170  0.5139027879033  0.5896033942377 1.0
C      1  0.5172538485918  0.7143212493076  0.7427431705741 1.0
C      1  0.4461473861999  0.2494832527822  0.3323769722446 1.0
C      1  0.5185974118227  0.5054849842389  0.3969570697405 1.0
C      1  0.6781288876662  0.4566458259711  0.3106188793412 1.0
C      1  0.4425833791195  0.5958172601555  0.5680235854344 1.0
C      1  0.2743171200907  0.6433096452705  0.5153576938779 1.0
C      1  0.4740986179632  0.5557315844163  0.2339922784477 1.0
C      1  0.4873929746672  0.2886754823608  0.2606652145609 1.0
C      1  0.5517129149302  0.6366380335936  0.7987754562100 1.0
C      1  0.3814719647969  0.7186251740400  0.6599602514084 1.0
C      1  0.2720303699207  0.4021729275259  0.6015467121372 1.0
C      1  0.7367364740452  0.4754965477436  0.3877897479567 1.0
C      1  0.4071516339181  0.6074844778457  0.7884940219733 1.0
C      1  0.4023724257725  0.7095481704270  0.4136048487174 1.0
C      1  0.4714412267901  0.3785957399500  0.1353401717921 1.0
C      1  0.2843710887110  0.5758919093235  0.5894788991413 1.0
C      1  0.4892944896668  0.7451272114597  0.4407480054806 1.0
C      1  0.3751838391824  0.5363740893996  0.5769605109850 1.0
C      1  0.6237175625879  0.5987856980095  0.7516159399263 1.0
C      1  0.7629319427848  0.5655891905748  0.4134087671723 1.0
C      1  0.7188762203123  0.3999951618250  0.4476575175753 1.0
C      1  0.5562971540877  0.5079344920432  0.2121428938531 1.0
C      1  0.3487371753029  0.6948736612960  0.4922239059286 1.0
C      1  0.3920284047023  0.5066379855930  0.2819408287985 1.0
C      1  0.5705210915122  0.5813665560693  0.3927389866772 1.0
C      1  0.4826663872225  0.5906943703069  0.8406841002218 1.0
C      1  0.6101240626147  0.5004301922903  0.7213293865163 1.0
C      1  0.5271975878954  0.4388875294982  0.7408398758433 1.0
C      1  0.3157489494875  0.3666417964442  0.3654466089913 1.0
C      1  0.6238780763175  0.3720563573429  0.4285579428978 1.0
C      1  0.5719930074301  0.7281921012375  0.3941644859596 1.0
C      1  0.4621470307052  0.2185057857554  0.4246995283068 1.0
C      1  0.5829452611363  0.3122930635134  0.5102115782138 1.0
C      1  0.2410465381733  0.4530991655335  0.6667662370873 1.0
C      1  0.2839687700602  0.5326538724717  0.6858179960651 1.0
C      1  0.6853834647984  0.6563892403379  0.5982995773419 1.0
C      1  0.4148350479414  0.3814252760759  0.5051782438605 1.0
C      1  0.3668613600041  0.2346866505823  0.4411452438301 1.0
C      1  0.5324345160867  0.5605681260574  0.5604116496575 1.0
C      1  0.2677964859339  0.3409372897763  0.5265927211884 1.0
C      1  0.2680069537849  0.5148342130577  0.3482162679127 1.0
C      1  0.5799365769504  0.7341946058564  0.6768057978867 1.0
C      1  0.7076385461808  0.6377007111483  0.3834316401973 1.0
C      1  0.4113601355984  0.3989189413473  0.6617696224523 1.0
C      1  0.5097191921257  0.2373155472759  0.5031914629119 1.0
C      1  0.6076860807450  0.5621391678943  0.4859141480411 1.0
C      1  0.2391240537340  0.5556521489065  0.5023263782102 1.0
C      1  0.6536118908628  0.7212456081940  0.5337592618234 1.0
C      1  0.2355937489303  0.4883010000588  0.4370134944641 1.0
C      1  0.2538218002684  0.3895530439024  0.4457029251621 1.0
C      1  0.4933206522000  0.7547142219702  0.5351822115416 1.0
C      1  0.6627429264125  0.3254273467386  0.5787926213912 1.0
C      1  0.3372923526712  0.5798708229177  0.3226396165950 1.0
C      1  0.7363434582928  0.3704294361924  0.5346791600068 1.0
C      1  0.6493290444442  0.6660843705006  0.6844419487220 1.0
C      1  0.4225147224360  0.6974430467568  0.7344074162005 1.0
C      1  0.3708378585592  0.4366127269947  0.5809071410908 1.0
C      1  0.5075785748788  0.3737351435323  0.5520998339334 1.0
C      1  0.4365873815729  0.3186380134670  0.1841589384953 1.0
C      1  0.6419471822435  0.3513139031510  0.6710645445438 1.0
C      1  0.6580174171226  0.7104275311183  0.4374637760461 1.0
C      1  0.3049359311820  0.4438369736684  0.2990032459280 1.0
C      1  0.4292843296316  0.4566741066899  0.7333658921712 1.0
C      1  0.5790134737116  0.4642922182025  0.4634535902635 1.0
C      1  0.6859100936125  0.4312902868803  0.7095173327077 1.0
C      1  0.6225729680466  0.3786120700220  0.3269903416271 1.0
C      1  0.6831581987787  0.5625768617710  0.5651828136254 1.0
C      1  0.6021737043441  0.5170940681485  0.6193986609348 1.0
C      1  0.7636163707067  0.4601645430898  0.6701550930921 1.0
C      1  0.4405339320643  0.4713994560391  0.3636618547324 1.0
C      1  0.6376230748355  0.5272717346040  0.2613435448736 1.0
C      1  0.5642481601054  0.3517519420202  0.2603314345163 1.0
C      1  0.3995717888253  0.4058192794002  0.4120313716846 1.0
C      1  0.4422923293204  0.2529243022096  0.5781153183831 1.0
C      1  0.5517796348185  0.3522120913596  0.7018944643066 1.0
C      1  0.3493623192971  0.2705038367725  0.3566280068785 1.0
C      1  0.3672394896284  0.5329187680530  0.7446100077452 1.0
C      1  0.4767409420001  0.3280298341146  0.6393648085051 1.0
C      1  0.4126540797464  0.7013797478031  0.5697006768826 1.0
END
