TITL C-8371-7233-18 -3.624 3375.00 -636.31524977 0 0 77 () n - 1
REM
REM Run started: at 2020.12.25 03:03:32 in /gpfs/home/chem/mssmkc/CARBON/AIRSS/Generating-Clusters/Str-Search/Only-C1/C10-100
REM VASP from code version vasp.5.4.4.18Apr17-6-g9f103f2a35 (build Oct 11 2019 16:45:47) gamma-only
REM
REM
REM
REM
REM ./C.cell (67c5d0192afd7a3ce4a0888e5fe73b87)
REM AIRSS Version 0.9.1 bugfix July 2018 build 013d7b7c2542+ Fri, 06 Jul 2018 19:26:36 +0100
REM compiler GCC version 6.3.0
REM options -cpp -iprefix /gpfs/warwick/csc/orac/software/Core/GCCcore/6.3.0/bin/../lib/gcc/x86_64-pc-linux-gnu/6.3.0/ -mtune=generic -march=x86-64 -g -O0
REM seed 1218621381 -547198562 596207752 674468170 431295940 1068105271 2026727962 1310894150 808539440 -1601001521 -944314194 1544170283
REM
REM C.POTCAR (d86ddea03c3ceb6dc662c8ad6801f873)
REM 
CELL 1.54180   15.00000   15.00000   15.00000   90.00000   90.00000   90.00000
LATT -1
SFAC C  
C      1  0.5205102573900  0.4835729475443  0.3819363461360 1.0
C      1  0.6494947164218  0.2435487060386  0.5081879166838 1.0
C      1  0.2583935588249  0.4344611228654  0.4578755705079 1.0
C      1  0.6402655009310  0.4138346261659  0.6926544480369 1.0
C      1  0.7309030326110  0.5160197265816  0.5267775292196 1.0
C      1  0.7490207648239  0.4271036234352  0.5656487066518 1.0
C      1  0.5610661185390  0.2230135497302  0.4948807406455 1.0
C      1  0.3152114341068  0.6602489665671  0.6371693140462 1.0
C      1  0.4997975742377  0.2434293102935  0.5669797731635 1.0
C      1  0.6307655335703  0.5211519867077  0.4910832517453 1.0
C      1  0.5984475815968  0.7261684900418  0.4904262921223 1.0
C      1  0.4988913510432  0.6177679610638  0.4674971562077 1.0
C      1  0.5212427497338  0.2432000537908  0.4096761341017 1.0
C      1  0.2458345992951  0.6016788148884  0.6094102125839 1.0
C      1  0.6415803349427  0.7120250711107  0.4092090506318 1.0
C      1  0.4285789729506  0.2683474084987  0.4256904876508 1.0
C      1  0.3972865870459  0.4329888594580  0.5317421984604 1.0
C      1  0.4351531496309  0.6818360125716  0.3092544217988 1.0
C      1  0.4029654961925  0.6366882843973  0.6812347667057 1.0
C      1  0.3316782455644  0.3721356029443  0.4797071302853 1.0
C      1  0.6782794026853  0.2885548813304  0.5892782472410 1.0
C      1  0.5276730641112  0.3429850260145  0.2867558209155 1.0
C      1  0.7371274890972  0.3432645783998  0.5351839052132 1.0
C      1  0.4907594489856  0.4539571214801  0.5312977084473 1.0
C      1  0.4497454145453  0.5684168824211  0.7441214221008 1.0
C      1  0.4156650983182  0.2549151355941  0.5239897002255 1.0
C      1  0.4912315833265  0.4065542058139  0.2355772265679 1.0
C      1  0.5544158382005  0.6921669530583  0.6538598399897 1.0
C      1  0.5037807804870  0.5251837871161  0.5895542007386 1.0
C      1  0.5247568701760  0.2958836940056  0.6443271081594 1.0
C      1  0.3535892686700  0.3158015086282  0.5593458338521 1.0
C      1  0.2161939933551  0.4731988347244  0.5269616491540 1.0
C      1  0.5596448775766  0.4557204747845  0.4643889789697 1.0
C      1  0.2093083773085  0.6384210715692  0.5233180423756 1.0
C      1  0.3565458052742  0.4180651577964  0.3327523667305 1.0
C      1  0.4120272244292  0.4561022121956  0.2583243871258 1.0
C      1  0.3754042199679  0.3688588709489  0.6381167225860 1.0
C      1  0.4243302376302  0.5502468900820  0.2575156282989 1.0
C      1  0.5745044042533  0.2898896468025  0.3469686833640 1.0
C      1  0.3752140252481  0.3420932331747  0.3952195173915 1.0
C      1  0.6954278712889  0.5079507467934  0.3430005455169 1.0
C      1  0.5687948508856  0.4621173780595  0.7409763350039 1.0
C      1  0.6749476080309  0.6248831110723  0.6433365626907 1.0
C      1  0.4659774349232  0.6994244954154  0.6368589263769 1.0
C      1  0.5636467750905  0.4405106592327  0.2973262983530 1.0
C      1  0.4258502852849  0.5408593086811  0.6428571000911 1.0
C      1  0.6017814855330  0.6290038849257  0.7087669241917 1.0
C      1  0.2538290758534  0.6277223439247  0.4350253753372 1.0
C      1  0.4566890686128  0.3497427511842  0.6880231444227 1.0
C      1  0.2982837659598  0.5724138547805  0.3762008237220 1.0
C      1  0.6184690229598  0.3248061218013  0.6536374700342 1.0
C      1  0.6129689168500  0.6730502180764  0.5750281142676 1.0
C      1  0.5659795410772  0.5866735782452  0.5366524401433 1.0
C      1  0.4318292010451  0.7285923901265  0.5506007562679 1.0
C      1  0.3543352612528  0.4704350258711  0.6161803191634 1.0
C      1  0.2699725116979  0.7019392308566  0.4929917976545 1.0
C      1  0.4903202877677  0.6245709113716  0.2494014487621 1.0
C      1  0.4951499145464  0.7204808122266  0.4695542395711 1.0
C      1  0.7149198127537  0.4569218937432  0.6522438931995 1.0
C      1  0.7007673159461  0.3033449413039  0.4508690276963 1.0
C      1  0.7101230894229  0.5515430934445  0.4346443303041 1.0
C      1  0.4632416200285  0.5604189054750  0.4022111628024 1.0
C      1  0.6581895175391  0.4247765917725  0.3248688047357 1.0
C      1  0.5527649612639  0.5584791438645  0.7462176793881 1.0
C      1  0.2594890197244  0.5080015538455  0.6005388243931 1.0
C      1  0.6666353665450  0.5961603784806  0.3092275493209 1.0
C      1  0.4888260913407  0.7332231568993  0.3667267429808 1.0
C      1  0.4100088975327  0.4836350813003  0.7678910499721 1.0
C      1  0.4815227382518  0.4209778150637  0.7477810197268 1.0
C      1  0.5852335033454  0.6429131045763  0.2750897492172 1.0
C      1  0.7203446073035  0.5505438551667  0.6207769039641 1.0
C      1  0.3883669912249  0.5974965363244  0.3384806238276 1.0
C      1  0.2912749998130  0.4755063712163  0.3767115883362 1.0
C      1  0.5781113953536  0.7178476763633  0.3355757741290 1.0
C      1  0.7010380213311  0.6406028993193  0.3874972761737 1.0
C      1  0.6584280240195  0.3376438385197  0.3737589191389 1.0
C      1  0.3391762655019  0.7152851500411  0.5585720222916 1.0
END
