TITL C-8371-7233-127 -2.527 3375.00 -410.07646651 0 0 52 () n - 1
REM
REM Run started: at 2020.12.26 05:15:00 in /gpfs/home/chem/mssmkc/CARBON/AIRSS/Generating-Clusters/Str-Search/Only-C1/C10-100
REM VASP from code version vasp.5.4.4.18Apr17-6-g9f103f2a35 (build Oct 11 2019 16:45:47) gamma-only
REM
REM
REM
REM
REM ./C.cell (67c5d0192afd7a3ce4a0888e5fe73b87)
REM AIRSS Version 0.9.1 bugfix July 2018 build 013d7b7c2542+ Fri, 06 Jul 2018 19:26:36 +0100
REM compiler GCC version 6.3.0
REM options -cpp -iprefix /gpfs/warwick/csc/orac/software/Core/GCCcore/6.3.0/bin/../lib/gcc/x86_64-pc-linux-gnu/6.3.0/ -mtune=generic -march=x86-64 -g -O0
REM seed -1768213685 -473972044 -1763782162 1069086028 -248585007 132818652 -1417322368 -154383650 -2015841095 -2096448648 1482816804 1125443080
REM
REM C.POTCAR (d86ddea03c3ceb6dc662c8ad6801f873)
REM 
CELL 1.54180   15.00000   15.00000   15.00000   90.00000   90.00000   90.00000
LATT -1
SFAC C  
C      1  0.4916098795215  0.3363099507266  0.6664833106523 1.0
C      1  0.4998990895731  0.3538454025697  0.7557121357687 1.0
C      1  0.3653552783537  0.5330762747335  0.2958768199132 1.0
C      1  0.5081492637114  0.4758389313282  0.4327726433594 1.0
C      1  0.2982789969007  0.4598555896341  0.4222873104802 1.0
C      1  0.2644376855157  0.6223158647298  0.5634248873040 1.0
C      1  0.4807077778041  0.2931559648371  0.4383999910329 1.0
C      1  0.5613850584282  0.3667643700920  0.3231523390844 1.0
C      1  0.5457734758419  0.7183805163814  0.5581673008109 1.0
C      1  0.7037078339500  0.5303745114881  0.5279739497039 1.0
C      1  0.4775241887702  0.4153283183869  0.8083235305560 1.0
C      1  0.3276201772227  0.5394964493794  0.3807414740049 1.0
C      1  0.7189533536098  0.4464385586953  0.3861011270777 1.0
C      1  0.4829499414427  0.7860648936237  0.5641763147187 1.0
C      1  0.4785317602416  0.2981795386775  0.5327576892988 1.0
C      1  0.5174232260447  0.5377377035031  0.3697799030165 1.0
C      1  0.6069488043996  0.6513342637659  0.5658265236810 1.0
C      1  0.3996705080774  0.5458852278619  0.5222947632901 1.0
C      1  0.5515033868423  0.3069326340968  0.5938196892879 1.0
C      1  0.3583319590179  0.5171600818932  0.6110567728027 1.0
C      1  0.5731149472622  0.6085430556662  0.2798178611927 1.0
C      1  0.6748037034065  0.4905992151009  0.3190065780616 1.0
C      1  0.5978819608080  0.4451105911013  0.2793870678879 1.0
C      1  0.5654387371229  0.2960418865884  0.3809070912794 1.0
C      1  0.4697173744816  0.7287737218240  0.4921423680274 1.0
C      1  0.7175484656104  0.4474160763197  0.4775099802010 1.0
C      1  0.5323648848175  0.6348884123543  0.3766749327614 1.0
C      1  0.3033016466296  0.4085615099555  0.5036859436414 1.0
C      1  0.2845235227611  0.6596238581887  0.4867842291887 1.0
C      1  0.4320803792984  0.5179412852818  0.2479704443738 1.0
C      1  0.6023904337103  0.5757751526918  0.6348283025374 1.0
C      1  0.4494317384412  0.6712439178344  0.4239758361872 1.0
C      1  0.6979340550535  0.3702872673364  0.5308484327742 1.0
C      1  0.5163681594690  0.5297789815470  0.6136649781513 1.0
C      1  0.4402407217840  0.5361313767739  0.6708991136458 1.0
C      1  0.4187948327066  0.3469061643087  0.6005510420441 1.0
C      1  0.6393364476539  0.3276025060902  0.5711107807405 1.0
C      1  0.4444728272550  0.5312232960589  0.7610005707619 1.0
C      1  0.4561535188152  0.4989485449819  0.8407106081247 1.0
C      1  0.6571372165622  0.5889918547997  0.3207259551805 1.0
C      1  0.6586081042215  0.6127727244269  0.4933231926125 1.0
C      1  0.4852589104389  0.5119181001377  0.5225109072807 1.0
C      1  0.5282564071242  0.5179795549879  0.2687156754599 1.0
C      1  0.6344133598362  0.6310770201074  0.4057406572294 1.0
C      1  0.3508947231955  0.4128517796535  0.5856654981940 1.0
C      1  0.3647530246811  0.6085929013813  0.4484803910882 1.0
C      1  0.2710222716145  0.5658972029739  0.6296844049040 1.0
C      1  0.3285668753879  0.3702441463844  0.4210271344736 1.0
C      1  0.4875662161144  0.3916082088541  0.3831537130436 1.0
C      1  0.6958247556787  0.5280237400161  0.6212099221401 1.0
C      1  0.4073461147937  0.3355394250116  0.3896824198348 1.0
C      1  0.6756920179952  0.5646316748574  0.6994756911323 1.0
END
