TITL C-8371-7233-67 -1.25 3375.00 -198.00684465 0 0 25 () n - 1
REM
REM Run started: at 2020.12.25 14:17:54 in /gpfs/home/chem/mssmkc/CARBON/AIRSS/Generating-Clusters/Str-Search/Only-C1/C10-100
REM VASP from code version vasp.5.4.4.18Apr17-6-g9f103f2a35 (build Oct 11 2019 16:45:47) gamma-only
REM
REM
REM
REM
REM ./C.cell (67c5d0192afd7a3ce4a0888e5fe73b87)
REM AIRSS Version 0.9.1 bugfix July 2018 build 013d7b7c2542+ Fri, 06 Jul 2018 19:26:36 +0100
REM compiler GCC version 6.3.0
REM options -cpp -iprefix /gpfs/warwick/csc/orac/software/Core/GCCcore/6.3.0/bin/../lib/gcc/x86_64-pc-linux-gnu/6.3.0/ -mtune=generic -march=x86-64 -g -O0
REM seed 1998640513 1732253528 1847400433 -406086012 830537642 717043512 -644680291 695905 -428500392 56193606 1155616261 940163192
REM
REM C.POTCAR (d86ddea03c3ceb6dc662c8ad6801f873)
REM 
CELL 1.54180   15.00000   15.00000   15.00000   90.00000   90.00000   90.00000
LATT -1
SFAC C  
C      1  0.6617904715581  0.5125149433253  0.4666650032289 1.0
C      1  0.4281256881141  0.4517587397441  0.3763843795964 1.0
C      1  0.5526582140567  0.5463442829143  0.5955971045001 1.0
C      1  0.5350758822332  0.7038869029067  0.4709849479277 1.0
C      1  0.5474097235964  0.4497044590637  0.6249135120085 1.0
C      1  0.6315399995025  0.5819677356502  0.3995767575500 1.0
C      1  0.5614642354959  0.5543219297778  0.3430309086959 1.0
C      1  0.5909227913178  0.3620396693987  0.4830320829031 1.0
C      1  0.5342165215908  0.3290608471448  0.4120875149606 1.0
C      1  0.3490806323844  0.5463990940413  0.5041647906332 1.0
C      1  0.3723195248697  0.4069181743782  0.5344819733860 1.0
C      1  0.4092792908953  0.6191743269650  0.5302400303710 1.0
C      1  0.4871658859885  0.5172135057785  0.3421662330248 1.0
C      1  0.4688767565669  0.3648578297330  0.3757497919794 1.0
C      1  0.4544082064560  0.6837432894095  0.4849579011160 1.0
C      1  0.6176635623898  0.5756281475719  0.5333498347298 1.0
C      1  0.4616962371038  0.4321860597613  0.6623868924143 1.0
C      1  0.4079134442279  0.5108266286637  0.6514336006040 1.0
C      1  0.4602535620361  0.5787487108949  0.6067165555363 1.0
C      1  0.4457074955157  0.3716032186078  0.5828575197488 1.0
C      1  0.6547201007847  0.4245874264909  0.4567046387956 1.0
C      1  0.3464047270620  0.4877203975993  0.5822353198385 1.0
C      1  0.3721253428224  0.4674699311654  0.4505388851167 1.0
C      1  0.5430887191786  0.3745433046807  0.5625172105905 1.0
C      1  0.6060927842525  0.6467804443331  0.4672267107437 1.0
END
