TITL C-8371-7233-87 -1.242 3375.00 -181.89351774 0 0 23 () n - 1
REM
REM Run started: at 2020.12.25 18:24:51 in /gpfs/home/chem/mssmkc/CARBON/AIRSS/Generating-Clusters/Str-Search/Only-C1/C10-100
REM VASP from code version vasp.5.4.4.18Apr17-6-g9f103f2a35 (build Oct 11 2019 16:45:47) gamma-only
REM
REM
REM
REM
REM ./C.cell (67c5d0192afd7a3ce4a0888e5fe73b87)
REM AIRSS Version 0.9.1 bugfix July 2018 build 013d7b7c2542+ Fri, 06 Jul 2018 19:26:36 +0100
REM compiler GCC version 6.3.0
REM options -cpp -iprefix /gpfs/warwick/csc/orac/software/Core/GCCcore/6.3.0/bin/../lib/gcc/x86_64-pc-linux-gnu/6.3.0/ -mtune=generic -march=x86-64 -g -O0
REM seed 1629576344 146098023 -1047395408 2050044980 106848291 1350147116 -139254067 1050489182 1710959026 -375961406 -370498684 -1241869523
REM
REM C.POTCAR (d86ddea03c3ceb6dc662c8ad6801f873)
REM 
CELL 1.54180   15.00000   15.00000   15.00000   90.00000   90.00000   90.00000
LATT -1
SFAC C  
C      1  0.4863061219474  0.4834983081799  0.7182393158714 1.0
C      1  0.4598589426174  0.4522237969669  0.7923350153024 1.0
C      1  0.6281477413239  0.5612240747129  0.4318108750417 1.0
C      1  0.7634525288418  0.5748110954760  0.2320596801102 1.0
C      1  0.3113956049886  0.4271250800841  0.6399298205328 1.0
C      1  0.5530532894279  0.5489631623440  0.2610900302899 1.0
C      1  0.3737863208158  0.4980940201168  0.4169476326191 1.0
C      1  0.6957716968328  0.5639086047351  0.1745250645635 1.0
C      1  0.4237872444043  0.4130204752945  0.8644918626656 1.0
C      1  0.4691553734859  0.4964743228090  0.6291934115034 1.0
C      1  0.7771641816312  0.5811308219108  0.3154290030884 1.0
C      1  0.6093508857108  0.5621705217412  0.3373556859457 1.0
C      1  0.5318662690782  0.5260176447568  0.5692714131869 1.0
C      1  0.2722425034954  0.3618046565207  0.7964410723889 1.0
C      1  0.3751147197032  0.4686454890489  0.5886685913882 1.0
C      1  0.6134400384847  0.5539532732083  0.1867401573975 1.0
C      1  0.4646956117283  0.5299961882056  0.2761469342711 1.0
C      1  0.4114643902413  0.5153048407148  0.3398918533306 1.0
C      1  0.3660162860655  0.4839543457231  0.4992768532667 1.0
C      1  0.6960183551341  0.5737288365845  0.3660224442551 1.0
C      1  0.3446473305211  0.3831455588462  0.8409011894485 1.0
C      1  0.2864181700674  0.3940013352960  0.7132665265688 1.0
C      1  0.5868462934531  0.5468034467240  0.5099656669636 1.0
END
