TITL C-8371-7233-108 -1.904 3375.00 -308.92403389 0 0 38 () n - 1
REM
REM Run started: at 2020.12.25 23:29:02 in /gpfs/home/chem/mssmkc/CARBON/AIRSS/Generating-Clusters/Str-Search/Only-C1/C10-100
REM VASP from code version vasp.5.4.4.18Apr17-6-g9f103f2a35 (build Oct 11 2019 16:45:47) gamma-only
REM
REM
REM
REM
REM ./C.cell (67c5d0192afd7a3ce4a0888e5fe73b87)
REM AIRSS Version 0.9.1 bugfix July 2018 build 013d7b7c2542+ Fri, 06 Jul 2018 19:26:36 +0100
REM compiler GCC version 6.3.0
REM options -cpp -iprefix /gpfs/warwick/csc/orac/software/Core/GCCcore/6.3.0/bin/../lib/gcc/x86_64-pc-linux-gnu/6.3.0/ -mtune=generic -march=x86-64 -g -O0
REM seed 316618503 -1751028261 726468436 871944530 -2045840511 -1408873703 -898651639 -1134895642 -87870448 1620059325 -1836154064 1861729643
REM
REM C.POTCAR (d86ddea03c3ceb6dc662c8ad6801f873)
REM 
CELL 1.54180   15.00000   15.00000   15.00000   90.00000   90.00000   90.00000
LATT -1
SFAC C  
C      1  0.4957789551836  0.6640421215697  0.5181138848907 1.0
C      1  0.3214897506913  0.3845251919551  0.4600409114702 1.0
C      1  0.4300507821254  0.3682663674078  0.5947340887550 1.0
C      1  0.6953829133625  0.6052768270073  0.5416951321223 1.0
C      1  0.4988702687972  0.3132547196233  0.3940687071432 1.0
C      1  0.6776806573708  0.4625202122982  0.4912339961537 1.0
C      1  0.3243840535195  0.4861484863970  0.5843696129429 1.0
C      1  0.5423966915423  0.4993496379612  0.3069854258644 1.0
C      1  0.4442776369791  0.5765872509768  0.6667744827807 1.0
C      1  0.5824401721668  0.3771759123757  0.7010852059421 1.0
C      1  0.7013357835773  0.5126062576447  0.5669202006890 1.0
C      1  0.5472671945885  0.3373853473850  0.4687506899058 1.0
C      1  0.4420108490221  0.4846648375533  0.2965195967019 1.0
C      1  0.4308372074237  0.6514571079247  0.3736944932722 1.0
C      1  0.4554611367475  0.3269027719754  0.3244763126633 1.0
C      1  0.3315981119010  0.6259057036914  0.5032221413594 1.0
C      1  0.4380181916140  0.4260870076992  0.6721674353808 1.0
C      1  0.5740420453601  0.3269626613076  0.6346284011981 1.0
C      1  0.6542051341585  0.6177637114664  0.4583568360984 1.0
C      1  0.6050216470593  0.4684745024465  0.3698773788853 1.0
C      1  0.4327620193339  0.5803545140324  0.3047487811425 1.0
C      1  0.5693481585185  0.6648592696651  0.4496985951301 1.0
C      1  0.2946895608062  0.5597619049413  0.5360885226048 1.0
C      1  0.6662313160835  0.5810292642586  0.6262855379395 1.0
C      1  0.5146570691143  0.3288215374699  0.5625721263853 1.0
C      1  0.3988698084955  0.4044479226780  0.3185811085647 1.0
C      1  0.3487793090647  0.4012993601932  0.5470050468144 1.0
C      1  0.5211583250839  0.4450549145015  0.7184290703420 1.0
C      1  0.4099732668496  0.6570860200289  0.4653491302561 1.0
C      1  0.3843610322715  0.5053239336539  0.6555069999949 1.0
C      1  0.5303185033230  0.5942277652841  0.2965359503460 1.0
C      1  0.5279533487124  0.6606616186244  0.3665299621220 1.0
C      1  0.6613456499276  0.5291632242563  0.4208268315575 1.0
C      1  0.5258463925822  0.5399129727168  0.7101606652326 1.0
C      1  0.5013548661830  0.6338973254139  0.6085884863240 1.0
C      1  0.5808740674495  0.5970740210334  0.6606679140545 1.0
C      1  0.6124188056162  0.4034574625684  0.4462008743445 1.0
C      1  0.3265093173942  0.3982100320134  0.3785094626251 1.0
END
