TITL C-8371-7233-207 -3.122 3375.00 -517.11014091 0 0 64 () n - 1
REM
REM Run started: at 2020.12.26 22:48:55 in /gpfs/home/chem/mssmkc/CARBON/AIRSS/Generating-Clusters/Str-Search/Only-C1/C10-100
REM VASP from code version vasp.5.4.4.18Apr17-6-g9f103f2a35 (build Oct 11 2019 16:45:47) gamma-only
REM
REM
REM
REM
REM ./C.cell (67c5d0192afd7a3ce4a0888e5fe73b87)
REM AIRSS Version 0.9.1 bugfix July 2018 build 013d7b7c2542+ Fri, 06 Jul 2018 19:26:36 +0100
REM compiler GCC version 6.3.0
REM options -cpp -iprefix /gpfs/warwick/csc/orac/software/Core/GCCcore/6.3.0/bin/../lib/gcc/x86_64-pc-linux-gnu/6.3.0/ -mtune=generic -march=x86-64 -g -O0
REM seed 1482786391 -70840802 940604069 -924616494 1798487279 -868053749 1188384253 -1280672578 1326936663 239137457 1447146388 -1160176156
REM
REM C.POTCAR (d86ddea03c3ceb6dc662c8ad6801f873)
REM 
CELL 1.54180   15.00000   15.00000   15.00000   90.00000   90.00000   90.00000
LATT -1
SFAC C  
C      1  0.4060055677710  0.7163185928482  0.2665630773268 1.0
C      1  0.2214593041821  0.4238754262186  0.3511640652311 1.0
C      1  0.5598030679802  0.5284217631712  0.7458028944337 1.0
C      1  0.2469158000110  0.3855921717396  0.4971802862132 1.0
C      1  0.4240881110966  0.2931810402248  0.4205118707320 1.0
C      1  0.6773204773339  0.5850745383983  0.6533625509372 1.0
C      1  0.3420911487902  0.3091363767239  0.3935854632154 1.0
C      1  0.5884065855690  0.3365155180854  0.4009385002946 1.0
C      1  0.2321554529309  0.5457161107684  0.4604119737571 1.0
C      1  0.2121320191311  0.5026318173867  0.3771887730064 1.0
C      1  0.6538468985704  0.6628051401195  0.4759249629357 1.0
C      1  0.4338138538885  0.2351293787526  0.5733606668031 1.0
C      1  0.6358121345595  0.5415918481425  0.2821187834698 1.0
C      1  0.5895705754594  0.5495146181213  0.3629806148692 1.0
C      1  0.7064984245963  0.4419426844670  0.5979876811016 1.0
C      1  0.4070527795434  0.3471511670034  0.6900696690132 1.0
C      1  0.5445073699247  0.5556144689037  0.5889640173099 1.0
C      1  0.6755203922685  0.7355107986039  0.5301039846686 1.0
C      1  0.6472550262041  0.7978143316823  0.5845373105811 1.0
C      1  0.4372396003592  0.4203830616424  0.7421635385041 1.0
C      1  0.6784528126237  0.3781784175556  0.5342584402919 1.0
C      1  0.3555734075742  0.5663717848791  0.6767498241202 1.0
C      1  0.2826962224441  0.6245366276065  0.4693049043734 1.0
C      1  0.3640793547608  0.4798267092890  0.7056800572144 1.0
C      1  0.2783972495552  0.4096639235240  0.5824979197024 1.0
C      1  0.5630075468163  0.3172971794305  0.6442129634619 1.0
C      1  0.3498467917377  0.7213113038396  0.3317584339548 1.0
C      1  0.4671153320401  0.2895789288180  0.6420402029475 1.0
C      1  0.6080681719578  0.5985742350552  0.2112966705243 1.0
C      1  0.5949035801814  0.6348675571784  0.6333426543810 1.0
C      1  0.5404895579273  0.6503523628628  0.2057788161396 1.0
C      1  0.4743687957193  0.4485279119038  0.4725628093644 1.0
C      1  0.6529094977107  0.5233500321681  0.7199000609923 1.0
C      1  0.5201911832737  0.6153768075490  0.3865050979718 1.0
C      1  0.5063907768092  0.7087501334675  0.5285897897859 1.0
C      1  0.4746702960721  0.2435163737890  0.4902943615730 1.0
C      1  0.6223691611905  0.5052007068526  0.4479401461073 1.0
C      1  0.7053190754191  0.4756482754803  0.2953529519070 1.0
C      1  0.2676650929297  0.3583149957534  0.4044797028498 1.0
C      1  0.5938522101425  0.2993293621368  0.3138673056312 1.0
C      1  0.3482897558886  0.6721949863271  0.5078564602299 1.0
C      1  0.6846871600613  0.5726041650412  0.4916380803871 1.0
C      1  0.5933071050685  0.3814304070933  0.7067442155032 1.0
C      1  0.4259936154897  0.5886774394075  0.3958482823529 1.0
C      1  0.5528321428905  0.6745916110451  0.4498992689762 1.0
C      1  0.6618726637705  0.4063081934993  0.4366277135724 1.0
C      1  0.5157442641698  0.5902789067516  0.6774914013070 1.0
C      1  0.4706763339746  0.7037531702548  0.2094665396935 1.0
C      1  0.4952197391859  0.3629039713284  0.4333821907015 1.0
C      1  0.2325780976120  0.4723464504826  0.5236944191114 1.0
C      1  0.5846919782875  0.7211797773709  0.5900393871719 1.0
C      1  0.3297987331647  0.4022601178416  0.6573999114667 1.0
C      1  0.6707532930345  0.4342048948781  0.6869994346884 1.0
C      1  0.4219424486770  0.6791202561008  0.5674153923495 1.0
C      1  0.4204493936692  0.5065016411877  0.4290655333943 1.0
C      1  0.4232340633010  0.6240673774632  0.6518737830378 1.0
C      1  0.5626987279300  0.2847380626485  0.4844269559634 1.0
C      1  0.7226523042250  0.4294083320462  0.3619093096483 1.0
C      1  0.5278628171435  0.4392489165319  0.7525944308502 1.0
C      1  0.5857251818025  0.2785027620749  0.2330168902949 1.0
C      1  0.6116202709302  0.3146654325307  0.5609805384675 1.0
C      1  0.5451439924295  0.5004073415747  0.5185703329213 1.0
C      1  0.3548925981301  0.6588723189069  0.4055557948468 1.0
C      1  0.7154726121089  0.5392390854702  0.5761697353664 1.0
END
