TITL C-8371-7233-176 -2.433 3375.00 -415.55617017 0 0 51 () n - 1
REM
REM Run started: at 2020.12.26 16:06:58 in /gpfs/home/chem/mssmkc/CARBON/AIRSS/Generating-Clusters/Str-Search/Only-C1/C10-100
REM VASP from code version vasp.5.4.4.18Apr17-6-g9f103f2a35 (build Oct 11 2019 16:45:47) gamma-only
REM
REM
REM
REM
REM ./C.cell (67c5d0192afd7a3ce4a0888e5fe73b87)
REM AIRSS Version 0.9.1 bugfix July 2018 build 013d7b7c2542+ Fri, 06 Jul 2018 19:26:36 +0100
REM compiler GCC version 6.3.0
REM options -cpp -iprefix /gpfs/warwick/csc/orac/software/Core/GCCcore/6.3.0/bin/../lib/gcc/x86_64-pc-linux-gnu/6.3.0/ -mtune=generic -march=x86-64 -g -O0
REM seed -1350326564 718742210 1762713074 -1976908008 -1859583746 1791534022 -101448833 -1214074209 1091881281 916156557 -1470646029 -50287038
REM
REM C.POTCAR (d86ddea03c3ceb6dc662c8ad6801f873)
REM 
CELL 1.54180   15.00000   15.00000   15.00000   90.00000   90.00000   90.00000
LATT -1
SFAC C  
C      1  0.4758770627262  0.4597333476120  0.5414585712005 1.0
C      1  0.3400631125506  0.5775031872951  0.6971152521606 1.0
C      1  0.6554555673145  0.3493168869081  0.6258774794641 1.0
C      1  0.3095443309897  0.5517043493082  0.4347785673033 1.0
C      1  0.5031913213474  0.5046787704835  0.4630729140317 1.0
C      1  0.5903483132478  0.4051742145715  0.3334489350912 1.0
C      1  0.3142353455460  0.5937357886626  0.5245967813879 1.0
C      1  0.5841533907242  0.2973596458002  0.4944816386683 1.0
C      1  0.5087436436031  0.7081669681758  0.4190321667117 1.0
C      1  0.4392760674831  0.3654651533385  0.5247369920517 1.0
C      1  0.6426421540434  0.6337709231445  0.4073011581267 1.0
C      1  0.4479974256249  0.7080078538065  0.4983012558466 1.0
C      1  0.2784699962742  0.4693733514424  0.6378256584936 1.0
C      1  0.4301421530212  0.2561069732664  0.3923733578195 1.0
C      1  0.6156719696491  0.5018838401703  0.3232936980877 1.0
C      1  0.2880022819263  0.3997009894326  0.5816939743734 1.0
C      1  0.4952740366098  0.6409771081215  0.6549415277274 1.0
C      1  0.6539784621273  0.4413665845138  0.6618107461394 1.0
C      1  0.4195962675775  0.6167472105751  0.6977313567380 1.0
C      1  0.4128110320512  0.6057091416189  0.3314204312098 1.0
C      1  0.3474230715997  0.6294467888117  0.3959180816763 1.0
C      1  0.5949410878866  0.6925531836337  0.5481422512566 1.0
C      1  0.4951352311281  0.3532000383166  0.6074916553237 1.0
C      1  0.2915288464146  0.4971296829072  0.7332376329370 1.0
C      1  0.7126147230588  0.4707944091935  0.5894099367697 1.0
C      1  0.6703720843935  0.3913208409380  0.3895873929304 1.0
C      1  0.3606126277717  0.3041445783361  0.3769390966181 1.0
C      1  0.3404035837271  0.4714444923689  0.3860211492636 1.0
C      1  0.6960917109890  0.4831804840101  0.3805473289554 1.0
C      1  0.5755992460116  0.4916617261758  0.6756042565766 1.0
C      1  0.3088728308404  0.5556179450217  0.6057938170847 1.0
C      1  0.5006556346985  0.4463516913129  0.6335676573950 1.0
C      1  0.7094458621718  0.3756807049753  0.5525267832108 1.0
C      1  0.6981128955212  0.5532945181247  0.5487844789470 1.0
C      1  0.5053567035902  0.7019708980782  0.5780490294020 1.0
C      1  0.6657375540093  0.3435716595537  0.4709053402881 1.0
C      1  0.5770529083427  0.5858926757273  0.6568445493127 1.0
C      1  0.3638517506357  0.6705660163092  0.4830320399273 1.0
C      1  0.4032168272648  0.5105690199898  0.3129242819644 1.0
C      1  0.4969707494653  0.6478091219883  0.3435860160368 1.0
C      1  0.5822700239185  0.5447960535474  0.4320887860947 1.0
C      1  0.3370271601680  0.3711497397526  0.5141666789382 1.0
C      1  0.5811792289809  0.5937884829622  0.3387178015459 1.0
C      1  0.3206321959728  0.3775859186097  0.4137784157012 1.0
C      1  0.4962941349645  0.3160276900072  0.4459187793549 1.0
C      1  0.5091706730075  0.3843494625617  0.3731485265065 1.0
C      1  0.4541470745938  0.4650528225891  0.3811431394965 1.0
C      1  0.6392508502277  0.6185138109519  0.5932077595268 1.0
C      1  0.5763969952523  0.3077820832701  0.5900447664482 1.0
C      1  0.6860572403525  0.5542888534445  0.4505592077960 1.0
C      1  0.5981048586038  0.7039822182833  0.4530214000817 1.0
END
