TITL C-8371-7233-147 -4.631 3375.00 -778.25418066 0 0 96 () n - 1
REM
REM Run started: at 2020.12.26 09:44:12 in /gpfs/home/chem/mssmkc/CARBON/AIRSS/Generating-Clusters/Str-Search/Only-C1/C10-100
REM VASP from code version vasp.5.4.4.18Apr17-6-g9f103f2a35 (build Oct 11 2019 16:45:47) gamma-only
REM
REM
REM
REM
REM ./C.cell (67c5d0192afd7a3ce4a0888e5fe73b87)
REM AIRSS Version 0.9.1 bugfix July 2018 build 013d7b7c2542+ Fri, 06 Jul 2018 19:26:36 +0100
REM compiler GCC version 6.3.0
REM options -cpp -iprefix /gpfs/warwick/csc/orac/software/Core/GCCcore/6.3.0/bin/../lib/gcc/x86_64-pc-linux-gnu/6.3.0/ -mtune=generic -march=x86-64 -g -O0
REM seed 685896899 40992253 -347681036 -599148401 1912338985 1817009076 -2018946550 -914428285 -497977843 36444022 1446923708 -1907625187
REM
REM C.POTCAR (d86ddea03c3ceb6dc662c8ad6801f873)
REM 
CELL 1.54180   15.00000   15.00000   15.00000   90.00000   90.00000   90.00000
LATT -1
SFAC C  
C      1  0.6297613135553  0.7049889702028  0.5003435922466 1.0
C      1  0.7053557565790  0.5613596677454  0.6729971430567 1.0
C      1  0.4441988253462  0.3312686468599  0.7269012291136 1.0
C      1  0.6354858317882  0.2918305144612  0.4235364992372 1.0
C      1  0.6650376787348  0.6524775610146  0.6916276151390 1.0
C      1  0.5752462409283  0.6313048322283  0.7184560863488 1.0
C      1  0.7380002886091  0.6464492575774  0.3406284991317 1.0
C      1  0.3834744207921  0.6959193226571  0.5608028252374 1.0
C      1  0.2402568029268  0.2264994262342  0.5346065364459 1.0
C      1  0.6831496599079  0.6140938110389  0.4986194192332 1.0
C      1  0.4903341985127  0.6608469969506  0.6878274274083 1.0
C      1  0.5447160855435  0.5323626511536  0.4129341087438 1.0
C      1  0.5836704625282  0.7329812054730  0.4075487468957 1.0
C      1  0.4132646348362  0.3949684610957  0.5472628239869 1.0
C      1  0.5448501244241  0.4404036992337  0.4126667092878 1.0
C      1  0.7843684518436  0.5262377124318  0.6150576625382 1.0
C      1  0.6380159164408  0.2567032493674  0.6798061321637 1.0
C      1  0.7950757152030  0.3532682796716  0.5836457454427 1.0
C      1  0.2890605715580  0.4221637319526  0.4458462360364 1.0
C      1  0.6535431324080  0.4251012656292  0.2431075428749 1.0
C      1  0.4396716220894  0.3061630654674  0.3852652751996 1.0
C      1  0.5719034167290  0.2399567375807  0.4708145522104 1.0
C      1  0.4355072511460  0.2606661610677  0.7793926337560 1.0
C      1  0.6678553151640  0.6840263426454  0.2837241128533 1.0
C      1  0.6984990921572  0.5573158619677  0.5707314803235 1.0
C      1  0.4256233588559  0.5845116014200  0.7105567480170 1.0
C      1  0.4469416251529  0.7723719949194  0.2642940639210 1.0
C      1  0.3629242005985  0.5998970703152  0.2765879408685 1.0
C      1  0.5029173412855  0.5084632377485  0.2331709310930 1.0
C      1  0.2430067963251  0.4799922166905  0.6792152958301 1.0
C      1  0.3327174655576  0.5619601172923  0.7421599937575 1.0
C      1  0.2279154147204  0.6225400167071  0.6165503109511 1.0
C      1  0.6680500730020  0.4078177027632  0.7430090072120 1.0
C      1  0.4812352373080  0.5080857311132  0.7478722829121 1.0
C      1  0.2202071382929  0.3092737754598  0.4948698703189 1.0
C      1  0.2699102833233  0.3223453426543  0.4037155899705 1.0
C      1  0.4163838015380  0.8114596917491  0.3308266874547 1.0
C      1  0.4193343959565  0.3021564804744  0.5617723047237 1.0
C      1  0.3534083726547  0.2793655081759  0.4067799760647 1.0
C      1  0.5495653494408  0.2322316511118  0.6390838178660 1.0
C      1  0.2847903041714  0.5539896103569  0.3042297894243 1.0
C      1  0.4687654549445  0.2787555763456  0.6444666428297 1.0
C      1  0.3912731289927  0.5941121818880  0.5429102191928 1.0
C      1  0.4208382348762  0.7918287370460  0.4238488704472 1.0
C      1  0.2137539327675  0.4654731430061  0.5904793486364 1.0
C      1  0.4205961715592  0.4280831904631  0.7188790001076 1.0
C      1  0.4531861800445  0.5927160324465  0.2334930001993 1.0
C      1  0.6563686206411  0.3249261900203  0.7345700731034 1.0
C      1  0.3893908932724  0.2330553278311  0.4919473699774 1.0
C      1  0.5977853737940  0.2099591169791  0.5566382165282 1.0
C      1  0.7462673758463  0.2834273450438  0.5424975617725 1.0
C      1  0.6535578588377  0.4949913884250  0.7295779726860 1.0
C      1  0.7954335396102  0.4298696562438  0.6124441097717 1.0
C      1  0.6819097011835  0.2363818698364  0.5930029838318 1.0
C      1  0.1906006413244  0.5820817243026  0.4620111060234 1.0
C      1  0.2780581558054  0.6944964272992  0.5771783371586 1.0
C      1  0.7718287152538  0.3559366734069  0.3844202500402 1.0
C      1  0.2644761822304  0.4620202338908  0.2855813667774 1.0
C      1  0.4814108878634  0.2453864167962  0.4468371671835 1.0
C      1  0.2539487515793  0.4075595016463  0.3547544669253 1.0
C      1  0.6908041804542  0.7579983507929  0.5635123037217 1.0
C      1  0.3878618711878  0.4421508516477  0.4586999426172 1.0
C      1  0.3111205038181  0.1804011805572  0.5278438679481 1.0
C      1  0.4641666021980  0.5779819415688  0.4058639319102 1.0
C      1  0.6127643841372  0.3764868383159  0.3729536944106 1.0
C      1  0.7277059817507  0.2970712570553  0.4476914165552 1.0
C      1  0.4337440752867  0.6311008068215  0.3333555427440 1.0
C      1  0.4226854979823  0.4529785651287  0.6198960154434 1.0
C      1  0.3980503344793  0.5431491535453  0.4651101777054 1.0
C      1  0.5967163808755  0.4959800579105  0.2332356532046 1.0
C      1  0.5835799705375  0.7001208369726  0.3165224925440 1.0
C      1  0.4831442913373  0.4281810704014  0.2811913151749 1.0
C      1  0.3257373804289  0.4671612709440  0.7400819485836 1.0
C      1  0.5090079703662  0.7651915327884  0.4534481670068 1.0
C      1  0.7402987525261  0.6018796850598  0.4197203857400 1.0
C      1  0.7563660881173  0.6835661865444  0.2566052258884 1.0
C      1  0.4739150016078  0.7098751867980  0.6074966913563 1.0
C      1  0.2487067932746  0.5761675655786  0.6936992103425 1.0
C      1  0.5341539781289  0.7287258197951  0.5371755796072 1.0
C      1  0.8669943997503  0.5418908970980  0.4914593674699 1.0
C      1  0.4542485351022  0.4050739670322  0.3801362651465 1.0
C      1  0.2308126023404  0.3975529638870  0.5234455665341 1.0
C      1  0.4924168906848  0.6832471763204  0.2716127078830 1.0
C      1  0.8648479050254  0.5672850486233  0.5722410019373 1.0
C      1  0.7020000803647  0.4097031903242  0.3349847763676 1.0
C      1  0.5704152005855  0.3819344020906  0.2785550763658 1.0
C      1  0.2341181521068  0.5950449625711  0.3768173841209 1.0
C      1  0.5683031560430  0.5368698749425  0.7466126469949 1.0
C      1  0.8072490905653  0.5280179428001  0.4219556642158 1.0
C      1  0.4126655741196  0.5449565167090  0.6175667399618 1.0
C      1  0.7802980641913  0.4476944517568  0.3844946940911 1.0
C      1  0.1954396634240  0.5541143935419  0.5513171006871 1.0
C      1  0.2198613947331  0.6682434046132  0.4317488288943 1.0
C      1  0.6880813666918  0.7264665399843  0.6413195560144 1.0
C      1  0.2672833931910  0.7265741901451  0.4883395495488 1.0
C      1  0.3597504242246  0.7522817057577  0.4789063027738 1.0
END
