TITL C-8371-7233-198 -1.353 3375.00 -213.96079462 0 0 27 () n - 1
REM
REM Run started: at 2020.12.26 21:05:47 in /gpfs/home/chem/mssmkc/CARBON/AIRSS/Generating-Clusters/Str-Search/Only-C1/C10-100
REM VASP from code version vasp.5.4.4.18Apr17-6-g9f103f2a35 (build Oct 11 2019 16:45:47) gamma-only
REM
REM
REM
REM
REM ./C.cell (67c5d0192afd7a3ce4a0888e5fe73b87)
REM AIRSS Version 0.9.1 bugfix July 2018 build 013d7b7c2542+ Fri, 06 Jul 2018 19:26:36 +0100
REM compiler GCC version 6.3.0
REM options -cpp -iprefix /gpfs/warwick/csc/orac/software/Core/GCCcore/6.3.0/bin/../lib/gcc/x86_64-pc-linux-gnu/6.3.0/ -mtune=generic -march=x86-64 -g -O0
REM seed 890696300 -1436951163 2010862791 1691692970 -562264208 -1419255176 -345460274 -1189243939 -1080411167 -1276708879 1121241173 1170161924
REM
REM C.POTCAR (d86ddea03c3ceb6dc662c8ad6801f873)
REM 
CELL 1.54180   15.00000   15.00000   15.00000   90.00000   90.00000   90.00000
LATT -1
SFAC C  
C      1  0.5963560668159  0.4290635444857  0.4558491050486 1.0
C      1  0.5960693470319  0.5286936009632  0.7012449008077 1.0
C      1  0.3763175376069  0.4625103226375  0.3342857166254 1.0
C      1  0.3381363397893  0.5188181571132  0.4073035990441 1.0
C      1  0.3879923576877  0.3739681517866  0.3647770598966 1.0
C      1  0.4000932431123  0.5931904945530  0.3806658499220 1.0
C      1  0.6463671499906  0.4500851043709  0.5370040214377 1.0
C      1  0.5671312217428  0.4422660250515  0.6826164552630 1.0
C      1  0.6116877135766  0.5842522152286  0.4702974788114 1.0
C      1  0.3291083485595  0.4633236221088  0.4865249801648 1.0
C      1  0.5455440690473  0.6564145100784  0.4705693054422 1.0
C      1  0.4396295941501  0.5294901504010  0.3137707238475 1.0
C      1  0.6503014661368  0.5484262937462  0.5484535174308 1.0
C      1  0.5254977503403  0.3654588719225  0.4816926053603 1.0
C      1  0.4000280196842  0.4401051732573  0.6386819175686 1.0
C      1  0.5327179948641  0.3533550035301  0.5782837550091 1.0
C      1  0.4842789052578  0.4022017227871  0.6505344467047 1.0
C      1  0.6331436893085  0.5700353714310  0.6369975119898 1.0
C      1  0.4438169888423  0.3472222490164  0.4387671632520 1.0
C      1  0.3535269570139  0.4696861285752  0.5762602636179 1.0
C      1  0.4849679401620  0.6287516056973  0.4012558559869 1.0
C      1  0.5242533543454  0.5514067429166  0.3474016020356 1.0
C      1  0.5879990743888  0.5130212290392  0.4069783625084 1.0
C      1  0.5397813388881  0.7224727753719  0.5330469456238 1.0
C      1  0.5364022737342  0.7810283669859  0.5953047296887 1.0
C      1  0.3558171641919  0.3756479397721  0.4540473323486 1.0
C      1  0.6130341937306  0.3991049271726  0.6073850945639 1.0
END
