TITL C-8371-7233-103 -4.063 3375.00 -679.73825755 0 0 84 () n - 1
REM
REM Run started: at 2020.12.25 22:25:47 in /gpfs/home/chem/mssmkc/CARBON/AIRSS/Generating-Clusters/Str-Search/Only-C1/C10-100
REM VASP from code version vasp.5.4.4.18Apr17-6-g9f103f2a35 (build Oct 11 2019 16:45:47) gamma-only
REM
REM
REM
REM
REM ./C.cell (67c5d0192afd7a3ce4a0888e5fe73b87)
REM AIRSS Version 0.9.1 bugfix July 2018 build 013d7b7c2542+ Fri, 06 Jul 2018 19:26:36 +0100
REM compiler GCC version 6.3.0
REM options -cpp -iprefix /gpfs/warwick/csc/orac/software/Core/GCCcore/6.3.0/bin/../lib/gcc/x86_64-pc-linux-gnu/6.3.0/ -mtune=generic -march=x86-64 -g -O0
REM seed 1206730338 -1379600584 726268598 -574256551 -1239994271 1209505263 -1161621125 -613757527 1044821910 -61241612 -2013312344 765763284
REM
REM C.POTCAR (d86ddea03c3ceb6dc662c8ad6801f873)
REM 
CELL 1.54180   15.00000   15.00000   15.00000   90.00000   90.00000   90.00000
LATT -1
SFAC C  
C      1  0.4885581658912  0.3899925699801  0.5373026332982 1.0
C      1  0.3809662493064  0.6166988667562  0.2198509825195 1.0
C      1  0.6492441829853  0.6382761488020  0.7207680996033 1.0
C      1  0.3432798383530  0.4108853414887  0.4118232507126 1.0
C      1  0.5769877012936  0.6569688616758  0.3133566862473 1.0
C      1  0.3568522998419  0.6748718482030  0.4571942082750 1.0
C      1  0.4976132599406  0.2831221705393  0.3961075817886 1.0
C      1  0.1894701907852  0.5099515842212  0.4489664777285 1.0
C      1  0.5916598591945  0.4074581793587  0.7459861323621 1.0
C      1  0.2235757941439  0.4947975907212  0.3608140741329 1.0
C      1  0.4175789664742  0.2473764543655  0.4210855796587 1.0
C      1  0.5297260861197  0.7288267987192  0.4863970532881 1.0
C      1  0.2726968075891  0.5739154274731  0.3283294711096 1.0
C      1  0.3310041266562  0.4064438642251  0.5041798973346 1.0
C      1  0.4054656887490  0.6777236761594  0.6211499912301 1.0
C      1  0.3376072491230  0.5584221451163  0.7264549348774 1.0
C      1  0.2833937259974  0.4972535195223  0.6755103075662 1.0
C      1  0.3892895710939  0.3627104838551  0.6597898228557 1.0
C      1  0.5730563153796  0.5944232895719  0.7107811476070 1.0
C      1  0.6857251201701  0.7433371527629  0.4275847884895 1.0
C      1  0.2847129437531  0.4251138391348  0.3394327974355 1.0
C      1  0.7151230912588  0.3862217630279  0.3901641993243 1.0
C      1  0.5303856474900  0.4383729051558  0.4596171452850 1.0
C      1  0.2422205905309  0.3635898233114  0.5176999452985 1.0
C      1  0.4428666603393  0.7784948891641  0.6337852179804 1.0
C      1  0.6174811909646  0.3235278226156  0.7015720593626 1.0
C      1  0.5946613378179  0.7779243130680  0.4307304850750 1.0
C      1  0.6828470575644  0.6823449399882  0.5721830573798 1.0
C      1  0.6788958386373  0.5129698205165  0.2865015777306 1.0
C      1  0.6286329200211  0.2634081741123  0.5062627259769 1.0
C      1  0.5969724117489  0.2742924799054  0.4138469118215 1.0
C      1  0.6423022138567  0.3345226681237  0.3542608415983 1.0
C      1  0.3393504765474  0.4234039802532  0.7149957359591 1.0
C      1  0.4576915620804  0.6761392485025  0.4338395044127 1.0
C      1  0.7225717640181  0.4769229858540  0.3621378108029 1.0
C      1  0.5666281782002  0.3880544314128  0.2930714713799 1.0
C      1  0.6623663537913  0.3664007984755  0.6274021121860 1.0
C      1  0.2017085847413  0.4539688000663  0.5265327973792 1.0
C      1  0.6902168655667  0.3278004242022  0.5426224406250 1.0
C      1  0.5770582427559  0.5291057578542  0.6318565777061 1.0
C      1  0.5973918189479  0.4798357784717  0.2629457207164 1.0
C      1  0.4965252349329  0.3641669034983  0.2223727694803 1.0
C      1  0.5819735852774  0.6726466433819  0.5537823532159 1.0
C      1  0.6215789085166  0.4512656165872  0.6552349145747 1.0
C      1  0.2384961468734  0.5165100551548  0.5970000983541 1.0
C      1  0.4793503241775  0.5838767289244  0.4704498908023 1.0
C      1  0.8018537515658  0.4482838698914  0.5204441054519 1.0
C      1  0.6090640121423  0.5112747396745  0.4751430383534 1.0
C      1  0.5025210454279  0.3837074471954  0.3717982155548 1.0
C      1  0.4696912417576  0.5045497064494  0.7960783951246 1.0
C      1  0.7446048409198  0.3803350178163  0.4851324538809 1.0
C      1  0.5619658254288  0.2351250033376  0.5706161171630 1.0
C      1  0.2607876067506  0.2795217812716  0.4867001161014 1.0
C      1  0.5509013811197  0.2638503419821  0.6669239893007 1.0
C      1  0.3361106115294  0.2476967908546  0.4508325600364 1.0
C      1  0.8180697172840  0.5385545218485  0.4977974734551 1.0
C      1  0.2562009467431  0.6038503750434  0.5564698158229 1.0
C      1  0.3329484084566  0.5492626568870  0.2567171889120 1.0
C      1  0.4239772856918  0.6733387135443  0.2667221911289 1.0
C      1  0.4221581728447  0.4449818628862  0.3640266864992 1.0
C      1  0.6254617232559  0.7255916866473  0.3572723058175 1.0
C      1  0.5337096289643  0.4374433370029  0.8049478874285 1.0
C      1  0.2223683780143  0.5984021833780  0.4698235528032 1.0
C      1  0.8119572785341  0.5140068998020  0.5919492923535 1.0
C      1  0.7298389287818  0.6897963688973  0.4881328313376 1.0
C      1  0.4200949340697  0.3972187023194  0.2184744505728 1.0
C      1  0.6870783130485  0.5353117074460  0.4326571166451 1.0
C      1  0.3787139370127  0.4845702593313  0.7772476829262 1.0
C      1  0.4844504987167  0.5887764936740  0.7506858426188 1.0
C      1  0.3595833462167  0.4535818875851  0.2722621742411 1.0
C      1  0.7786203714410  0.5681048877012  0.6542020588180 1.0
C      1  0.3382991211560  0.6591063265663  0.5514212348917 1.0
C      1  0.5608815335724  0.5727225838760  0.5398431973780 1.0
C      1  0.4821551942084  0.6761450610120  0.3336191411763 1.0
C      1  0.5002206209880  0.7191897503732  0.5920590935740 1.0
C      1  0.4655734516035  0.5071060948131  0.4277395831054 1.0
C      1  0.4965339932874  0.3019213789495  0.5720553344343 1.0
C      1  0.6066896369482  0.5751618858910  0.2790070430283 1.0
C      1  0.4056180544991  0.6197010626599  0.7026832331515 1.0
C      1  0.7546378122106  0.5990136617780  0.4616751265693 1.0
C      1  0.7146299110204  0.6366142812778  0.6522227394560 1.0
C      1  0.2843090452806  0.6334565657337  0.4042185473900 1.0
C      1  0.3988754471223  0.4025629276628  0.5671420243362 1.0
C      1  0.4550828428877  0.2958237126599  0.6595217766134 1.0
END
