TITL C-8371-7233-90 -3.352 3375.00 -574.42226370 0 0 71 () n - 1
REM
REM Run started: at 2020.12.25 18:54:48 in /gpfs/home/chem/mssmkc/CARBON/AIRSS/Generating-Clusters/Str-Search/Only-C1/C10-100
REM VASP from code version vasp.5.4.4.18Apr17-6-g9f103f2a35 (build Oct 11 2019 16:45:47) gamma-only
REM
REM
REM
REM
REM ./C.cell (67c5d0192afd7a3ce4a0888e5fe73b87)
REM AIRSS Version 0.9.1 bugfix July 2018 build 013d7b7c2542+ Fri, 06 Jul 2018 19:26:36 +0100
REM compiler GCC version 6.3.0
REM options -cpp -iprefix /gpfs/warwick/csc/orac/software/Core/GCCcore/6.3.0/bin/../lib/gcc/x86_64-pc-linux-gnu/6.3.0/ -mtune=generic -march=x86-64 -g -O0
REM seed -1894307488 1169558907 1456296435 665229466 1471205844 -118211025 81492983 1111430276 -442950098 -656622489 -578001512 766480198
REM
REM C.POTCAR (d86ddea03c3ceb6dc662c8ad6801f873)
REM 
CELL 1.54180   15.00000   15.00000   15.00000   90.00000   90.00000   90.00000
LATT -1
SFAC C  
C      1  0.7401392984831  0.5869442986179  0.4101398445260 1.0
C      1  0.4173671175560  0.7181908004955  0.5149506351209 1.0
C      1  0.6526106831405  0.4956630126173  0.2520525671285 1.0
C      1  0.6283236472970  0.4071571018132  0.2785332510337 1.0
C      1  0.4443912914071  0.2189936163331  0.5490746926535 1.0
C      1  0.5775936093120  0.2574095623888  0.5686100752111 1.0
C      1  0.3911393471567  0.4590695969244  0.3242884314711 1.0
C      1  0.3389442054921  0.3612950199117  0.5006071782683 1.0
C      1  0.6327246044453  0.6993903500091  0.5995650102318 1.0
C      1  0.4972062433412  0.2414455921701  0.6275036605031 1.0
C      1  0.4566068524764  0.4354214045359  0.3968684990158 1.0
C      1  0.6404153491582  0.3342220273336  0.5798279548049 1.0
C      1  0.5073455738447  0.5451616757936  0.7233859771830 1.0
C      1  0.2742254097484  0.4063896754749  0.4347038293582 1.0
C      1  0.5956774942967  0.5399260035534  0.7341976239611 1.0
C      1  0.6824661681388  0.3659550981156  0.4155473344570 1.0
C      1  0.3197682250448  0.4887161202412  0.6283750107607 1.0
C      1  0.5138288171761  0.7406031277216  0.4758525326409 1.0
C      1  0.5306770546470  0.5896582193177  0.5688267533614 1.0
C      1  0.7561779504321  0.4982875246766  0.4376113642776 1.0
C      1  0.6145110549152  0.3982844243050  0.6555071471324 1.0
C      1  0.5095138679592  0.4186511188332  0.5204116076854 1.0
C      1  0.4735836288604  0.2741532682464  0.4279287481055 1.0
C      1  0.6963700135160  0.6326097394290  0.5644489584122 1.0
C      1  0.4242849526817  0.5026794109972  0.2544830879669 1.0
C      1  0.7470443471235  0.4253209586020  0.3753260280820 1.0
C      1  0.6303326025529  0.5870732717435  0.2691286315850 1.0
C      1  0.6998621758595  0.5349927847471  0.5943928314085 1.0
C      1  0.5431433555024  0.6209536321083  0.2624430867506 1.0
C      1  0.3021334024360  0.4651187482538  0.3613904433347 1.0
C      1  0.4903091269674  0.5196003774222  0.6215942288711 1.0
C      1  0.7183070213739  0.4403119222459  0.2874970345312 1.0
C      1  0.6871070939695  0.3791551124956  0.5135348941788 1.0
C      1  0.6886776843481  0.6301305286152  0.3356452613103 1.0
C      1  0.3814229286576  0.6316395428283  0.6604048932274 1.0
C      1  0.5100973016513  0.3487043619162  0.3882926809412 1.0
C      1  0.5726959465294  0.7476242383417  0.5531478670312 1.0
C      1  0.7247116104395  0.4715461930832  0.5258449214849 1.0
C      1  0.6604427228109  0.6998331834542  0.3944381457044 1.0
C      1  0.5266891370706  0.4294958997648  0.6156871136060 1.0
C      1  0.5361532263555  0.6760604489751  0.6149211543715 1.0
C      1  0.4112413710911  0.6524868260115  0.3144807847817 1.0
C      1  0.4692703945274  0.2976440603841  0.6947600095726 1.0
C      1  0.3424725814668  0.6375512629683  0.3761498609962 1.0
C      1  0.3461220989337  0.6743792684657  0.4678650018510 1.0
C      1  0.2798356449066  0.4052316264800  0.5832108030839 1.0
C      1  0.3765012866242  0.3163487712592  0.7126787580139 1.0
C      1  0.2385032340572  0.5501320548963  0.4714519298300 1.0
C      1  0.4150476494277  0.4311894477667  0.4957132702936 1.0
C      1  0.3228495157346  0.5828237925470  0.5998975033621 1.0
C      1  0.5075683054823  0.6810642331130  0.3328422683887 1.0
C      1  0.5679659107880  0.7398783034434  0.3889654157898 1.0
C      1  0.2951060407381  0.3490646362394  0.6734330631834 1.0
C      1  0.3496226553794  0.4895183485490  0.7239028797124 1.0
C      1  0.3385057531997  0.3991612817040  0.7430008668171 1.0
C      1  0.7116197187510  0.6516752905372  0.4729493440772 1.0
C      1  0.5262250760654  0.2240007256926  0.4939391200537 1.0
C      1  0.5282332343170  0.6523079669199  0.4264806746687 1.0
C      1  0.2868547718001  0.6147460966719  0.5185815527297 1.0
C      1  0.6035693822960  0.3599961868455  0.3582958973463 1.0
C      1  0.4363167777815  0.6926274144392  0.6122995757346 1.0
C      1  0.4105425793537  0.5652702765730  0.7293279915343 1.0
C      1  0.2817260873666  0.5554000006077  0.3832226700380 1.0
C      1  0.3940756052481  0.2743313718873  0.4888391022020 1.0
C      1  0.6505933324605  0.4959965681958  0.6715037130043 1.0
C      1  0.5402939191735  0.5746233320832  0.4768931239271 1.0
C      1  0.2294873622462  0.4544986433309  0.5011867454817 1.0
C      1  0.5272906748470  0.3752366392545  0.6973832276684 1.0
C      1  0.4522011884490  0.5883911963358  0.2493006920649 1.0
C      1  0.3999794514138  0.5047108459218  0.5711175908058 1.0
C      1  0.5253559518988  0.4858746364231  0.4533355712967 1.0
END
