TITL C-8371-7233-8 -2.789 3375.00 -461.71942153 0 0 58 () n - 1
REM
REM Run started: at 2020.12.25 00:52:30 in /gpfs/home/chem/mssmkc/CARBON/AIRSS/Generating-Clusters/Str-Search/Only-C1/C10-100
REM VASP from code version vasp.5.4.4.18Apr17-6-g9f103f2a35 (build Oct 11 2019 16:45:47) gamma-only
REM
REM
REM
REM
REM ./C.cell (67c5d0192afd7a3ce4a0888e5fe73b87)
REM AIRSS Version 0.9.1 bugfix July 2018 build 013d7b7c2542+ Fri, 06 Jul 2018 19:26:36 +0100
REM compiler GCC version 6.3.0
REM options -cpp -iprefix /gpfs/warwick/csc/orac/software/Core/GCCcore/6.3.0/bin/../lib/gcc/x86_64-pc-linux-gnu/6.3.0/ -mtune=generic -march=x86-64 -g -O0
REM seed -1444412583 -133119188 -1692739444 188936035 977933750 -65901924 1607466477 -717646122 -557375306 -1662826764 -1117306422 -302352340
REM
REM C.POTCAR (d86ddea03c3ceb6dc662c8ad6801f873)
REM 
CELL 1.54180   15.00000   15.00000   15.00000   90.00000   90.00000   90.00000
LATT -1
SFAC C  
C      1  0.3252595282852  0.5322518909496  0.2849215165401 1.0
C      1  0.4004754486423  0.3233018567437  0.3638636207812 1.0
C      1  0.4048823884227  0.2964240460448  0.4568001625504 1.0
C      1  0.3394764901390  0.3953922322645  0.3426258124518 1.0
C      1  0.5347616494449  0.5629302372244  0.5057432254835 1.0
C      1  0.4597139844782  0.2823856775371  0.6096807699337 1.0
C      1  0.6077196649432  0.6214617155098  0.6725623643069 1.0
C      1  0.3446617940176  0.4078603525502  0.6563541782276 1.0
C      1  0.6231569267716  0.5697767229027  0.4861527097600 1.0
C      1  0.3877647662285  0.5301463167707  0.7507583761119 1.0
C      1  0.3132970447803  0.4721235888536  0.5899427029727 1.0
C      1  0.3117523246424  0.6201750417586  0.4389175304524 1.0
C      1  0.3672169757171  0.4505884096202  0.7356545451271 1.0
C      1  0.6888043272850  0.7143108237361  0.5725163815048 1.0
C      1  0.2703312321081  0.6022667702084  0.5187221711390 1.0
C      1  0.5457387597515  0.3308994363347  0.2728847356675 1.0
C      1  0.6085870070489  0.6971881296472  0.6175328759701 1.0
C      1  0.4377563769493  0.5925508554948  0.7022829555979 1.0
C      1  0.6633817973912  0.6084961559282  0.3498731102743 1.0
C      1  0.5961487528625  0.6115250300348  0.2847600188614 1.0
C      1  0.2980818258727  0.5483006246273  0.3757050971890 1.0
C      1  0.6934367666746  0.3836297722788  0.5972544634185 1.0
C      1  0.4880461060290  0.6873191745769  0.4001256426696 1.0
C      1  0.5306744772116  0.7146473513778  0.5517652939268 1.0
C      1  0.3030054503380  0.4558606154730  0.4144395006814 1.0
C      1  0.5595258421933  0.3362995546613  0.5116318941810 1.0
C      1  0.6594679709178  0.5326411532960  0.6752228385303 1.0
C      1  0.5826771444498  0.4144710016216  0.4442807645619 1.0
C      1  0.4808818196584  0.2742524538639  0.5114271777921 1.0
C      1  0.5038089849820  0.4556826378926  0.4036559122188 1.0
C      1  0.5442781607793  0.4062329258506  0.6594877230907 1.0
C      1  0.4689460966772  0.5959885318368  0.4436402134037 1.0
C      1  0.5388042571628  0.3053773647359  0.6654552608110 1.0
C      1  0.6495151301201  0.6566815803040  0.4413656395965 1.0
C      1  0.5610075486307  0.7128901951432  0.4590465171166 1.0
C      1  0.3186502113447  0.5702828018313  0.5915534289055 1.0
C      1  0.4724508821298  0.3070917052776  0.3049215836853 1.0
C      1  0.3065340266203  0.4248333513244  0.5039733624883 1.0
C      1  0.6653631668656  0.4815038690498  0.4544893182600 1.0
C      1  0.4039411677819  0.6661473930093  0.4601090707593 1.0
C      1  0.4350518242037  0.6867673003677  0.5572054650567 1.0
C      1  0.3341146030545  0.4494433104609  0.2651491129846 1.0
C      1  0.5121674639264  0.6219406561320  0.3224516150301 1.0
C      1  0.3734950309943  0.3274014125287  0.6113610755533 1.0
C      1  0.5171912562641  0.4134919397313  0.5677593514785 1.0
C      1  0.5313008820844  0.5745557402212  0.7045128369017 1.0
C      1  0.6879459803380  0.5142247340279  0.3574036071399 1.0
C      1  0.3935803168488  0.6291969396599  0.6246202904441 1.0
C      1  0.3444671931749  0.3373883254684  0.5196339356488 1.0
C      1  0.6126509855433  0.3294176000964  0.5994994757548 1.0
C      1  0.6194421496827  0.3829884179542  0.2735615613901 1.0
C      1  0.7201025511324  0.7065040898074  0.4952941830951 1.0
C      1  0.5052082826105  0.4732669080237  0.5017813005286 1.0
C      1  0.5764104141409  0.4892348275380  0.7045642387614 1.0
C      1  0.7186008491585  0.4462598372818  0.5330086255169 1.0
C      1  0.4795324115242  0.5390212324284  0.3653306892027 1.0
C      1  0.7109054920268  0.4779975396945  0.6216965009799 1.0
C      1  0.6678478369426  0.4487102404315  0.2930654675324 1.0
END
