TITL C-8371-7233-10 -2.496 3375.00 -414.25503111 0 0 52 () n - 1
REM
REM Run started: at 2020.12.25 01:07:38 in /gpfs/home/chem/mssmkc/CARBON/AIRSS/Generating-Clusters/Str-Search/Only-C1/C10-100
REM VASP from code version vasp.5.4.4.18Apr17-6-g9f103f2a35 (build Oct 11 2019 16:45:47) gamma-only
REM
REM
REM
REM
REM ./C.cell (67c5d0192afd7a3ce4a0888e5fe73b87)
REM AIRSS Version 0.9.1 bugfix July 2018 build 013d7b7c2542+ Fri, 06 Jul 2018 19:26:36 +0100
REM compiler GCC version 6.3.0
REM options -cpp -iprefix /gpfs/warwick/csc/orac/software/Core/GCCcore/6.3.0/bin/../lib/gcc/x86_64-pc-linux-gnu/6.3.0/ -mtune=generic -march=x86-64 -g -O0
REM seed -1635674844 -977126444 12510686 584317958 518450006 -754773794 1822123237 502687060 -164153545 1370651344 -1096462080 1904352576
REM
REM C.POTCAR (d86ddea03c3ceb6dc662c8ad6801f873)
REM 
CELL 1.54180   15.00000   15.00000   15.00000   90.00000   90.00000   90.00000
LATT -1
SFAC C  
C      1  0.5674852148742  0.2655716366826  0.5937699457940 1.0
C      1  0.4855443863191  0.6541128844244  0.4514134372316 1.0
C      1  0.4321852952458  0.6186328709229  0.6950968867221 1.0
C      1  0.6641958963892  0.4601863663652  0.3645303710301 1.0
C      1  0.2572366599593  0.4539896604631  0.5161335759598 1.0
C      1  0.4411228237021  0.3711887152348  0.6015352010188 1.0
C      1  0.3946027982130  0.6352496787994  0.4118818429324 1.0
C      1  0.5924655785475  0.3583409597491  0.6960134755043 1.0
C      1  0.6802457152887  0.5892718517785  0.5811924898308 1.0
C      1  0.5568564800788  0.7190308298571  0.4322783367766 1.0
C      1  0.7032083981537  0.5312372503461  0.4965158888884 1.0
C      1  0.4530337097650  0.5097635289062  0.5295441805023 1.0
C      1  0.5193146534518  0.3152750325609  0.6558730344210 1.0
C      1  0.4243478489826  0.4152566775626  0.3115856500788 1.0
C      1  0.2784855721984  0.5144512697714  0.4463155794346 1.0
C      1  0.4801832687368  0.4690707640941  0.6145740983937 1.0
C      1  0.5078119557246  0.6132972485089  0.3000924789348 1.0
C      1  0.4954639714805  0.4757545146373  0.4583912677788 1.0
C      1  0.2996245308997  0.3649666805158  0.5211150093910 1.0
C      1  0.3239775933931  0.6025687630746  0.4685055348174 1.0
C      1  0.4179451432612  0.5918025480623  0.3278255395906 1.0
C      1  0.3128299988674  0.6234465321267  0.5615876036789 1.0
C      1  0.3653068820046  0.3424419469879  0.4547953113527 1.0
C      1  0.6876953204946  0.5493908790467  0.3950446352020 1.0
C      1  0.6258473239886  0.7210200257509  0.4961650028656 1.0
C      1  0.4785354589265  0.5317514272530  0.7009357563868 1.0
C      1  0.6418433311983  0.6072337374614  0.3366974933594 1.0
C      1  0.5242245189512  0.3791704567500  0.4369597430059 1.0
C      1  0.5714500999752  0.6745264400122  0.3497460996692 1.0
C      1  0.5780309481334  0.5514170253080  0.2838319435427 1.0
C      1  0.5136566989817  0.4015118750423  0.3335029918221 1.0
C      1  0.3781261928647  0.5067845241504  0.3101304553456 1.0
C      1  0.5210462265074  0.5692617568546  0.4884629829372 1.0
C      1  0.6167566765753  0.3392053109593  0.4612424928819 1.0
C      1  0.3533803752554  0.3824262360601  0.3680486918503 1.0
C      1  0.5878093298644  0.4590921783813  0.3074652237364 1.0
C      1  0.5697940850778  0.5734948335417  0.7163288808430 1.0
C      1  0.2828104515648  0.4693032024194  0.6081456474748 1.0
C      1  0.7292071453598  0.4350895027212  0.5073891294606 1.0
C      1  0.3365257783191  0.3832231197792  0.6069177665778 1.0
C      1  0.6871469375413  0.3964323043621  0.4323923591824 1.0
C      1  0.6110705049604  0.2699518298526  0.5216545146228 1.0
C      1  0.6448929790616  0.5316035438918  0.6711821401310 1.0
C      1  0.3109759974649  0.4712847112029  0.3671795241751 1.0
C      1  0.5219344658546  0.6476239001220  0.6835817241917 1.0
C      1  0.4490363683714  0.3425991120694  0.4959225174669 1.0
C      1  0.2914329558600  0.5581030573358  0.6275352909358 1.0
C      1  0.6061425110288  0.5399378535275  0.5319640289889 1.0
C      1  0.5790134015242  0.4728532957736  0.5975950449273 1.0
C      1  0.6591648227389  0.6811423242868  0.5616161220157 1.0
C      1  0.6351878114199  0.4333185540397  0.6643556507417 1.0
C      1  0.3537872065985  0.6263385706120  0.6474394055961 1.0
END
