TITL C-8371-7233-140 -0.58 3375.00 -80.85855344 0 0 11 () n - 1
REM
REM Run started: at 2020.12.26 08:10:45 in /gpfs/home/chem/mssmkc/CARBON/AIRSS/Generating-Clusters/Str-Search/Only-C1/C10-100
REM VASP from code version vasp.5.4.4.18Apr17-6-g9f103f2a35 (build Oct 11 2019 16:45:47) gamma-only
REM
REM
REM
REM
REM ./C.cell (67c5d0192afd7a3ce4a0888e5fe73b87)
REM AIRSS Version 0.9.1 bugfix July 2018 build 013d7b7c2542+ Fri, 06 Jul 2018 19:26:36 +0100
REM compiler GCC version 6.3.0
REM options -cpp -iprefix /gpfs/warwick/csc/orac/software/Core/GCCcore/6.3.0/bin/../lib/gcc/x86_64-pc-linux-gnu/6.3.0/ -mtune=generic -march=x86-64 -g -O0
REM seed -1690810361 -638823511 622612985 1418988056 -1887982530 -1177086678 -2114586657 -1679058621 1054564491 -1171307035 745390665 751767889
REM
REM C.POTCAR (d86ddea03c3ceb6dc662c8ad6801f873)
REM 
CELL 1.54180   15.00000   15.00000   15.00000   90.00000   90.00000   90.00000
LATT -1
SFAC C  
C      1  0.4716270662262  0.4541210475634  0.4744899195327 1.0
C      1  0.5958714551015  0.4592613483872  0.5924738927972 1.0
C      1  0.3934392196434  0.5874661319215  0.3945725608056 1.0
C      1  0.4401883861530  0.6469606731987  0.4394786757818 1.0
C      1  0.5411795504149  0.5082097013395  0.5397415794024 1.0
C      1  0.5005047931798  0.6718974160219  0.4983742051832 1.0
C      1  0.6524300896901  0.4208565873398  0.6442088355395 1.0
C      1  0.5329285155919  0.5981221254537  0.5304327468370 1.0
C      1  0.4767346424823  0.2783520366344  0.4825511947548 1.0
C      1  0.4735868873035  0.3639421148527  0.4795282150915 1.0
C      1  0.4215093942135  0.5108109172873  0.4241480742742 1.0
END
