TITL C-8371-7233-205 -2.3 3375.00 -383.71628650 0 0 48 () n - 1
REM
REM Run started: at 2020.12.26 22:20:54 in /gpfs/home/chem/mssmkc/CARBON/AIRSS/Generating-Clusters/Str-Search/Only-C1/C10-100
REM VASP from code version vasp.5.4.4.18Apr17-6-g9f103f2a35 (build Oct 11 2019 16:45:47) gamma-only
REM
REM
REM
REM
REM ./C.cell (67c5d0192afd7a3ce4a0888e5fe73b87)
REM AIRSS Version 0.9.1 bugfix July 2018 build 013d7b7c2542+ Fri, 06 Jul 2018 19:26:36 +0100
REM compiler GCC version 6.3.0
REM options -cpp -iprefix /gpfs/warwick/csc/orac/software/Core/GCCcore/6.3.0/bin/../lib/gcc/x86_64-pc-linux-gnu/6.3.0/ -mtune=generic -march=x86-64 -g -O0
REM seed -1839925425 -314369918 -2084060731 -283738166 -2060937195 -1649811981 -1803826510 1471798278 -921404497 -969414795 -1046784216 1087305655
REM
REM C.POTCAR (d86ddea03c3ceb6dc662c8ad6801f873)
REM 
CELL 1.54180   15.00000   15.00000   15.00000   90.00000   90.00000   90.00000
LATT -1
SFAC C  
C      1  0.5784177050567  0.4911841794147  0.4550188693556 1.0
C      1  0.3400165603172  0.6063750002807  0.6239469867450 1.0
C      1  0.5335545943963  0.7159588562119  0.5041706075218 1.0
C      1  0.6106249370709  0.6850214924055  0.5472553608042 1.0
C      1  0.3011747012061  0.4434264271446  0.6005434019769 1.0
C      1  0.3505987236380  0.5444218732036  0.4643660503466 1.0
C      1  0.4017347279048  0.3256772532897  0.5201631087974 1.0
C      1  0.6747703279920  0.4674185880853  0.4710352284151 1.0
C      1  0.2497737930145  0.5788463851372  0.5951362575628 1.0
C      1  0.6637764975677  0.6402049209284  0.4767846153211 1.0
C      1  0.5029834867425  0.3699615650064  0.3244038954487 1.0
C      1  0.5447641576917  0.3161509821116  0.3964345999751 1.0
C      1  0.6259106740439  0.6577120265440  0.6371755287707 1.0
C      1  0.5322112055639  0.3429308688800  0.6175699145348 1.0
C      1  0.5144215661335  0.4873344524326  0.5251421398429 1.0
C      1  0.6962816790903  0.3883580984129  0.4102739774489 1.0
C      1  0.5411007653629  0.6927294091267  0.4085321722097 1.0
C      1  0.7029862585256  0.4250653156870  0.3263847949370 1.0
C      1  0.6137958011686  0.5846633462555  0.6907357987862 1.0
C      1  0.6922575711952  0.5522822314825  0.4891763222712 1.0
C      1  0.3001101563028  0.6120149737125  0.5207160491335 1.0
C      1  0.6751047907497  0.5094791618375  0.3158031574896 1.0
C      1  0.6636205833513  0.6585739759012  0.7245602343820 1.0
C      1  0.3873275810200  0.5157857169308  0.6222747331259 1.0
C      1  0.4260032868845  0.5182011423775  0.5312669271476 1.0
C      1  0.2220387776593  0.4887338924597  0.5994417453302 1.0
C      1  0.5329343786821  0.4456933968941  0.6189071940448 1.0
C      1  0.3662481357340  0.6749302025276  0.5570925827954 1.0
C      1  0.4480273612061  0.3091522174244  0.4343033966516 1.0
C      1  0.4033591697416  0.5806051317773  0.3850504675699 1.0
C      1  0.6347059859944  0.2870598166568  0.5230609445094 1.0
C      1  0.5656687830328  0.5018617595525  0.6970626699775 1.0
C      1  0.4494878343583  0.6601005706862  0.4090535499590 1.0
C      1  0.4381683583623  0.6959880239512  0.5038896289888 1.0
C      1  0.4587381569366  0.4809538931680  0.6793652741582 1.0
C      1  0.6098519564814  0.2888598819322  0.6027132069780 1.0
C      1  0.6315945613216  0.3151061672447  0.4337399029712 1.0
C      1  0.4969566557724  0.4923719170653  0.7656205659194 1.0
C      1  0.4174535414859  0.5003337305003  0.3321221253282 1.0
C      1  0.4491076964262  0.3142395203376  0.5981456002147 1.0
C      1  0.3260018313228  0.3885959048918  0.5203803404255 1.0
C      1  0.3195152824765  0.4484376893807  0.4452751662585 1.0
C      1  0.3599455858194  0.4277853237745  0.3627863674627 1.0
C      1  0.4124255029116  0.3486903611172  0.3573860626351 1.0
C      1  0.5039621656067  0.4627760877388  0.3108202809682 1.0
C      1  0.6302679741789  0.5874425758212  0.3222055753593 1.0
C      1  0.5742915448044  0.5124995004679  0.3552236024380 1.0
C      1  0.6259267276939  0.6580044918296  0.3874831167062 1.0
END
