TITL C-89400-2811-14 -5.027 3375.00 -862.71452453 0 0 105 (C1) n - 1
REM
REM Run started: at 2021.01.21 15:26:39 in /rds/project/t2_vol4/rds-t2-cs072/BORA/CARBON/AIRSS/Generating-Clusters/Str-Search/Only-C1/C100-200
REM VASP from code version vasp.5.4.4.18Apr17-6-g9f103f2a35 (build Oct 11 2019 16:45:47) gamma-only
REM
REM
REM
REM
REM ./C.cell (efaf0b2bf1589a83377268d7ebe2c73f)
REM AIRSS Version 0.9.1 bugfix July 2018 build 013d7b7c2542+ Fri, 06 Jul 2018 19:26:36 +0100
REM compiler GCC version 4.8.5 20150623 (Red Hat 4.8.5-39)
REM options -cpp -mtune=generic -march=x86-64 -g -O0
REM seed 1851789019 -956866164 -2083948746 -1504264594 -587437688 1750504971 410201087 421742308 -716738080 -1844450322 866389911 -242476050
REM
REM C.POTCAR (d86ddea03c3ceb6dc662c8ad6801f873)
REM 
CELL 1.54180   15.00000   15.00000   15.00000   90.00000   90.00000   90.00000
LATT -1
SFAC C  
C      1  0.6751094963713  0.3172008969398  0.4420569574375 1.0
C      1  0.2494689132263  0.6090367885728  0.3415238939894 1.0
C      1  0.4117232214188  0.5022349815420  0.7413234586052 1.0
C      1  0.7142450986748  0.2742809911574  0.5299874898181 1.0
C      1  0.2213402382038  0.5216339741157  0.3509763268394 1.0
C      1  0.7060914521309  0.7240739161113  0.5470798623241 1.0
C      1  0.5461195805161  0.2613199117395  0.3496471750193 1.0
C      1  0.2218476362355  0.3139881564310  0.4809066400660 1.0
C      1  0.6314334979096  0.7014968295128  0.6085906861802 1.0
C      1  0.5036001641255  0.2532718681575  0.6678218738515 1.0
C      1  0.7191376794668  0.5440807557381  0.4437596978413 1.0
C      1  0.5096860078238  0.4741996438021  0.5581624949984 1.0
C      1  0.6644064591886  0.5506808670718  0.6986342562639 1.0
C      1  0.3994219511047  0.3443359483197  0.6997453632251 1.0
C      1  0.2117056695289  0.4682434374854  0.4372436951424 1.0
C      1  0.6741430048739  0.3210554431307  0.6748138920174 1.0
C      1  0.3148084083694  0.3120586863454  0.5188572469660 1.0
C      1  0.4252088548945  0.5357690399654  0.2085898911795 1.0
C      1  0.2178991149292  0.4358432576599  0.5960368855564 1.0
C      1  0.5730356645716  0.5363251205457  0.3564964189129 1.0
C      1  0.6957284037326  0.7117273268181  0.3014373629657 1.0
C      1  0.6059436920104  0.3770364644969  0.4865263364402 1.0
C      1  0.3771134002395  0.2447619966398  0.5559857588800 1.0
C      1  0.7524398865795  0.6526196247245  0.5899334199132 1.0
C      1  0.8188635323217  0.5001116961243  0.5768708168840 1.0
C      1  0.4564591295534  0.4039779639593  0.5179191021407 1.0
C      1  0.1369122197019  0.5770226522295  0.5368234132578 1.0
C      1  0.5876181990187  0.7467877562935  0.4491799610275 1.0
C      1  0.7965064747635  0.4406740858520  0.7430281664702 1.0
C      1  0.2059957125384  0.3716487303506  0.4070860835584 1.0
C      1  0.5301413543977  0.1909457815149  0.5238038828838 1.0
C      1  0.6073768289557  0.4456114090591  0.5664596950761 1.0
C      1  0.6335993851279  0.2966927841487  0.3514127057817 1.0
C      1  0.5433547106269  0.4054627147394  0.7566189562292 1.0
C      1  0.8325584283347  0.4082062311679  0.5773694713198 1.0
C      1  0.6389145429251  0.7071069633745  0.7049327596800 1.0
C      1  0.3115958037783  0.3022524152530  0.2983138505278 1.0
C      1  0.1602311276660  0.6587882478509  0.5306589088492 1.0
C      1  0.7855051265399  0.3449467488339  0.5219410558002 1.0
C      1  0.5020246727788  0.3719757664654  0.2356713483397 1.0
C      1  0.5815986779638  0.5975689381997  0.2289834329561 1.0
C      1  0.3251845747606  0.6118170464551  0.5624208492775 1.0
C      1  0.5064896667938  0.4953393592567  0.7577198321693 1.0
C      1  0.4352193712837  0.4413197203764  0.2299225062783 1.0
C      1  0.6403201294857  0.3969089210392  0.7395255511614 1.0
C      1  0.3639719261201  0.3968554532295  0.4917981037270 1.0
C      1  0.7465553913177  0.5600460143078  0.5428784676495 1.0
C      1  0.5715950712010  0.5684959706760  0.7440852389007 1.0
C      1  0.3584588003337  0.5840027936356  0.7312791482644 1.0
C      1  0.7546952751520  0.3781907518872  0.4405864667818 1.0
C      1  0.5234194674902  0.7639993010487  0.3804159980055 1.0
C      1  0.3551975861795  0.5547092508700  0.4877121795389 1.0
C      1  0.6160808404980  0.6840533563157  0.2628870355172 1.0
C      1  0.3106614390247  0.5671736249987  0.6443547683851 1.0
C      1  0.4450809888781  0.5674354276657  0.4627127447383 1.0
C      1  0.6631309181223  0.2493528995615  0.6073319152242 1.0
C      1  0.5865307039451  0.4091693496604  0.2403594084449 1.0
C      1  0.4472953510735  0.7726424626467  0.5687430017005 1.0
C      1  0.3897833232295  0.2773561755585  0.2926060694369 1.0
C      1  0.4581948347678  0.6936428758637  0.2589642184062 1.0
C      1  0.4244991098018  0.4984936536906  0.3113818381102 1.0
C      1  0.4845333301389  0.6114396502055  0.2154992847292 1.0
C      1  0.8337329007926  0.4553344023856  0.6599230379469 1.0
C      1  0.3976570331270  0.6769030795952  0.7645511593613 1.0
C      1  0.3139491147075  0.4711871016106  0.4654705270594 1.0
C      1  0.6033175198442  0.6511189697099  0.4712359156535 1.0
C      1  0.7096988513965  0.4695891711631  0.7435830854812 1.0
C      1  0.2496940230318  0.3680993803681  0.3239367684165 1.0
C      1  0.3143677244896  0.7066091025238  0.5284214074625 1.0
C      1  0.3597819433180  0.4291140064175  0.7013943639719 1.0
C      1  0.5705408090546  0.2186703040172  0.6072763724109 1.0
C      1  0.6384423989792  0.3929644011777  0.6407553630047 1.0
C      1  0.7047024174425  0.6422816382426  0.6801833941248 1.0
C      1  0.4101715902968  0.2637548706838  0.6407886374205 1.0
C      1  0.6534255787488  0.5370298177620  0.5891423857000 1.0
C      1  0.6841675341833  0.7524888851235  0.4578999247466 1.0
C      1  0.5603122627331  0.6615796648452  0.7405542100131 1.0
C      1  0.6549917098073  0.3674357656830  0.2902145340559 1.0
C      1  0.3962614654066  0.7526540948765  0.4926720105195 1.0
C      1  0.3059442547777  0.6677213174821  0.3261015475582 1.0
C      1  0.5887116188921  0.6158221459687  0.5613820651874 1.0
C      1  0.3874390502596  0.7110502315451  0.3234220271316 1.0
C      1  0.4826049107776  0.2903899369676  0.2835104465029 1.0
C      1  0.2297042741859  0.3454710128939  0.5662211363776 1.0
C      1  0.6980621051879  0.4517732132567  0.3117707966212 1.0
C      1  0.4429365749837  0.2031877840295  0.5005479927334 1.0
C      1  0.7413143250845  0.4634244822287  0.3940773833687 1.0
C      1  0.1718460513182  0.4941367817332  0.5280451869811 1.0
C      1  0.4767494302375  0.7085964602033  0.7261999786496 1.0
C      1  0.5101058496415  0.2515351609839  0.4438310590834 1.0
C      1  0.2249869140432  0.7169445480112  0.5211195319669 1.0
C      1  0.5030484584077  0.5651307001497  0.5440287057934 1.0
C      1  0.2865168149119  0.4724000213896  0.6491230025438 1.0
C      1  0.2607477266011  0.4593926083431  0.2909809781761 1.0
C      1  0.5387022356408  0.7351994802921  0.2903771275204 1.0
C      1  0.4668237187575  0.7598186473254  0.6487921724891 1.0
C      1  0.4908694322812  0.3334982381891  0.7283511045982 1.0
C      1  0.3475769549016  0.4847349884298  0.2531471251753 1.0
C      1  0.4809594551709  0.5349215024423  0.3792263795644 1.0
C      1  0.6134491535854  0.5045421292941  0.2688346118682 1.0
C      1  0.7242419964028  0.7502648412863  0.3710986433576 1.0
C      1  0.5201360819381  0.3446577881612  0.4810019455837 1.0
C      1  0.6371136666231  0.5800032943034  0.4155645277356 1.0
C      1  0.4285633784781  0.7525360245794  0.4024500475329 1.0
C      1  0.3278188668356  0.6465308329360  0.8063960568878 1.0
END
