TITL C-89400-2811-9 -5.423 3375.00 -916.72388937 0 0 113 (C1) n - 1
REM
REM Run started: at 2021.01.21 11:00:14 in /rds/project/t2_vol4/rds-t2-cs072/BORA/CARBON/AIRSS/Generating-Clusters/Str-Search/Only-C1/C100-200
REM VASP from code version vasp.5.4.4.18Apr17-6-g9f103f2a35 (build Oct 11 2019 16:45:47) gamma-only
REM
REM
REM
REM
REM ./C.cell (efaf0b2bf1589a83377268d7ebe2c73f)
REM AIRSS Version 0.9.1 bugfix July 2018 build 013d7b7c2542+ Fri, 06 Jul 2018 19:26:36 +0100
REM compiler GCC version 4.8.5 20150623 (Red Hat 4.8.5-39)
REM options -cpp -mtune=generic -march=x86-64 -g -O0
REM seed 1455990343 1098546509 -1476838479 -1028016944 244659743 -2112052168 -1812416401 1198645074 1872571112 455289588 317822301 -95984009
REM
REM C.POTCAR (d86ddea03c3ceb6dc662c8ad6801f873)
REM 
CELL 1.54180   15.00000   15.00000   15.00000   90.00000   90.00000   90.00000
LATT -1
SFAC C  
C      1  0.3717281968143  0.1934271444709  0.5622406377128 1.0
C      1  0.4415442095645  0.2245503575783  0.6190639921068 1.0
C      1  0.6231300768430  0.1820881682238  0.4575823962063 1.0
C      1  0.6667775120141  0.2091047803785  0.5237269901814 1.0
C      1  0.4851468277527  0.8081109812229  0.6324913277994 1.0
C      1  0.8421079936007  0.7020637353608  0.5140770438523 1.0
C      1  0.3776270980206  0.5316091783429  0.4229368516166 1.0
C      1  0.6632415256731  0.6717615534129  0.3741144293553 1.0
C      1  0.8227169087620  0.4479908737914  0.4960680814672 1.0
C      1  0.2002225938046  0.4218692574568  0.6395398103052 1.0
C      1  0.3016368825464  0.2579668211808  0.5808043011093 1.0
C      1  0.6408104670586  0.3933427461063  0.3277727288167 1.0
C      1  0.3761931748453  0.8285200377348  0.5037288234520 1.0
C      1  0.3463550008292  0.4564700445645  0.4694930988781 1.0
C      1  0.3818441353328  0.3321727452813  0.3582626015996 1.0
C      1  0.7487859798590  0.4970236769860  0.2235837708889 1.0
C      1  0.4601924812595  0.5081532175808  0.7664092169688 1.0
C      1  0.2343069091427  0.3464986370906  0.4171916705444 1.0
C      1  0.2606387383951  0.3720207214580  0.6905635732905 1.0
C      1  0.2075605652351  0.5552038741919  0.5553913795334 1.0
C      1  0.7395917467574  0.3477645524548  0.5519398333655 1.0
C      1  0.3233821376274  0.6067008538105  0.7489992234194 1.0
C      1  0.4107177463696  0.4256639936844  0.3960968766787 1.0
C      1  0.5038088214958  0.2269187549303  0.3530338672950 1.0
C      1  0.7381854940776  0.3324773907385  0.3876457185973 1.0
C      1  0.4651739537768  0.6567931502845  0.8006723231368 1.0
C      1  0.4868698537514  0.4227543308535  0.7647004554868 1.0
C      1  0.4908731073724  0.5331060090369  0.2355463554902 1.0
C      1  0.6414055576459  0.7623806923183  0.3577078434219 1.0
C      1  0.6539840996662  0.6513192096747  0.4623259453742 1.0
C      1  0.5713298284288  0.3039641133776  0.7145682097826 1.0
C      1  0.4084858296855  0.5856426502896  0.7867009402839 1.0
C      1  0.6242886802762  0.7290429948790  0.5193179876414 1.0
C      1  0.3387541212284  0.6265698492731  0.4565591823360 1.0
C      1  0.2483018239754  0.5142964835868  0.2714466101859 1.0
C      1  0.6282244203832  0.6359347886749  0.2867708314066 1.0
C      1  0.4875171545384  0.4136014263581  0.4657836208329 1.0
C      1  0.4781778615127  0.3325361612282  0.7370136528981 1.0
C      1  0.5890822688713  0.7310845121450  0.2815598784772 1.0
C      1  0.4109239944816  0.7771615651790  0.4334468083360 1.0
C      1  0.4236542755080  0.6773222075108  0.3124154303791 1.0
C      1  0.6562340754227  0.3406690626467  0.2473107224156 1.0
C      1  0.4574944601091  0.2972598282458  0.3026934154080 1.0
C      1  0.4081083809233  0.6824302528072  0.6292182193857 1.0
C      1  0.7148558113666  0.5284182218517  0.7144981889233 1.0
C      1  0.6878013328320  0.2386146109543  0.8285731645120 1.0
C      1  0.4098276714905  0.2831860411120  0.6939431172083 1.0
C      1  0.4551944123952  0.4406205607833  0.2198528627588 1.0
C      1  0.2435530019170  0.7563084821508  0.5745930318914 1.0
C      1  0.5886770769565  0.3189804514979  0.6163378526783 1.0
C      1  0.8222592582288  0.5450206482275  0.4943574678182 1.0
C      1  0.2374997969685  0.6058817908287  0.4743474748230 1.0
C      1  0.6684797466771  0.6740795497066  0.6552115850279 1.0
C      1  0.6236272377441  0.6533383040273  0.7470093115728 1.0
C      1  0.5711786208197  0.4903230766160  0.6305251109567 1.0
C      1  0.2344172618916  0.4608771365275  0.7178346375636 1.0
C      1  0.3179354551214  0.3025704296513  0.6676329003413 1.0
C      1  0.4695423297387  0.5713177977616  0.5400239378326 1.0
C      1  0.1928861774533  0.5937463438026  0.3974756601840 1.0
C      1  0.2848367922294  0.3552523023629  0.3358562985251 1.0
C      1  0.4365608115954  0.4899827599615  0.5068762391297 1.0
C      1  0.4971183372344  0.3521896143606  0.2350262532954 1.0
C      1  0.7887990170661  0.4275266995144  0.2478791897375 1.0
C      1  0.3716797243080  0.6980414956374  0.3908076314064 1.0
C      1  0.6317117966197  0.4937899366512  0.4374093461154 1.0
C      1  0.4992710248190  0.7387002446922  0.3109755418126 1.0
C      1  0.3632621121974  0.4523266096905  0.2243284217955 1.0
C      1  0.3951992713749  0.1894523964905  0.4653285871800 1.0
C      1  0.5874841769014  0.2425441217257  0.3923861419284 1.0
C      1  0.2606788726407  0.4105502905632  0.4897618387936 1.0
C      1  0.6782951545674  0.2832874066749  0.5786507077844 1.0
C      1  0.7883454889436  0.7487003310315  0.5619093803534 1.0
C      1  0.6454908057430  0.5641536889084  0.5026070594392 1.0
C      1  0.7027049187398  0.7467289706479  0.5892556306416 1.0
C      1  0.5001573965918  0.7852348228213  0.3991161447103 1.0
C      1  0.4143681115343  0.5940934459875  0.2598073794107 1.0
C      1  0.3293748164941  0.6834938276529  0.6892708707711 1.0
C      1  0.2873105003563  0.3099422510521  0.4956225047797 1.0
C      1  0.5643569364347  0.5745618928267  0.5719640693587 1.0
C      1  0.7373144438269  0.5410772779756  0.5604520045414 1.0
C      1  0.3811312932796  0.2893280428020  0.4518919644974 1.0
C      1  0.2045308377626  0.4604248658684  0.5547709499157 1.0
C      1  0.7620281934035  0.4421723165774  0.5703927634037 1.0
C      1  0.2811004419304  0.4207816769856  0.2677164667970 1.0
C      1  0.4044351320648  0.6402921019419  0.5426152465347 1.0
C      1  0.2134478402741  0.6001408673379  0.6394111637860 1.0
C      1  0.2899394210204  0.8129859375538  0.5361832740325 1.0
C      1  0.1882420081691  0.5611868048988  0.3198313285229 1.0
C      1  0.4558643223058  0.1600448030941  0.4065103986729 1.0
C      1  0.2474518762239  0.6885237132878  0.6377538940124 1.0
C      1  0.5858502459569  0.7862007587482  0.4368213384015 1.0
C      1  0.5035789601822  0.7132830220122  0.6561481081315 1.0
C      1  0.7259586428733  0.5884716650456  0.6453052722459 1.0
C      1  0.7857734056938  0.3607635721081  0.4642822776232 1.0
C      1  0.6728085103579  0.5396378805064  0.2648396539607 1.0
C      1  0.5540211261855  0.4961811452817  0.7315922819028 1.0
C      1  0.6501900407689  0.4858952942204  0.3481318693949 1.0
C      1  0.5885325692023  0.4144997641427  0.5820417215345 1.0
C      1  0.2517855800166  0.5526222451085  0.7176503721140 1.0
C      1  0.6347610973123  0.5582216025527  0.7584086011939 1.0
C      1  0.4614749967009  0.3254115934993  0.5022664425815 1.0
C      1  0.5823461330527  0.3268680540180  0.2021561054871 1.0
C      1  0.5337465565382  0.6839279934310  0.7503922208702 1.0
C      1  0.5796583097245  0.6725926151380  0.5994747668712 1.0
C      1  0.5901843143993  0.4123337586455  0.4754507733146 1.0
C      1  0.8623366564363  0.6239601931203  0.4816833726420 1.0
C      1  0.4396473338891  0.8428166622869  0.5725252854421 1.0
C      1  0.6327842276716  0.3326508585707  0.4041197842563 1.0
C      1  0.6315798371154  0.2734859709553  0.7734159095303 1.0
C      1  0.5771254072021  0.5602819908930  0.2524821011424 1.0
C      1  0.7456041858648  0.3509293000529  0.2882718060254 1.0
C      1  0.3376680651124  0.5440732979971  0.2397594971684 1.0
C      1  0.5052200582510  0.2807520121876  0.5696784646682 1.0
END
