TITL C-89359-3188-4 -8.017 3375.00 0 0 0 165 (C1) n - 1
REM
REM Run started: at 2020.03.12 09:23:40 in /rds/user/bk393/hpc-work/AIRSS.pl-DENE/CARBON/New-Try
REM VASP from code version vasp.5.4.4.18Apr17-6-g9f103f2a35 (build Oct 11 2019 16:45:47) gamma-only
REM
REM
REM
REM
REM ./C.cell (90889e035cd0f9d0e5f9cb6dd9eb5d52)
REM AIRSS Version 0.9.1 bugfix July 2018 build 013d7b7c2542+ Fri, 06 Jul 2018 19:26:36 +0100
REM compiler GCC version 4.8.5 20150623 (Red Hat 4.8.5-39)
REM options -cpp -mtune=generic -march=x86-64 -g -O0
REM seed 1105416545 -1898794939 -705105063 1734141590 819024400 -1741134489 1261211300 -648704514 1579316995 498869977 -2033658295 -232739004
REM
REM C.POTCAR (d86ddea03c3ceb6dc662c8ad6801f873)
REM 
CELL 1.54180   15.00000   15.00000   15.00000   90.00000   90.00000   90.00000
LATT -1
SFAC C  
C      1  0.6731132294624  0.4049154276485  0.7865638360293 1.0
C      1  0.3639375031483  0.6048802308333  0.5077790905380 1.0
C      1  0.7614640313983  0.5187337777801  0.3993644025984 1.0
C      1  0.3623785350390  0.5227713351359  0.5693822644715 1.0
C      1  0.4776934560939  0.6459863043579  0.7843666565633 1.0
C      1  0.5877717266491  0.2895042463603  0.2671754118218 1.0
C      1  0.6494200768929  0.5789859685106  0.1394792459699 1.0
C      1  0.2841734488823  0.1950369745016  0.6079232872032 1.0
C      1  0.3242588903521  0.7326817014026  0.6166753339969 1.0
C      1  0.7223470025202  0.6631107668116  0.7621378245867 1.0
C      1  0.2613890212196  0.6223091148987  0.2173216344629 1.0
C      1  0.8167979253466  0.7814672058988  0.5886286872128 1.0
C      1  0.3662245959399  0.6058546106394  0.0911880153105 1.0
C      1  0.8472172917569  0.3931233911010  0.6653733183852 1.0
C      1  0.5318321640945  0.7873874661150  0.4032709918807 1.0
C      1  0.2746216908710  0.4645882043391  0.5441354133452 1.0
C      1  0.7726384037561  0.6559903914111  0.3248268553792 1.0
C      1  0.2138043273598  0.3768491945046  0.3139489188481 1.0
C      1  0.4825922862496  0.4228043144471  0.3593091974487 1.0
C      1  0.2388624243170  0.6960630533875  0.2761309738535 1.0
C      1  0.7415046018841  0.5700393327484  0.7475357014082 1.0
C      1  0.4183366566397  0.3762694984168  0.9093355237107 1.0
C      1  0.4826089369364  0.4962877011753  0.0033979636171 1.0
C      1  0.1575331369063  0.4982024206605  0.4020306359060 1.0
C      1  0.6568597254427  0.5315238699080  0.4244401277405 1.0
C      1  0.7928697226925  0.5619662384002  0.3177033118230 1.0
C      1  0.6594147009733  0.1614668789071  0.6238401446883 1.0
C      1  0.5318981840542  0.1590903149613  0.3526191029287 1.0
C      1  0.4651449675129  0.2435138721651  0.8410044318190 1.0
C      1  0.6748727452116  0.7148276868808  0.8279076455538 1.0
C      1  0.2525572777138  0.5058280547790  0.4468185975035 1.0
C      1  0.3987705927412  0.6220368442651  0.8303450459021 1.0
C      1  0.7054261031763  0.7162146030609  0.6781659355760 1.0
C      1  0.3846764672144  0.8618567946174  0.4279538752552 1.0
C      1  0.5405646685646  0.4635233924115  0.8486114760751 1.0
C      1  0.5817391081524  0.6303392500116  0.6706983596602 1.0
C      1  0.3453506018260  0.5436541211501  0.8081814831231 1.0
C      1  0.1884784863865  0.5370991162689  0.7525016201780 1.0
C      1  0.5660255947614  0.6257519835852  0.1557783353794 1.0
C      1  0.5340020213658  0.4860851588757  0.2987419922690 1.0
C      1  0.7691251515465  0.5416850513947  0.6545563560159 1.0
C      1  0.8389325929777  0.7134215377848  0.5445091811772 1.0
C      1  0.4506400925689  0.7020278028898  0.7050488471637 1.0
C      1  0.5742599154408  0.5351192056754  0.3795158843591 1.0
C      1  0.5083342837564  0.6648584030273  0.6310157746143 1.0
C      1  0.3585964752558  0.1927832771504  0.5527665167013 1.0
C      1  0.5074697260975  0.3668548966371  0.4265134686724 1.0
C      1  0.3628598281830  0.5693067424834  0.6582007298972 1.0
C      1  0.3380734505889  0.6483828436582  0.1654334505797 1.0
C      1  0.1865685698842  0.6596850083169  0.3475079634647 1.0
C      1  0.6233312474461  0.7055188297432  0.5225363604165 1.0
C      1  0.4276630874000  0.5502833701597  0.0642290582208 1.0
C      1  0.8475725148461  0.3042947111764  0.4735977232536 1.0
C      1  0.2187678804660  0.2476171948463  0.6151502992643 1.0
C      1  0.2316526569091  0.5407153989997  0.2580138810662 1.0
C      1  0.8294656349247  0.3134266140041  0.6827335453937 1.0
C      1  0.5937204006688  0.1236761139306  0.5760062353349 1.0
C      1  0.8287730060020  0.4714030974734  0.6211090298033 1.0
C      1  0.0935586438996  0.5288954910564  0.4688370080311 1.0
C      1  0.6917016501895  0.1987929521169  0.7044295711949 1.0
C      1  0.5600520873391  0.6042919797296  0.7663540650257 1.0
C      1  0.5982424980934  0.4746434867877  0.5668470243668 1.0
C      1  0.4726939346515  0.4480467496105  0.9166950206013 1.0
C      1  0.0823672452896  0.5785977076890  0.6287602709835 1.0
C      1  0.3168319323303  0.6508230825489  0.7844481900438 1.0
C      1  0.7102902754192  0.5753084907660  0.5901508438289 1.0
C      1  0.6545675812083  0.4166749647878  0.1724811519794 1.0
C      1  0.3290993108448  0.3790804490068  0.2322032810309 1.0
C      1  0.3943760007044  0.3061814359881  0.8565895032438 1.0
C      1  0.3048507265456  0.7476474720321  0.4553689235973 1.0
C      1  0.5220720285405  0.1125453043298  0.4361696078234 1.0
C      1  0.6616271324388  0.6586789165601  0.6105152819981 1.0
C      1  0.6645860707660  0.8114606451962  0.6823381643242 1.0
C      1  0.8164986122920  0.5525432395089  0.4767033466121 1.0
C      1  0.3424626065650  0.2257283713509  0.4623403856044 1.0
C      1  0.6877428307146  0.5028610154120  0.7926898974224 1.0
C      1  0.5509063899013  0.4927583837784  0.0645196715668 1.0
C      1  0.7129958299097  0.6740077842118  0.2543808095624 1.0
C      1  0.3565082674709  0.3187382758424  0.4948047365970 1.0
C      1  0.5547391436248  0.6943498967380  0.2200125938574 1.0
C      1  0.3216079318106  0.3276350399654  0.7900544228693 1.0
C      1  0.3341576114079  0.2399803921317  0.2970932396030 1.0
C      1  0.7469096554422  0.8009620038631  0.6483908702068 1.0
C      1  0.3285178301177  0.2049852892339  0.3792105946620 1.0
C      1  0.8263787871383  0.2262297590740  0.4517964648859 1.0
C      1  0.2379872021470  0.6753130118051  0.4272935859228 1.0
C      1  0.2496659123545  0.3832879234608  0.7815633928244 1.0
C      1  0.3532778363250  0.6709169959070  0.6888777231042 1.0
C      1  0.6441361600916  0.3179762265860  0.3397773802771 1.0
C      1  0.2853204287012  0.3659357947526  0.5295524923745 1.0
C      1  0.7191654697306  0.5980056070688  0.1945024077361 1.0
C      1  0.5467129030623  0.7703596125913  0.5075986891973 1.0
C      1  0.6889658611777  0.1473257426267  0.4413065425341 1.0
C      1  0.5952323914538  0.2682992724036  0.5063544423123 1.0
C      1  0.6564799909542  0.5240018156311  0.5231681078261 1.0
C      1  0.5396123929318  0.3394154066852  0.6438179594311 1.0
C      1  0.6364296903054  0.4852472011693  0.1079133873749 1.0
C      1  0.7751870566670  0.1611033726679  0.4206147253776 1.0
C      1  0.5403042408831  0.2466170567744  0.7936041375464 1.0
C      1  0.7189142043961  0.4350157604656  0.2414204164374 1.0
C      1  0.5782752120707  0.8125626295679  0.7328152919224 1.0
C      1  0.5004362536230  0.4873702629643  0.2119643123651 1.0
C      1  0.2539710028760  0.5784205034132  0.8036578507021 1.0
C      1  0.5041519111282  0.8550938640907  0.5369377545713 1.0
C      1  0.7006766539379  0.3140999669475  0.7795343133650 1.0
C      1  0.4894930339440  0.7994394707140  0.6936427016064 1.0
C      1  0.1234764352463  0.5798330030614  0.7005634002411 1.0
C      1  0.6200673644191  0.7560539077111  0.3637311740006 1.0
C      1  0.4494923684401  0.8444280092502  0.6152531146617 1.0
C      1  0.7691389231448  0.4206823677341  0.3958665042610 1.0
C      1  0.6112374653282  0.7686854029095  0.8112597725665 1.0
C      1  0.8239500792877  0.3935171258768  0.4676928282173 1.0
C      1  0.8180952452331  0.6470244880861  0.4822275178027 1.0
C      1  0.5172885470793  0.6793934509179  0.5322890389594 1.0
C      1  0.4589827003270  0.7495974295815  0.3470323791688 1.0
C      1  0.4242729457442  0.2580982094453  0.2597906813787 1.0
C      1  0.3321078393476  0.6933189552633  0.5359861425140 1.0
C      1  0.5104409630092  0.2292879480118  0.2890029315225 1.0
C      1  0.7625866340790  0.5227897911273  0.2391128357062 1.0
C      1  0.6069597600995  0.1194346682827  0.3952430033057 1.0
C      1  0.1464136090996  0.4032870045977  0.3646288943369 1.0
C      1  0.5075723881961  0.1198602537625  0.5320558313097 1.0
C      1  0.4781880756440  0.8710900460766  0.4468002653133 1.0
C      1  0.5096320060409  0.2822184968120  0.5653690376035 1.0
C      1  0.5762994551660  0.3976949261104  0.7939896567233 1.0
C      1  0.4848667953869  0.5545270697098  0.4221203027090 1.0
C      1  0.3692684264100  0.3388895129963  0.7098575999466 1.0
C      1  0.4346766865527  0.4397131586117  0.5847525234414 1.0
C      1  0.4597068896714  0.6196675328543  0.4781162179726 1.0
C      1  0.3242693337476  0.4820706830276  0.3749148164805 1.0
C      1  0.4177699077589  0.3441801659249  0.2157859744463 1.0
C      1  0.5035101538416  0.5499578255635  0.1362276739870 1.0
C      1  0.6366953825425  0.2354839287938  0.7772183801718 1.0
C      1  0.2073487786029  0.4242643661468  0.6278391877262 1.0
C      1  0.4682953867960  0.7222134428930  0.2571547226809 1.0
C      1  0.5909060598269  0.3155489566754  0.4277956467896 1.0
C      1  0.4939275792091  0.3894358991355  0.1877165383669 1.0
C      1  0.3262746552407  0.8395283935080  0.4991730630958 1.0
C      1  0.3165838612996  0.7524128722306  0.2828873906580 1.0
C      1  0.2812058487644  0.4544199122036  0.2835467118216 1.0
C      1  0.2054755416418  0.4417014646169  0.7236987045700 1.0
C      1  0.3717358734541  0.5041791196240  0.7200747326136 1.0
C      1  0.7602403320051  0.2670675910379  0.7198349055363 1.0
C      1  0.6734456828274  0.7190106273277  0.4338686965688 1.0
C      1  0.6015343968796  0.5376326051388  0.8201611572149 1.0
C      1  0.3793044033752  0.7208909470184  0.2188543055831 1.0
C      1  0.3648681527259  0.7791490609635  0.3682298969002 1.0
C      1  0.4476713175107  0.3544464006482  0.5117949381462 1.0
C      1  0.6323836630410  0.7210891729723  0.2731662255095 1.0
C      1  0.4562269437768  0.1926079329466  0.5655373002904 1.0
C      1  0.8389358093899  0.4732382603419  0.5258808256163 1.0
C      1  0.5341858894188  0.4332069232203  0.6083153741225 1.0
C      1  0.0726556765900  0.5623364710259  0.5408406870962 1.0
C      1  0.2740867177204  0.3135839624912  0.2695108781207 1.0
C      1  0.6537336706772  0.1907295160784  0.5262576075948 1.0
C      1  0.2167025179435  0.3375750311490  0.5901937894144 1.0
C      1  0.4174251340435  0.4905209157959  0.3870619003560 1.0
C      1  0.5435913880839  0.3284637561470  0.7341779751799 1.0
C      1  0.7152625195012  0.3823525207376  0.3243458411250 1.0
C      1  0.3905883457176  0.4188127818325  0.6758237372720 1.0
C      1  0.3576337444810  0.8245423755001  0.5899870860857 1.0
C      1  0.7583694246696  0.6848131342567  0.4130521183688 1.0
C      1  0.5828313539206  0.3523226464292  0.1944744651166 1.0
C      1  0.1710283344532  0.5654128863218  0.3273291717029 1.0
C      1  0.2808573456845  0.5977681011913  0.4533867882549 1.0
END
