TITL C-91262-7133-26 -3.602 3375.00 -604.84240345 0 0 75 (C1) n - 1
REM
REM Run started: at 2020.12.05 02:41:52 in /rds/project/t2_vol4/rds-t2-cs072/BORA/CARBON/AIRSS/Generating-Clusters/Str-Search/Only-C1/C10-100
REM VASP from code version vasp.5.4.4.18Apr17-6-g9f103f2a35 (build Oct 11 2019 16:45:47) gamma-only
REM
REM
REM
REM
REM ./C.cell (67c5d0192afd7a3ce4a0888e5fe73b87)
REM AIRSS Version 0.9.1 bugfix July 2018 build 013d7b7c2542+ Fri, 06 Jul 2018 19:26:36 +0100
REM compiler GCC version 4.8.5 20150623 (Red Hat 4.8.5-39)
REM options -cpp -mtune=generic -march=x86-64 -g -O0
REM seed -555438028 -1923060661 1124584799 -585688949 -737807771 -1836412388 -1302220422 1886942701 537639477 -1033395751 941937218 1667728319
REM
REM C.POTCAR (d86ddea03c3ceb6dc662c8ad6801f873)
REM 
CELL 1.54180   15.00000   15.00000   15.00000   90.00000   90.00000   90.00000
LATT -1
SFAC C  
C      1  0.4154366909421  0.5319188070680  0.5486153229405 1.0
C      1  0.3765801793944  0.5029415957943  0.4634729495087 1.0
C      1  0.2812238106461  0.3764094220982  0.3906089649508 1.0
C      1  0.6066103576913  0.6933523671530  0.5395989407249 1.0
C      1  0.4584065114887  0.5308036084440  0.7467006083351 1.0
C      1  0.7076095566950  0.6257012381086  0.6129725526744 1.0
C      1  0.4833870407174  0.7695579131169  0.4232309038295 1.0
C      1  0.6537947970552  0.3885795314662  0.3886538084550 1.0
C      1  0.5980245277326  0.7084655746072  0.2956832739901 1.0
C      1  0.7171966191515  0.6012731595783  0.4544270011749 1.0
C      1  0.7559368110411  0.3902801409519  0.3849640122577 1.0
C      1  0.5228410124032  0.4572148098800  0.4360366705604 1.0
C      1  0.3637081367320  0.7063218855246  0.5133641924694 1.0
C      1  0.4772699323284  0.2151950355217  0.6056095973313 1.0
C      1  0.3449707693343  0.5021729350609  0.2907125297451 1.0
C      1  0.5102133460667  0.8444894115821  0.4972659554045 1.0
C      1  0.4824922371561  0.2138642114824  0.3872792089810 1.0
C      1  0.2899347432360  0.5223733093070  0.4364998482720 1.0
C      1  0.3719854311441  0.6850607709376  0.3403010149507 1.0
C      1  0.6045660037082  0.4809924369794  0.7321369947713 1.0
C      1  0.5489987884131  0.5580010740553  0.7457778887099 1.0
C      1  0.4056541381892  0.5936029058365  0.6954156654815 1.0
C      1  0.4091613264714  0.3438356710158  0.7343949601256 1.0
C      1  0.2603163645349  0.3902829984332  0.5583428201031 1.0
C      1  0.6706624071949  0.3841985401882  0.6218408112723 1.0
C      1  0.4817773201333  0.9074534879185  0.4453083868777 1.0
C      1  0.7284532842926  0.5321288264658  0.6212286710007 1.0
C      1  0.4648580688938  0.1589774829746  0.4616010347137 1.0
C      1  0.6086087919842  0.4708116893023  0.4215128697812 1.0
C      1  0.6760512365670  0.4700880782916  0.6714507462163 1.0
C      1  0.4511732432401  0.4364388926732  0.7079070775175 1.0
C      1  0.3484485855630  0.2676879798552  0.5042507855041 1.0
C      1  0.3117412156438  0.4533912744603  0.6190175959944 1.0
C      1  0.4524555306862  0.6263704758661  0.2436032316713 1.0
C      1  0.3517252848052  0.5459708055915  0.6263918830979 1.0
C      1  0.4505507552339  0.7095512355089  0.2865696662949 1.0
C      1  0.6224633520415  0.6655582721167  0.6377432070507 1.0
C      1  0.2787233843488  0.3644731310100  0.6446918286943 1.0
C      1  0.5657148155877  0.6094384128986  0.4979091360283 1.0
C      1  0.5531323488961  0.6432319178012  0.6947703243850 1.0
C      1  0.4421148358215  0.4664092703507  0.4050309290457 1.0
C      1  0.4378023528039  0.4565049643989  0.3001494345575 1.0
C      1  0.5243679396535  0.7532344638244  0.5204716131521 1.0
C      1  0.5349986866825  0.2630757014769  0.6704099587982 1.0
C      1  0.5224669895079  0.7481782778417  0.3334868643332 1.0
C      1  0.4501375112257  0.6946978643951  0.5675951254101 1.0
C      1  0.3479310091418  0.3046273848936  0.6697650630930 1.0
C      1  0.3667650295783  0.5959034997103  0.2872419934903 1.0
C      1  0.7625755129508  0.4811941604179  0.5459790460546 1.0
C      1  0.8041088162250  0.4682091913139  0.3920853477180 1.0
C      1  0.4618843048753  0.6634776475069  0.6641804034989 1.0
C      1  0.5259423017576  0.4020650196875  0.2695515530052 1.0
C      1  0.4944767152400  0.3107337668475  0.7442057313646 1.0
C      1  0.6077246183763  0.6395364545603  0.2478538870264 1.0
C      1  0.3948933435671  0.2172857844196  0.4377775910541 1.0
C      1  0.4803318823989  0.6028263113230  0.5311031342391 1.0
C      1  0.3851758670954  0.2557335193381  0.5959256398877 1.0
C      1  0.7059554818981  0.6651458510524  0.5245219354395 1.0
C      1  0.3904529876784  0.7263672277124  0.4241167719950 1.0
C      1  0.5943814572083  0.3376498732102  0.6552458632152 1.0
C      1  0.5491671963371  0.3978382321790  0.7219637365382 1.0
C      1  0.7146906781090  0.3487307020045  0.4578963476247 1.0
C      1  0.5452289921089  0.2672922564055  0.3559650144325 1.0
C      1  0.2477135700367  0.5969337990880  0.4720305767560 1.0
C      1  0.5178337234104  0.4881097802886  0.2491256785997 1.0
C      1  0.2831571118598  0.4617459405436  0.3563889387908 1.0
C      1  0.5809131953448  0.3430503427029  0.3252037754459 1.0
C      1  0.2861442076901  0.6561756483233  0.5199781866886 1.0
C      1  0.5342257935829  0.5800940699132  0.2327279416017 1.0
C      1  0.2899476216635  0.3419449654372  0.4805263285766 1.0
C      1  0.4116810406067  0.4576791933040  0.6167758147318 1.0
C      1  0.7265226648793  0.3895446791778  0.5454642882503 1.0
C      1  0.7785240850958  0.5246441234534  0.4607335135809 1.0
C      1  0.6304822079659  0.5619514528994  0.4461580716162 1.0
C      1  0.5064219102377  0.1529470630727  0.5445011585399 1.0
END
