TITL C-91262-7133-21 -4.319 3375.00 -735.27918959 0 0 90 (C1) n - 1
REM
REM Run started: at 2020.12.05 00:11:01 in /rds/project/t2_vol4/rds-t2-cs072/BORA/CARBON/AIRSS/Generating-Clusters/Str-Search/Only-C1/C10-100
REM VASP from code version vasp.5.4.4.18Apr17-6-g9f103f2a35 (build Oct 11 2019 16:45:47) gamma-only
REM
REM
REM
REM
REM ./C.cell (67c5d0192afd7a3ce4a0888e5fe73b87)
REM AIRSS Version 0.9.1 bugfix July 2018 build 013d7b7c2542+ Fri, 06 Jul 2018 19:26:36 +0100
REM compiler GCC version 4.8.5 20150623 (Red Hat 4.8.5-39)
REM options -cpp -mtune=generic -march=x86-64 -g -O0
REM seed -117737744 -1670208048 -286069071 -1310938402 1781593475 196672359 157347151 129445862 -1421647747 -1120095206 672886199 -125688700
REM
REM C.POTCAR (d86ddea03c3ceb6dc662c8ad6801f873)
REM 
CELL 1.54180   15.00000   15.00000   15.00000   90.00000   90.00000   90.00000
LATT -1
SFAC C  
C      1  0.7318291654182  0.6227417086283  0.6318167516083 1.0
C      1  0.5251672654574  0.7300427187826  0.3559049787948 1.0
C      1  0.6755438739113  0.3669078599284  0.2801410546629 1.0
C      1  0.2292424325252  0.4943507159067  0.5406609467310 1.0
C      1  0.5257531544519  0.2851171920806  0.3001126151121 1.0
C      1  0.3726049410120  0.4390040296045  0.7112853438318 1.0
C      1  0.3481093635471  0.3276889837005  0.3040997765521 1.0
C      1  0.7239749468033  0.5392795531304  0.6780863390010 1.0
C      1  0.6032884295747  0.3278086746388  0.2648137131697 1.0
C      1  0.3359932470071  0.7064946261317  0.6301229556297 1.0
C      1  0.4372176357283  0.4897009681226  0.5549455730626 1.0
C      1  0.4268708421842  0.6231544361089  0.4730636847991 1.0
C      1  0.3730109625879  0.6408184742298  0.3236259895610 1.0
C      1  0.3466411691257  0.6646520429964  0.4162641645829 1.0
C      1  0.6459276875459  0.5492985292805  0.4832544852263 1.0
C      1  0.2657549186373  0.4243946115902  0.4772378462039 1.0
C      1  0.6199808427452  0.6151219237430  0.3085014291122 1.0
C      1  0.5931948305159  0.5648832005520  0.4006742848674 1.0
C      1  0.5469228960712  0.7634084889183  0.5169144770316 1.0
C      1  0.5526464405635  0.3518704468790  0.4364783771283 1.0
C      1  0.8134338987023  0.4343081971181  0.4744049519563 1.0
C      1  0.5921287402099  0.5360812864737  0.5617265863944 1.0
C      1  0.4314245054239  0.2797510303715  0.2939225244263 1.0
C      1  0.2582763987645  0.5826827225300  0.5307703063059 1.0
C      1  0.6312431883541  0.3358855855760  0.5811227552963 1.0
C      1  0.4604904122499  0.4500669506905  0.7504484981082 1.0
C      1  0.4349311637743  0.6039262151990  0.7956128225142 1.0
C      1  0.4018312126994  0.7281746514747  0.4679600542293 1.0
C      1  0.5299998854110  0.5779020602143  0.2718568850720 1.0
C      1  0.5509627918273  0.2654577262088  0.3957963953868 1.0
C      1  0.5287700330421  0.4655989233651  0.5551033430232 1.0
C      1  0.5790415941538  0.5628387142660  0.7223140648382 1.0
C      1  0.3364018088525  0.3521752406503  0.6767922068368 1.0
C      1  0.7382665568566  0.5740280453675  0.4788502004614 1.0
C      1  0.4230639648695  0.4166875546459  0.4235729506920 1.0
C      1  0.5243655961565  0.5105301204472  0.3555924821861 1.0
C      1  0.3793078298293  0.2768762468472  0.6284887804268 1.0
C      1  0.6491754941928  0.4988274159302  0.7228225907996 1.0
C      1  0.3751954872627  0.4431420090426  0.4920492463832 1.0
C      1  0.5698354820587  0.3797747412396  0.5247351732932 1.0
C      1  0.2716827751791  0.3386394887847  0.5354059643336 1.0
C      1  0.4931519050088  0.5931410802381  0.4066223232246 1.0
C      1  0.2614400120615  0.3717048954788  0.6252399587600 1.0
C      1  0.6238195120919  0.4074870466381  0.7332455406737 1.0
C      1  0.5502567381596  0.1762127628322  0.4363739484794 1.0
C      1  0.3871270672931  0.7146582400518  0.7114245182016 1.0
C      1  0.6281668904891  0.2635828733207  0.6398400017574 1.0
C      1  0.3840050029538  0.2365389710919  0.4584645075631 1.0
C      1  0.4933486659936  0.5413703101166  0.7645902735827 1.0
C      1  0.3211305852760  0.6046860480949  0.6081987811894 1.0
C      1  0.7577345457467  0.5115754437419  0.2986467493764 1.0
C      1  0.2702606828398  0.6091667682663  0.4430837325252 1.0
C      1  0.4823649186301  0.7533677796733  0.5921296448718 1.0
C      1  0.5019397808387  0.4204732223422  0.3844221734572 1.0
C      1  0.4916568760700  0.7629288842819  0.4378246929833 1.0
C      1  0.7068136822521  0.5858745863227  0.2773991954794 1.0
C      1  0.2439540518158  0.4644967101897  0.6275826176229 1.0
C      1  0.3403494698033  0.2715380708488  0.5367991324371 1.0
C      1  0.4897773513688  0.6504336504545  0.6229618409778 1.0
C      1  0.4723992338777  0.6488698789232  0.3212756326035 1.0
C      1  0.3707324875796  0.2626202172924  0.3673240117640 1.0
C      1  0.6165695281245  0.7084569145842  0.3508146208780 1.0
C      1  0.4557415862699  0.2467792589600  0.6688370176465 1.0
C      1  0.5814164494844  0.6139252133002  0.6308140536794 1.0
C      1  0.4890562520091  0.5424598484357  0.1893261929415 1.0
C      1  0.5089616363931  0.2930643402380  0.7318274867478 1.0
C      1  0.4191841277406  0.5892012851556  0.5688574703218 1.0
C      1  0.2592940051012  0.5458702597154  0.3710000268246 1.0
C      1  0.2576805220919  0.4514051225586  0.3792520531631 1.0
C      1  0.3787742485140  0.6663157419261  0.7914577849166 1.0
C      1  0.6654917669605  0.3456678306620  0.6716719106096 1.0
C      1  0.7747183444705  0.5995973268797  0.3400198794674 1.0
C      1  0.3419576768499  0.4883084549165  0.2492085602002 1.0
C      1  0.6761993349756  0.7105862099276  0.4274881672049 1.0
C      1  0.5298423595656  0.3829017765716  0.7511339077704 1.0
C      1  0.4184824412420  0.4979443143538  0.1960637888607 1.0
C      1  0.7901902811257  0.5446854229576  0.6118695779010 1.0
C      1  0.4816690296743  0.7297927247904  0.6884403401059 1.0
C      1  0.6367085821894  0.7276089347683  0.5176372702358 1.0
C      1  0.5500301415066  0.2273523190363  0.6795459582615 1.0
C      1  0.4706625069347  0.1988217544305  0.4606258646065 1.0
C      1  0.3110956073480  0.5133432858514  0.6725782784273 1.0
C      1  0.7523325832040  0.6473368742309  0.4208035939826 1.0
C      1  0.7458449176314  0.4186562336213  0.3187692860208 1.0
C      1  0.6591872829181  0.6747483752766  0.6011632869996 1.0
C      1  0.3081641984170  0.4145104957485  0.3022926244396 1.0
C      1  0.7993702420410  0.5107942115212  0.5251486273740 1.0
C      1  0.3185723591597  0.5695704920314  0.2971920695079 1.0
C      1  0.7841926947883  0.4008430051307  0.4031948536037 1.0
C      1  0.3886755678356  0.7486298208240  0.5621627001387 1.0
END
