TITL C-91262-7133-3 -3.968 3375.00 -667.59442127 0 0 82 (C1) n - 1
REM
REM Run started: at 2020.12.04 16:49:04 in /rds/project/t2_vol4/rds-t2-cs072/BORA/CARBON/AIRSS/Generating-Clusters/Str-Search/Only-C1/C10-100
REM VASP from code version vasp.5.4.4.18Apr17-6-g9f103f2a35 (build Oct 11 2019 16:45:47) gamma-only
REM
REM
REM
REM
REM ./C.cell (67c5d0192afd7a3ce4a0888e5fe73b87)
REM AIRSS Version 0.9.1 bugfix July 2018 build 013d7b7c2542+ Fri, 06 Jul 2018 19:26:36 +0100
REM compiler GCC version 4.8.5 20150623 (Red Hat 4.8.5-39)
REM options -cpp -mtune=generic -march=x86-64 -g -O0
REM seed -1904166629 937082280 -579227809 1692552946 437991417 848130488 -1908042506 -1017881482 211043293 -539322658 973735955 -1822443109
REM
REM C.POTCAR (d86ddea03c3ceb6dc662c8ad6801f873)
REM 
CELL 1.54180   15.00000   15.00000   15.00000   90.00000   90.00000   90.00000
LATT -1
SFAC C  
C      1  0.4261726588594  0.2864403527650  0.4487219797346 1.0
C      1  0.2691785089761  0.6451096661526  0.4293539225789 1.0
C      1  0.7873621856981  0.5458677342673  0.5369334156992 1.0
C      1  0.7219074735369  0.6166306493049  0.5525204596747 1.0
C      1  0.3137344160673  0.6450026643847  0.3466490903678 1.0
C      1  0.7748177103065  0.3770538197523  0.5215027861064 1.0
C      1  0.2588171403047  0.5689374779677  0.5629686817719 1.0
C      1  0.4586500375047  0.8015455332997  0.4880161544965 1.0
C      1  0.5683856799417  0.3953446022216  0.6089105497095 1.0
C      1  0.6393111685967  0.2663338394806  0.5630749645199 1.0
C      1  0.6153051806629  0.5434045211947  0.4147466540840 1.0
C      1  0.5193918287640  0.4868392870095  0.2797184052637 1.0
C      1  0.3033382713080  0.6554788040955  0.5813855790675 1.0
C      1  0.4803072531000  0.2938741148611  0.2887259674142 1.0
C      1  0.5550203989894  0.4075601621317  0.4385138092692 1.0
C      1  0.3661757052886  0.7721894804660  0.4654134250874 1.0
C      1  0.5153699911280  0.5952272834860  0.2725430527411 1.0
C      1  0.4565998497165  0.2718861176878  0.6159390112934 1.0
C      1  0.6899786380319  0.5736726024533  0.3713460418015 1.0
C      1  0.4704363224638  0.5439330762111  0.5087413209444 1.0
C      1  0.4230732608262  0.4448364693349  0.2702654980554 1.0
C      1  0.5241530598367  0.5321546668137  0.7560898136380 1.0
C      1  0.3290455190022  0.3205429037944  0.4332597823248 1.0
C      1  0.5719530339891  0.2209374891128  0.4068698630554 1.0
C      1  0.3481340150595  0.4913083413407  0.3015774700970 1.0
C      1  0.5995140600690  0.7323917507753  0.4747233381126 1.0
C      1  0.6124320482432  0.5005552342120  0.7522295203405 1.0
C      1  0.7757065244325  0.4587574360910  0.5796503813899 1.0
C      1  0.7395896700281  0.4348940983655  0.6645185303546 1.0
C      1  0.5282484459999  0.7602540460040  0.5367313171890 1.0
C      1  0.4257584439226  0.4634901426560  0.4834954076614 1.0
C      1  0.8268269956935  0.5488215584172  0.4517339321822 1.0
C      1  0.5428468654643  0.6805284146486  0.3111547923464 1.0
C      1  0.5512545693202  0.3369925043427  0.2395386461204 1.0
C      1  0.4088717665049  0.5451140551382  0.4372213985069 1.0
C      1  0.5769748059987  0.5414465349727  0.5159501725072 1.0
C      1  0.2580624982964  0.4920471234151  0.6206227152505 1.0
C      1  0.5152513649302  0.6176221579005  0.7167410053710 1.0
C      1  0.6889569447973  0.4853695724700  0.7244175799825 1.0
C      1  0.2759699998763  0.3899085751902  0.4896976082246 1.0
C      1  0.3924655131970  0.7772776199656  0.3705020950195 1.0
C      1  0.5830493813304  0.4406022931692  0.5276268903936 1.0
C      1  0.2463330344854  0.5569901713805  0.4688498297098 1.0
C      1  0.8210732322533  0.4664765069275  0.3944281856523 1.0
C      1  0.7973904660577  0.3898291211256  0.4332983474220 1.0
C      1  0.2866818920217  0.5144141387392  0.7073400956279 1.0
C      1  0.3740236374385  0.7089051580539  0.3099262888571 1.0
C      1  0.3641780142632  0.3389891133525  0.7211366635775 1.0
C      1  0.5723395385801  0.2414843270573  0.4997088693709 1.0
C      1  0.6668105297079  0.6773683964297  0.5152575927622 1.0
C      1  0.3014439341111  0.3404091696055  0.6469465550779 1.0
C      1  0.5759977787501  0.6499318487204  0.6496330230402 1.0
C      1  0.3061219980400  0.7056461884089  0.4987668598157 1.0
C      1  0.7283104088051  0.3064421460316  0.5707719455309 1.0
C      1  0.6266324501285  0.6061180797168  0.5778860846291 1.0
C      1  0.5137409587181  0.3343699775721  0.6723428088401 1.0
C      1  0.5668532862039  0.4720925229919  0.3720372056751 1.0
C      1  0.4050572568983  0.3531581739960  0.2866314161822 1.0
C      1  0.7811511376099  0.6043744566237  0.3816820919975 1.0
C      1  0.6132862265832  0.3181012674062  0.6479732178930 1.0
C      1  0.3665757209167  0.5658670023633  0.3554978801914 1.0
C      1  0.2675487965527  0.4020402551426  0.5851371324595 1.0
C      1  0.3583071253053  0.6605007125085  0.6633401527125 1.0
C      1  0.3318070465812  0.5934160584850  0.7251697052267 1.0
C      1  0.4655190399480  0.3794552585635  0.4586362984870 1.0
C      1  0.4483319084484  0.3806698494312  0.7381235300073 1.0
C      1  0.7100682148492  0.3436636531566  0.6574262784683 1.0
C      1  0.5614559249864  0.7432298696837  0.3832995827714 1.0
C      1  0.5649290892353  0.4172974000913  0.2206272836144 1.0
C      1  0.4492162771775  0.6821013098456  0.6758009137989 1.0
C      1  0.3250601120040  0.3506053012327  0.3447296687978 1.0
C      1  0.2822442288361  0.4387631628765  0.3439572711838 1.0
C      1  0.4566429339537  0.6690651676502  0.2748195796573 1.0
C      1  0.3645025611572  0.5145247984662  0.7629240228485 1.0
C      1  0.5207306218511  0.7216475958558  0.6216604236975 1.0
C      1  0.4893295442101  0.2487978693321  0.3709826837248 1.0
C      1  0.7686045355689  0.5264387980390  0.3307418156466 1.0
C      1  0.3697675442104  0.2779536964412  0.6491515107495 1.0
C      1  0.4796042777352  0.2549428747765  0.5284586764567 1.0
C      1  0.4485599064905  0.4719550716937  0.7664763535995 1.0
C      1  0.2512598486715  0.4651347126186  0.4323957136955 1.0
C      1  0.4841098545914  0.7986442402835  0.3956835107948 1.0
END
