TITL C-91262-7133-25 -2.429 3375.00 -395.68939129 0 0 49 (C1) n - 1
REM
REM Run started: at 2020.12.05 02:12:16 in /rds/project/t2_vol4/rds-t2-cs072/BORA/CARBON/AIRSS/Generating-Clusters/Str-Search/Only-C1/C10-100
REM VASP from code version vasp.5.4.4.18Apr17-6-g9f103f2a35 (build Oct 11 2019 16:45:47) gamma-only
REM
REM
REM
REM
REM ./C.cell (67c5d0192afd7a3ce4a0888e5fe73b87)
REM AIRSS Version 0.9.1 bugfix July 2018 build 013d7b7c2542+ Fri, 06 Jul 2018 19:26:36 +0100
REM compiler GCC version 4.8.5 20150623 (Red Hat 4.8.5-39)
REM options -cpp -mtune=generic -march=x86-64 -g -O0
REM seed 1111617298 1105113648 -919708651 -1213127349 -196576727 -891280663 -1722046661 13139693 -1646706141 1750164012 1990627532 -889919018
REM
REM C.POTCAR (d86ddea03c3ceb6dc662c8ad6801f873)
REM 
CELL 1.54180   15.00000   15.00000   15.00000   90.00000   90.00000   90.00000
LATT -1
SFAC C  
C      1  0.7800962578308  0.4220708209369  0.4919881710008 1.0
C      1  0.3173719908871  0.3881465408929  0.3866024483355 1.0
C      1  0.3890943701775  0.7514864373486  0.5435463874152 1.0
C      1  0.4718022340601  0.2421529912173  0.5669482621528 1.0
C      1  0.5197356205885  0.4084264373906  0.6695933083843 1.0
C      1  0.4688531432721  0.5052587258077  0.4776040174535 1.0
C      1  0.3924956120744  0.4065119321866  0.3247701793298 1.0
C      1  0.6315497539831  0.5290294804463  0.5447849418817 1.0
C      1  0.4151541744022  0.3066121178780  0.6087172642941 1.0
C      1  0.4058319939332  0.8239197225533  0.5815775080797 1.0
C      1  0.6169080668936  0.4000058942543  0.6585922634882 1.0
C      1  0.6672522161619  0.3539803423355  0.5875287443405 1.0
C      1  0.7471485839752  0.4099686245574  0.5761585747113 1.0
C      1  0.6539392178744  0.5413388336826  0.4507280999877 1.0
C      1  0.5994044783841  0.5990480887447  0.4009236915477 1.0
C      1  0.5448248419611  0.6748533227775  0.4330240638819 1.0
C      1  0.6028742755249  0.8223978183030  0.5062895044725 1.0
C      1  0.3777954345855  0.5001919970879  0.3495252233956 1.0
C      1  0.6058886408674  0.8970476745039  0.5573497061435 1.0
C      1  0.5391619330954  0.5210173945207  0.5446547111450 1.0
C      1  0.4915843428410  0.4650397339332  0.6031934406702 1.0
C      1  0.4245786561211  0.4420869757387  0.5338720603230 1.0
C      1  0.5935021075818  0.4596701714807  0.3301712349658 1.0
C      1  0.4439910914377  0.8972353634747  0.6168979022106 1.0
C      1  0.4658653971908  0.3467567087266  0.3452099890985 1.0
C      1  0.4525891539123  0.6466889878672  0.4309471451646 1.0
C      1  0.7732165120062  0.4384880853089  0.4087263460219 1.0
C      1  0.4543185277434  0.5515126493685  0.3880506243424 1.0
C      1  0.4292815387310  0.2839077306255  0.4088024520078 1.0
C      1  0.4281231575343  0.3639861819667  0.6867645444778 1.0
C      1  0.3763499877367  0.3581076608940  0.5351454656427 1.0
C      1  0.5257399892805  0.9095812365335  0.5903169203050 1.0
C      1  0.5798768874084  0.7508787743053  0.4697927647394 1.0
C      1  0.5542040779751  0.2535716424990  0.5203421772870 1.0
C      1  0.5581290445518  0.3729452109024  0.3523890712199 1.0
C      1  0.6217051757420  0.3182011589258  0.5077742616874 1.0
C      1  0.3483814484131  0.3251715796023  0.4467932683470 1.0
C      1  0.6227165734079  0.3649113466545  0.4243616143719 1.0
C      1  0.2913963271169  0.5385296957632  0.5782650740582 1.0
C      1  0.2985767501447  0.4830505303053  0.4022336077842 1.0
C      1  0.5471445879993  0.5394507364482  0.3460902302945 1.0
C      1  0.3839669412164  0.6739010944686  0.4943259032206 1.0
C      1  0.6723639584115  0.4664069465760  0.6076897729054 1.0
C      1  0.3595961255679  0.4302381761298  0.6862897460670 1.0
C      1  0.6721004253875  0.4536211140110  0.3989036188357 1.0
C      1  0.4780954898564  0.2343841549132  0.4706572575405 1.0
C      1  0.3077789692041  0.4899991504248  0.6557422961311 1.0
C      1  0.3162207014298  0.6077933519560  0.5181478283461 1.0
C      1  0.2814234135181  0.5304187527706  0.4811963104926 1.0
END
