TITL C-91262-7133-15 -4.427 3375.00 -775.73585159 0 0 94 (C1) n - 1
REM
REM Run started: at 2020.12.04 21:40:27 in /rds/project/t2_vol4/rds-t2-cs072/BORA/CARBON/AIRSS/Generating-Clusters/Str-Search/Only-C1/C10-100
REM VASP from code version vasp.5.4.4.18Apr17-6-g9f103f2a35 (build Oct 11 2019 16:45:47) gamma-only
REM
REM
REM
REM
REM ./C.cell (67c5d0192afd7a3ce4a0888e5fe73b87)
REM AIRSS Version 0.9.1 bugfix July 2018 build 013d7b7c2542+ Fri, 06 Jul 2018 19:26:36 +0100
REM compiler GCC version 4.8.5 20150623 (Red Hat 4.8.5-39)
REM options -cpp -mtune=generic -march=x86-64 -g -O0
REM seed 2138986358 783491601 1170039559 -1087293522 1530267266 220947449 1060323304 -1046929094 -569888314 -1264959429 -1456430597 -504874107
REM
REM C.POTCAR (d86ddea03c3ceb6dc662c8ad6801f873)
REM 
CELL 1.54180   15.00000   15.00000   15.00000   90.00000   90.00000   90.00000
LATT -1
SFAC C  
C      1  0.7369893601284  0.5051337807166  0.6054805560500 1.0
C      1  0.3754377870230  0.7082158642972  0.6932096230744 1.0
C      1  0.3756090082374  0.2660315377983  0.6058706722907 1.0
C      1  0.4397896157004  0.3969626789613  0.7820433401397 1.0
C      1  0.3419344460026  0.3293708390395  0.2835408030810 1.0
C      1  0.7552669596446  0.5899997876850  0.5669332999205 1.0
C      1  0.5244027680065  0.4400180119677  0.4911903794058 1.0
C      1  0.7282927888529  0.4331727164321  0.4534913632719 1.0
C      1  0.4697242998697  0.2301142573075  0.6119475235061 1.0
C      1  0.6050765422419  0.7327179917180  0.4905121487074 1.0
C      1  0.2623897175683  0.6881098287087  0.5795987724905 1.0
C      1  0.4802215131024  0.2631161661231  0.3343476194617 1.0
C      1  0.6107645532759  0.2852196950440  0.2876696363443 1.0
C      1  0.5488764202080  0.2787813134578  0.5713691650906 1.0
C      1  0.3938043519694  0.2993746642196  0.3586042032697 1.0
C      1  0.2676091906035  0.4307755329680  0.6227542175352 1.0
C      1  0.3493823494990  0.4417284018475  0.2086829632962 1.0
C      1  0.6386660010531  0.5625528798491  0.7430000846699 1.0
C      1  0.2726788184104  0.3829442518508  0.5429466402717 1.0
C      1  0.5345543950897  0.4788093435189  0.3956439469829 1.0
C      1  0.6691681000670  0.4550801923990  0.2593408469281 1.0
C      1  0.6676888551982  0.3642359410132  0.2995186601140 1.0
C      1  0.4307760411167  0.3057483537111  0.7468890227539 1.0
C      1  0.4431017064505  0.7557575085853  0.4632923193337 1.0
C      1  0.2893116930168  0.5296302579368  0.6325640122835 1.0
C      1  0.3417811349086  0.5390463861160  0.7214576430038 1.0
C      1  0.5869228950762  0.2910720783212  0.7198818856567 1.0
C      1  0.2496809365540  0.6251557952280  0.6504871290897 1.0
C      1  0.4924925180364  0.5876663124776  0.7703903871350 1.0
C      1  0.5287471052237  0.6885367178668  0.3385014331148 1.0
C      1  0.6017907908740  0.3686631499604  0.7691564948319 1.0
C      1  0.6461782866428  0.3770142799169  0.5825060048602 1.0
C      1  0.4346312001754  0.5556085798893  0.6986055102770 1.0
C      1  0.5243523828483  0.4868102708536  0.5761287024221 1.0
C      1  0.5876734623897  0.7481057058462  0.5840907824941 1.0
C      1  0.3324242347018  0.3053914870622  0.5312835318670 1.0
C      1  0.4294521038951  0.7750961550313  0.5581237216667 1.0
C      1  0.3657743830803  0.6346525046430  0.3643051149567 1.0
C      1  0.6700530960033  0.5023642480809  0.6764884246823 1.0
C      1  0.6884877930883  0.3638630304385  0.3966165020428 1.0
C      1  0.5466906118837  0.1758153992017  0.4515542878418 1.0
C      1  0.4519404193883  0.5397836678881  0.6082159683402 1.0
C      1  0.6154751952482  0.5220728328492  0.3852583650581 1.0
C      1  0.5332096944483  0.7338464568513  0.4253353612559 1.0
C      1  0.3354489547617  0.6505331751192  0.5319152587163 1.0
C      1  0.3110649034342  0.6398106088447  0.7223066836375 1.0
C      1  0.5306111990743  0.6719670075090  0.7445566416012 1.0
C      1  0.3272426039554  0.5449093408694  0.3895746484707 1.0
C      1  0.3556717324566  0.4433140576162  0.7586028719024 1.0
C      1  0.5613893637783  0.5825479146357  0.2243847647367 1.0
C      1  0.2802286931202  0.4625091989602  0.3614680555596 1.0
C      1  0.3500351389024  0.7351144057223  0.6028689271548 1.0
C      1  0.5006597583782  0.7677029213463  0.6177504081445 1.0
C      1  0.3564637044598  0.3302106215163  0.4428902734944 1.0
C      1  0.3877606915779  0.3516810498221  0.2013473534619 1.0
C      1  0.7645024807169  0.7337845936372  0.4130605721424 1.0
C      1  0.3480424244707  0.5071404237310  0.4713813930188 1.0
C      1  0.6017060993710  0.4538152033031  0.6281640992804 1.0
C      1  0.6919754230070  0.5339360854576  0.3202740241946 1.0
C      1  0.5766080756166  0.3542745972459  0.5112905578476 1.0
C      1  0.3066944058212  0.3864974051762  0.6984528975170 1.0
C      1  0.6541617689372  0.7039670940402  0.6418250988865 1.0
C      1  0.7011798732847  0.6972233666714  0.4859296888050 1.0
C      1  0.7245976535006  0.4287516661809  0.5471672205857 1.0
C      1  0.4982821313785  0.2516822885694  0.7130025104082 1.0
C      1  0.4808575716239  0.3459150095222  0.1939278925447 1.0
C      1  0.4666553098716  0.5826463433756  0.2420271733384 1.0
C      1  0.6221783638705  0.6567948765101  0.7206019547059 1.0
C      1  0.5219930574021  0.2829545094433  0.2516264496400 1.0
C      1  0.2935269534379  0.4152775476782  0.2847371096385 1.0
C      1  0.5939948140450  0.4908875251311  0.2103011007217 1.0
C      1  0.5176148655030  0.1860638102698  0.5327384728927 1.0
C      1  0.5582840623524  0.5236168913813  0.7847706555895 1.0
C      1  0.5121351826156  0.4379044632626  0.2124083290600 1.0
C      1  0.4848258849106  0.4604923949669  0.3134676323004 1.0
C      1  0.7239142635490  0.6792581810999  0.5858572444634 1.0
C      1  0.4297262722281  0.4940579821035  0.2292566815330 1.0
C      1  0.3533188773666  0.3037442659075  0.6885810683825 1.0
C      1  0.7126831432764  0.5236262601932  0.4188089079011 1.0
C      1  0.3111786048148  0.7251987852010  0.3601913821443 1.0
C      1  0.3532931134618  0.7902380327716  0.4048035070241 1.0
C      1  0.6919468553878  0.6334126233222  0.2965117944296 1.0
C      1  0.5698573149700  0.2485464824721  0.3829427266324 1.0
C      1  0.7421300714384  0.6940431127299  0.3406206684181 1.0
C      1  0.4475501637291  0.6437354487525  0.3110163640893 1.0
C      1  0.3025604791575  0.4179692734827  0.4514540079331 1.0
C      1  0.7293461979764  0.5992263177730  0.4772899424048 1.0
C      1  0.4700818305599  0.7294545152459  0.7015064372465 1.0
C      1  0.3715902628915  0.6873819675073  0.4469998742285 1.0
C      1  0.6186718249156  0.3173670850626  0.4338006452148 1.0
C      1  0.5985331111217  0.6498026667026  0.2789600818700 1.0
C      1  0.5326517220123  0.4290806899994  0.7881727576847 1.0
C      1  0.6221806678518  0.2925482222026  0.6321037425084 1.0
C      1  0.3631166508526  0.5532149342768  0.5574725750233 1.0
END
