TITL C-91262-7133-17 -1.241 3375.00 -186.54419748 0 0 24 (C1) n - 1
REM
REM Run started: at 2020.12.04 22:30:53 in /rds/project/t2_vol4/rds-t2-cs072/BORA/CARBON/AIRSS/Generating-Clusters/Str-Search/Only-C1/C10-100
REM VASP from code version vasp.5.4.4.18Apr17-6-g9f103f2a35 (build Oct 11 2019 16:45:47) gamma-only
REM
REM
REM
REM
REM ./C.cell (67c5d0192afd7a3ce4a0888e5fe73b87)
REM AIRSS Version 0.9.1 bugfix July 2018 build 013d7b7c2542+ Fri, 06 Jul 2018 19:26:36 +0100
REM compiler GCC version 4.8.5 20150623 (Red Hat 4.8.5-39)
REM options -cpp -mtune=generic -march=x86-64 -g -O0
REM seed -1397578702 1069348680 701712664 -736431374 1311260332 78697752 -1861386965 1432736928 1395514024 -1142449519 1829700516 -16511963
REM
REM C.POTCAR (d86ddea03c3ceb6dc662c8ad6801f873)
REM 
CELL 1.54180   15.00000   15.00000   15.00000   90.00000   90.00000   90.00000
LATT -1
SFAC C  
C      1  0.5637492466618  0.4333840730603  0.6093835057461 1.0
C      1  0.0999328614605  0.4380229546437  0.4995629000320 1.0
C      1  0.5424558872870  0.3416998867293  0.6241564956999 1.0
C      1  0.1798715896176  0.4724674448504  0.5055063228842 1.0
C      1  0.6490177945038  0.5621137644050  0.3114525528809 1.0
C      1  0.5399390411482  0.5923124194329  0.5729313122344 1.0
C      1  0.3920458663809  0.3884552886232  0.6035537236893 1.0
C      1  0.5843105760973  0.6090776025477  0.3391348047160 1.0
C      1  0.6277143669389  0.6201143714927  0.5401873507907 1.0
C      1  0.6898755315177  0.3472352032786  0.5224164773095 1.0
C      1  0.5254483826571  0.6474710813052  0.3967604736229 1.0
C      1  0.7291479172862  0.4239675388534  0.3737393991342 1.0
C      1  0.5012458274654  0.6795918573036  0.5660643801581 1.0
C      1  0.4104897652380  0.4770086311364  0.5758133271669 1.0
C      1  0.5580346012473  0.6619958933974  0.4884722294239 1.0
C      1  0.6935987410554  0.4896699348297  0.3332320732697 1.0
C      1  0.3766310786992  0.5891922296445  0.4550926907092 1.0
C      1  0.7156687246012  0.3805336280798  0.4489116083878 1.0
C      1  0.4347725847372  0.6215177613811  0.4062759610566 1.0
C      1  0.4511955440944  0.3316396201951  0.6218349487142 1.0
C      1  0.3466230076752  0.5262036927978  0.5192245351916 1.0
C      1  0.6236946402096  0.3637369807024  0.5814628323950 1.0
C      1  0.5041397058444  0.5028598234747  0.5892400762473 1.0
C      1  0.2603967175755  0.4997283178350  0.5155901185395 1.0
END
