TITL C-91262-7133-13 -2.031 3375.00 -316.82792393 0 0 40 (C1) n - 1
REM
REM Run started: at 2020.12.04 20:53:48 in /rds/project/t2_vol4/rds-t2-cs072/BORA/CARBON/AIRSS/Generating-Clusters/Str-Search/Only-C1/C10-100
REM VASP from code version vasp.5.4.4.18Apr17-6-g9f103f2a35 (build Oct 11 2019 16:45:47) gamma-only
REM
REM
REM
REM
REM ./C.cell (67c5d0192afd7a3ce4a0888e5fe73b87)
REM AIRSS Version 0.9.1 bugfix July 2018 build 013d7b7c2542+ Fri, 06 Jul 2018 19:26:36 +0100
REM compiler GCC version 4.8.5 20150623 (Red Hat 4.8.5-39)
REM options -cpp -mtune=generic -march=x86-64 -g -O0
REM seed 1343813234 946038859 -1130142691 2096345257 532780817 -1940274593 1867381137 940084103 -620119190 1413894805 1681398208 -2125536278
REM
REM C.POTCAR (d86ddea03c3ceb6dc662c8ad6801f873)
REM 
CELL 1.54180   15.00000   15.00000   15.00000   90.00000   90.00000   90.00000
LATT -1
SFAC C  
C      1  0.4593601779216  0.3748976273173  0.5768654500775 1.0
C      1  0.3700070340578  0.5687293251697  0.6080585508886 1.0
C      1  0.2406935541347  0.3938638683895  0.4810235308978 1.0
C      1  0.2521787970288  0.3490766279738  0.5501924411822 1.0
C      1  0.5823481437225  0.5492438277245  0.7502912028961 1.0
C      1  0.5141261229553  0.6434939439242  0.4669861493968 1.0
C      1  0.4072092624142  0.5042377143840  0.3282387236552 1.0
C      1  0.5725958628027  0.6115745978267  0.5408359992438 1.0
C      1  0.7000377397264  0.6141361647167  0.6373808335743 1.0
C      1  0.4884841230941  0.5116565780665  0.2824009757362 1.0
C      1  0.7053390768119  0.5186411892894  0.6199096119530 1.0
C      1  0.6678741241093  0.4741835932453  0.5448655043916 1.0
C      1  0.3064268847627  0.3126453819890  0.6124168165136 1.0
C      1  0.5596454310451  0.6745076908244  0.3928480756856 1.0
C      1  0.5111143133246  0.3289194048223  0.4085708575218 1.0
C      1  0.6586818558710  0.3776233458182  0.4185578023749 1.0
C      1  0.6090209816697  0.6803148367518  0.3253027592946 1.0
C      1  0.6364369700531  0.6576888632320  0.5834286660947 1.0
C      1  0.4524453428375  0.5300712454019  0.6454425295764 1.0
C      1  0.3078062224895  0.5443256615601  0.4435178979699 1.0
C      1  0.7034450026091  0.4505689639458  0.4555052889144 1.0
C      1  0.5001121432107  0.4609603874920  0.5915859973838 1.0
C      1  0.5756140333862  0.5018373907962  0.5535976118431 1.0
C      1  0.3768002675256  0.5763407394381  0.3815492441448 1.0
C      1  0.4241882401891  0.6190375405434  0.4557997818153 1.0
C      1  0.2891279054321  0.4521093648680  0.4272199903192 1.0
C      1  0.6543413387758  0.5587113539885  0.6996271804774 1.0
C      1  0.3849921125596  0.3430440868019  0.6215849262769 1.0
C      1  0.7284982676970  0.5104855102219  0.3899324320255 1.0
C      1  0.3557616351322  0.5845608380188  0.5179789391848 1.0
C      1  0.7148186734131  0.5548653708089  0.3198632108689 1.0
C      1  0.4956565393533  0.5470180331750  0.7373594241785 1.0
C      1  0.4211456186889  0.3596982411455  0.4009288347871 1.0
C      1  0.5622287016069  0.5423914968611  0.2614341250354 1.0
C      1  0.3608108069141  0.4251209595323  0.3651086950651 1.0
C      1  0.6357572005233  0.5943869157461  0.2909621425313 1.0
C      1  0.6015361302420  0.3235764512982  0.3912666971123 1.0
C      1  0.4602247669830  0.3418089811948  0.4846073335560 1.0
C      1  0.4082047410840  0.5101313161625  0.7493765703507 1.0
C      1  0.3449039538414  0.5235144695335  0.6875772952048 1.0
END
