TITL C-96499-3384-11 -8.156 3375.00 -1404.23140287 0 0 172 (C1) n - 1
REM
REM Run started: at 2021.01.21 02:22:52 in /rds/project/t2_vol4/rds-t2-cs072/BORA/CARBON/AIRSS/Generating-Clusters/Str-Search/Only-C1/C100-200
REM VASP from code version vasp.5.4.4.18Apr17-6-g9f103f2a35 (build Oct 11 2019 16:45:47) gamma-only
REM
REM
REM
REM
REM ./C.cell (efaf0b2bf1589a83377268d7ebe2c73f)
REM AIRSS Version 0.9.1 bugfix July 2018 build 013d7b7c2542+ Fri, 06 Jul 2018 19:26:36 +0100
REM compiler GCC version 4.8.5 20150623 (Red Hat 4.8.5-39)
REM options -cpp -mtune=generic -march=x86-64 -g -O0
REM seed 696332007 140727547 -448528240 705996283 182012973 -1434140105 1077704709 426824991 142490185 -2016176097 -1809525561 -535187576
REM
REM C.POTCAR (d86ddea03c3ceb6dc662c8ad6801f873)
REM 
CELL 1.54180   15.00000   15.00000   15.00000   90.00000   90.00000   90.00000
LATT -1
SFAC C  
C      1  0.4117374797888  0.7143019993617  0.4283437863868 1.0
C      1  0.5419415267037  0.4777777226709  0.6660895222841 1.0
C      1  0.7424579802212  0.5585449109992  0.4915274075437 1.0
C      1  0.5349224856224  0.7618096036113  0.2093560464908 1.0
C      1  0.5610394968237  0.3442167247134  0.6071213159990 1.0
C      1  0.8110633495407  0.1807805763349  0.4681921210595 1.0
C      1  0.2334888434249  0.6618838545542  0.7192094925033 1.0
C      1  0.3031024810785  0.5573213787637  0.8316048696157 1.0
C      1  0.3732311135196  0.6185667175737  0.7930349044862 1.0
C      1  0.7107461235790  0.7835749898949  0.5529746486229 1.0
C      1  0.2045668170835  0.2460050813529  0.6343780070352 1.0
C      1  0.4948898719779  0.6524126604349  0.8853676290750 1.0
C      1  0.3400863679237  0.4557777466242  0.3218173807845 1.0
C      1  0.7643027983766  0.4979527410253  0.5596113894606 1.0
C      1  0.9115871723733  0.3978324148875  0.5174216450431 1.0
C      1  0.4948389708858  0.5235644153241  0.5133972407296 1.0
C      1  0.6712651635628  0.2348879645755  0.3324167232191 1.0
C      1  0.8776193440647  0.3111511879696  0.5543124916379 1.0
C      1  0.5420244486250  0.8788667448159  0.4516576746101 1.0
C      1  0.8480796551146  0.4053095689596  0.3565393876222 1.0
C      1  0.5037573505326  0.5698055119489  0.9144592072612 1.0
C      1  0.2154655883817  0.5822625609965  0.6711167206977 1.0
C      1  0.5715611664180  0.6335008007384  0.1400645994329 1.0
C      1  0.2131944495466  0.3035512861781  0.4275155785894 1.0
C      1  0.6244226535251  0.5089793034915  0.1595270067223 1.0
C      1  0.6663525178873  0.3236071840981  0.3292906437447 1.0
C      1  0.5487208150016  0.6329204957315  0.6577361436792 1.0
C      1  0.4163716842154  0.5149415911752  0.2981117141751 1.0
C      1  0.3418120215734  0.8135940629087  0.5453983078093 1.0
C      1  0.6814078463751  0.5123369118129  0.4320754228829 1.0
C      1  0.1368749507844  0.4738324348188  0.4080667852617 1.0
C      1  0.3961735460051  0.1722801974702  0.7091228351674 1.0
C      1  0.2718047613281  0.7383395505864  0.6730018011632 1.0
C      1  0.6549409967500  0.1649809432179  0.3872778478021 1.0
C      1  0.2759362373883  0.6382913675500  0.8008068752440 1.0
C      1  0.5350233871773  0.3832215932951  0.6934444274041 1.0
C      1  0.4186413035830  0.2823150290659  0.1839109232808 1.0
C      1  0.1424335806263  0.7055039835123  0.4474950270381 1.0
C      1  0.5953747411046  0.3388298037027  0.1604828793640 1.0
C      1  0.7197703454823  0.1588560667272  0.4607756013296 1.0
C      1  0.6695232156391  0.4229842553779  0.8110234428848 1.0
C      1  0.4243204623470  0.6363088527504  0.1219598408513 1.0
C      1  0.3527011488524  0.2955896517608  0.8245494899944 1.0
C      1  0.5840244411564  0.7537463168870  0.4665491387707 1.0
C      1  0.7345959599057  0.2932306935225  0.7716550173519 1.0
C      1  0.8954950159350  0.4060378978351  0.4239854172814 1.0
C      1  0.6891925256507  0.6952826096672  0.7939328273740 1.0
C      1  0.1722340072073  0.3387090623748  0.5037131439579 1.0
C      1  0.4816565355530  0.8273428154954  0.6726404194248 1.0
C      1  0.7878179331243  0.3625590642581  0.7304426875355 1.0
C      1  0.1653170595419  0.3853213195017  0.4210676204452 1.0
C      1  0.7765771047934  0.6737942350401  0.6479730067456 1.0
C      1  0.7778292120754  0.3211619297040  0.5664103973386 1.0
C      1  0.2823617184103  0.5571131133311  0.1648472531282 1.0
C      1  0.3485947349429  0.7875437284621  0.7023224249948 1.0
C      1  0.3227184339123  0.7066061714875  0.2229936049345 1.0
C      1  0.6162377155365  0.5696827915425  0.3852384921165 1.0
C      1  0.6598568875814  0.3325204375988  0.8185781411255 1.0
C      1  0.7579456750133  0.5406884000907  0.7441153222185 1.0
C      1  0.1805981241777  0.3372305685817  0.5978427411874 1.0
C      1  0.2590296786366  0.7636355459179  0.5811708216917 1.0
C      1  0.4589509090320  0.6805392610758  0.6741798028964 1.0
C      1  0.7719024307364  0.7076114916780  0.5599457721025 1.0
C      1  0.6522065116560  0.3381418114415  0.5920448585406 1.0
C      1  0.1269842140895  0.6152954895693  0.4298294058423 1.0
C      1  0.3428116521412  0.2559309922529  0.3166480392834 1.0
C      1  0.6198319236804  0.3583942423743  0.4118588907227 1.0
C      1  0.5546785069742  0.7958336925627  0.3035905244699 1.0
C      1  0.3732444901541  0.3376011641841  0.4480440354412 1.0
C      1  0.5637347333175  0.8828220575693  0.3530244275595 1.0
C      1  0.7655498588252  0.2070220102883  0.7427497710964 1.0
C      1  0.6737508314357  0.4239334984167  0.4589401003320 1.0
C      1  0.3759622098983  0.3573646286040  0.6409793410248 1.0
C      1  0.6335989619317  0.4198617312452  0.2015053021804 1.0
C      1  0.7599459223672  0.6523211228185  0.4842577579023 1.0
C      1  0.3105558788468  0.8324835428406  0.4442738789927 1.0
C      1  0.5236467145401  0.2934328125886  0.1804853625017 1.0
C      1  0.5017970202513  0.3421691737792  0.5368104407186 1.0
C      1  0.5570757852638  0.5503035431426  0.1003022518843 1.0
C      1  0.2199821658529  0.4906189974737  0.7074459738999 1.0
C      1  0.4404054489351  0.3668996623259  0.7067116545617 1.0
C      1  0.4971225144199  0.4113156552629  0.8457212053252 1.0
C      1  0.5627518003256  0.5979430711976  0.5578150763593 1.0
C      1  0.7054688793603  0.3904210372113  0.2653574728094 1.0
C      1  0.2862828947294  0.3531796843340  0.6993304456338 1.0
C      1  0.6947870947352  0.7217997401523  0.6915359629138 1.0
C      1  0.1631512605805  0.5359015156083  0.4744508703661 1.0
C      1  0.4404538362109  0.6914401387798  0.8252033098492 1.0
C      1  0.1415843130790  0.5646662451402  0.2652864661301 1.0
C      1  0.2682904014402  0.5817648082221  0.5902643091465 1.0
C      1  0.3351277892558  0.2244764875630  0.7575147967499 1.0
C      1  0.8094507571959  0.6041334496267  0.2930020857834 1.0
C      1  0.6888218118959  0.6051463577264  0.7698160015364 1.0
C      1  0.4752576065965  0.2322996520767  0.2350784017206 1.0
C      1  0.5350809628690  0.3333324761663  0.4438081496340 1.0
C      1  0.5013803781054  0.4864274039149  0.8942606248801 1.0
C      1  0.5565642110488  0.4688188152546  0.2472469861150 1.0
C      1  0.3016145511625  0.2602802065245  0.4085113216398 1.0
C      1  0.6309592597424  0.8723971282574  0.4212548814111 1.0
C      1  0.5585213026683  0.8174554989977  0.6178480929134 1.0
C      1  0.5584168114188  0.7193111536005  0.3797642995623 1.0
C      1  0.4391776209416  0.7560919737419  0.7414517243800 1.0
C      1  0.1422092469150  0.7865479941898  0.3887003851317 1.0
C      1  0.8080149509707  0.5238023294819  0.2681644713339 1.0
C      1  0.1170969068925  0.5545781830458  0.3524193835792 1.0
C      1  0.1975853584768  0.7522210588157  0.5126352251948 1.0
C      1  0.3889281909953  0.8424483707179  0.6369071845259 1.0
C      1  0.3562352985748  0.7713119367436  0.3815819592897 1.0
C      1  0.4779309367347  0.1460850718812  0.5561445309507 1.0
C      1  0.4178179159498  0.6771026280332  0.5871888013724 1.0
C      1  0.4417973902468  0.2276841880019  0.3293817998059 1.0
C      1  0.2159916310005  0.4059530170764  0.6568915034688 1.0
C      1  0.4433450338963  0.1521549024092  0.6429543489642 1.0
C      1  0.5658716805700  0.5028398254133  0.5742882229080 1.0
C      1  0.6548679685081  0.7919458012961  0.6281619067912 1.0
C      1  0.4583487586484  0.3029079056389  0.3978008111145 1.0
C      1  0.5705646675426  0.1494328966254  0.5193613504660 1.0
C      1  0.4730412969524  0.5828680034262  0.3217677028874 1.0
C      1  0.4171909054975  0.3678548137978  0.8012448255380 1.0
C      1  0.5653667828878  0.1458182821333  0.4236793909583 1.0
C      1  0.3688192084496  0.5900417483847  0.6034903448149 1.0
C      1  0.4006853646093  0.5241844821733  0.5346736405600 1.0
C      1  0.3309052337161  0.7499314067336  0.2922189031639 1.0
C      1  0.7636734166919  0.6815407139907  0.3107716225488 1.0
C      1  0.4193637629200  0.1555840928510  0.4778608147863 1.0
C      1  0.4129785398525  0.5941208119561  0.7039452829354 1.0
C      1  0.6733102426644  0.6794242649663  0.2638729640316 1.0
C      1  0.3376484824267  0.6388484915490  0.1575047162186 1.0
C      1  0.6642796237058  0.1773932683811  0.5382563421679 1.0
C      1  0.2712119746509  0.4751000124280  0.7912431014969 1.0
C      1  0.6422921180378  0.6651103239823  0.3626607511031 1.0
C      1  0.4060173123724  0.3453762341954  0.5473144698493 1.0
C      1  0.2189290865793  0.8137607029522  0.4366981076225 1.0
C      1  0.3440794805228  0.4286340955079  0.4131139783207 1.0
C      1  0.2493262462561  0.5363182167976  0.5137553250217 1.0
C      1  0.5039202722981  0.5521964217089  0.6998408329305 1.0
C      1  0.9102792839942  0.4690869873016  0.5753132605923 1.0
C      1  0.2003924624031  0.1688523279219  0.5810403612478 1.0
C      1  0.8456574924292  0.5200263364098  0.6094731187144 1.0
C      1  0.4612865818303  0.5456960244171  0.0953518507019 1.0
C      1  0.4749838889056  0.1649531051688  0.3992090998972 1.0
C      1  0.6213119575764  0.7615084683302  0.2381638410324 1.0
C      1  0.5002883454967  0.6929072576249  0.1495764213058 1.0
C      1  0.7236361663553  0.4066985070204  0.5464614556398 1.0
C      1  0.3117983292737  0.3848300492403  0.7922270189398 1.0
C      1  0.3331379829026  0.4966618330713  0.4798207105020 1.0
C      1  0.4664860233919  0.4646252114761  0.2252188324650 1.0
C      1  0.7480216979858  0.4491726029806  0.7573238618624 1.0
C      1  0.2008356904104  0.5632579380743  0.2071455238590 1.0
C      1  0.6786362272479  0.7901723633391  0.4583832326626 1.0
C      1  0.5212433663192  0.8037978283892  0.5228039701456 1.0
C      1  0.4266518843620  0.7470924169860  0.5206860801250 1.0
C      1  0.3416998895280  0.3132031149933  0.2423863674069 1.0
C      1  0.5383548373721  0.5908296249365  0.4564366704106 1.0
C      1  0.8092097704840  0.5881296752012  0.6742156811034 1.0
C      1  0.7881367817096  0.4338017481409  0.2868633911867 1.0
C      1  0.3158532030026  0.4074287212272  0.2420328394457 1.0
C      1  0.2603348672470  0.1529588272212  0.5251094377025 1.0
C      1  0.5784223427392  0.3839895282851  0.7892306977264 1.0
C      1  0.7243277401991  0.7055478161194  0.4067348883837 1.0
C      1  0.6280695049999  0.6015780535776  0.2147738948676 1.0
C      1  0.5674316337467  0.5536327281558  0.2963837527385 1.0
C      1  0.4818533351282  0.6520108611306  0.3951445082005 1.0
C      1  0.2616202687194  0.2576511880503  0.7050373212659 1.0
C      1  0.8286667122482  0.2177012518197  0.6879607589989 1.0
C      1  0.3259545366614  0.1773824220257  0.4678399914205 1.0
C      1  0.3269508878316  0.4703341971290  0.1648619285080 1.0
C      1  0.6974832906208  0.2621393655713  0.5732444995248 1.0
C      1  0.6346672154879  0.6467830005254  0.7023714667388 1.0
C      1  0.8389570626736  0.3084744071561  0.6522608692709 1.0
C      1  0.4183654092788  0.4727207891923  0.1408439016386 1.0
C      1  0.8708063907433  0.2244782542529  0.5063580314904 1.0
END
