TITL C-97547-8777-18 -6.139 3375.00 -1063.42789172 0 0 129 (C1) n - 1
REM
REM Run started: at 2021.01.21 04:13:04 in /rds/project/t2_vol4/rds-t2-cs072/BORA/CARBON/AIRSS/Generating-Clusters/Str-Search/Only-C1/C100-200
REM VASP from code version vasp.5.4.4.18Apr17-6-g9f103f2a35 (build Oct 11 2019 16:45:47) gamma-only
REM
REM
REM
REM
REM ./C.cell (efaf0b2bf1589a83377268d7ebe2c73f)
REM AIRSS Version 0.9.1 bugfix July 2018 build 013d7b7c2542+ Fri, 06 Jul 2018 19:26:36 +0100
REM compiler GCC version 4.8.5 20150623 (Red Hat 4.8.5-39)
REM options -cpp -mtune=generic -march=x86-64 -g -O0
REM seed -122501481 -94208545 -258100641 586789540 -1031628836 -170251960 -815831551 1693883441 1544153986 99589304 -1296054749 -735132926
REM
REM C.POTCAR (d86ddea03c3ceb6dc662c8ad6801f873)
REM 
CELL 1.54180   15.00000   15.00000   15.00000   90.00000   90.00000   90.00000
LATT -1
SFAC C  
C      1  0.6669807982483  0.6764695443880  0.2656964443202 1.0
C      1  0.6241655344384  0.1745205227084  0.5659079539069 1.0
C      1  0.5768113161342  0.8317260721450  0.4521915591805 1.0
C      1  0.5000073164629  0.2476890884693  0.4477594573916 1.0
C      1  0.1794446359713  0.5180177846442  0.4097337859364 1.0
C      1  0.3355259782282  0.2401893476298  0.3750809612834 1.0
C      1  0.5876905680326  0.6338688541077  0.2239689239719 1.0
C      1  0.4555814261503  0.7061668052530  0.3015823604021 1.0
C      1  0.7031709933382  0.3217884130515  0.5956468408549 1.0
C      1  0.4472547671297  0.4604286152124  0.4363029523593 1.0
C      1  0.4402528014652  0.5155751456488  0.2336486008566 1.0
C      1  0.3960744198570  0.8014587534495  0.4170077525915 1.0
C      1  0.4254180122766  0.4194889726431  0.7692380127010 1.0
C      1  0.4358162109158  0.7590597151596  0.5699895546539 1.0
C      1  0.7964074332648  0.5520171586390  0.5686289154340 1.0
C      1  0.5428863435837  0.6816207573863  0.3674139390198 1.0
C      1  0.3032598464031  0.5412908988372  0.5014975533539 1.0
C      1  0.1998197008667  0.3611545475124  0.5012589054822 1.0
C      1  0.3600803934296  0.3538723597459  0.7227026040037 1.0
C      1  0.2623044249263  0.6122289139241  0.2970527284961 1.0
C      1  0.5940522740515  0.3964932764082  0.3994199677283 1.0
C      1  0.5991997601479  0.6138959014267  0.5281165750492 1.0
C      1  0.5389247403048  0.6812624653186  0.4708717172601 1.0
C      1  0.4516182599098  0.1717252588964  0.5824241358946 1.0
C      1  0.2013573867505  0.5458662315461  0.3219842553532 1.0
C      1  0.7181843608863  0.5331578071337  0.7054916884512 1.0
C      1  0.2600738551714  0.5190695823916  0.7720603414524 1.0
C      1  0.5186277251739  0.7695855057353  0.5069561286913 1.0
C      1  0.8047804786507  0.4609367995926  0.4259745952754 1.0
C      1  0.3423402263051  0.2231166261480  0.4704753542649 1.0
C      1  0.2243284878279  0.5486012952438  0.6921397800935 1.0
C      1  0.6672976850297  0.4476133492809  0.7239908385007 1.0
C      1  0.4060895976056  0.4866246662032  0.8414097181813 1.0
C      1  0.4526259517593  0.3754669651357  0.1661400384072 1.0
C      1  0.5223016554428  0.4916935758276  0.2849694238388 1.0
C      1  0.2294440434285  0.5822210947503  0.4628849953858 1.0
C      1  0.5648196870366  0.8005582265147  0.6634959162158 1.0
C      1  0.6075540003975  0.6684383350030  0.8000296556354 1.0
C      1  0.2944198305840  0.6853501850816  0.3548346409223 1.0
C      1  0.1772506052235  0.4270635271330  0.4367634915316 1.0
C      1  0.5704576243233  0.5887787640505  0.6101491846445 1.0
C      1  0.8226849684450  0.5403926442522  0.4777053230464 1.0
C      1  0.6681829771597  0.6971148955498  0.7293178971400 1.0
C      1  0.5693987880519  0.2361496315895  0.6780792475559 1.0
C      1  0.4692467418176  0.1552055232425  0.4029626058565 1.0
C      1  0.5998807777346  0.5363757121498  0.2372369297430 1.0
C      1  0.6407165822889  0.7750265559397  0.6862290109722 1.0
C      1  0.4603675064953  0.6309721212202  0.8528114249417 1.0
C      1  0.3025778639610  0.4429911353825  0.2264879090133 1.0
C      1  0.6362442153998  0.4529642741104  0.4664128976715 1.0
C      1  0.4884213825029  0.2325411664956  0.2694769996809 1.0
C      1  0.6519803554648  0.2460877569769  0.6260515914190 1.0
C      1  0.6568435607824  0.7886029095241  0.4130165188466 1.0
C      1  0.5179528097892  0.3751732476487  0.7656891749661 1.0
C      1  0.7685013142733  0.7085137270166  0.5386199645689 1.0
C      1  0.5073831220426  0.2933912634085  0.7196130587584 1.0
C      1  0.7306102027850  0.7574893751663  0.4632044410264 1.0
C      1  0.3609583077366  0.7050425288466  0.7585274684397 1.0
C      1  0.7288766222670  0.4352913846723  0.2821007372857 1.0
C      1  0.5102369900343  0.5779447998050  0.3474505662775 1.0
C      1  0.4934611501704  0.5453241449096  0.4390412212797 1.0
C      1  0.7688793230613  0.6395994745397  0.6041297922180 1.0
C      1  0.3485955589504  0.4615377001819  0.4610754677702 1.0
C      1  0.2504829668931  0.6801424064164  0.4421215663510 1.0
C      1  0.4115580780509  0.6543701415776  0.5524463920097 1.0
C      1  0.2409037826600  0.4558887768071  0.7028143815177 1.0
C      1  0.5433248467394  0.3487310871387  0.1541133161511 1.0
C      1  0.4124166295055  0.2819532135209  0.6959061412669 1.0
C      1  0.5060929364018  0.4155896979955  0.3592877220940 1.0
C      1  0.4847192729330  0.5385325706415  0.8623685609748 1.0
C      1  0.3952095486377  0.4496559384724  0.1869681814996 1.0
C      1  0.7074522950946  0.3804652021582  0.1994380009255 1.0
C      1  0.8070913911872  0.5779248227434  0.3262739750628 1.0
C      1  0.2581907657280  0.7092886400511  0.6064517925937 1.0
C      1  0.2706499920415  0.3086624855167  0.3438116129572 1.0
C      1  0.3576113098692  0.7873298311241  0.5042310719356 1.0
C      1  0.6967301957640  0.2472634042361  0.4420021592986 1.0
C      1  0.6313035340256  0.7261336800837  0.3396458917950 1.0
C      1  0.7134882907076  0.4048279732966  0.6458076702398 1.0
C      1  0.6389928253557  0.1767409009325  0.4747189573647 1.0
C      1  0.2764775607021  0.7371392550766  0.5148454640347 1.0
C      1  0.4210390388340  0.5038421706373  0.6062118127879 1.0
C      1  0.2060894369649  0.3402426181079  0.4086684387638 1.0
C      1  0.5385383634556  0.1690333341455  0.6151310257782 1.0
C      1  0.6337297517991  0.3654210027376  0.1633821694361 1.0
C      1  0.3725149912614  0.7429741456827  0.3447801004276 1.0
C      1  0.5140381313313  0.6946578513349  0.8082582682895 1.0
C      1  0.3492494664721  0.5776334739745  0.5821406377137 1.0
C      1  0.5797148004893  0.2436384205252  0.3322087981643 1.0
C      1  0.4738811345434  0.7811059445159  0.6634372864196 1.0
C      1  0.2592574403768  0.5250470330877  0.2522627235477 1.0
C      1  0.2808788038149  0.3785664856019  0.6723639571781 1.0
C      1  0.2717550119146  0.6170189946279  0.6406757283135 1.0
C      1  0.4819847989290  0.2920492446903  0.1997739151897 1.0
C      1  0.4903666171352  0.8243383088432  0.4245492321314 1.0
C      1  0.5932046271962  0.5312287681301  0.4779204961166 1.0
C      1  0.4489596877428  0.7426308561841  0.7461946468278 1.0
C      1  0.5942306993846  0.4338168154663  0.7822500367666 1.0
C      1  0.5728462907799  0.5136344146596  0.8363161327914 1.0
C      1  0.3856778557870  0.2277044880578  0.6224940571006 1.0
C      1  0.8055785131964  0.4800141963464  0.3346967281044 1.0
C      1  0.7981780473298  0.6937129884543  0.4510636005537 1.0
C      1  0.3686311085105  0.6352648593933  0.8237014214462 1.0
C      1  0.2858676817907  0.3690316397239  0.2760855549180 1.0
C      1  0.2977058301538  0.7017136872038  0.6874276345076 1.0
C      1  0.6326817489598  0.5844799180436  0.8345488500030 1.0
C      1  0.4439937793650  0.6033193794249  0.2786472093663 1.0
C      1  0.3445314890174  0.3864534395975  0.5207583121587 1.0
C      1  0.5645649687167  0.1778820137399  0.4084324528643 1.0
C      1  0.7626753091192  0.4872111175599  0.6310664114490 1.0
C      1  0.6773605432865  0.2751804560368  0.3516772165439 1.0
C      1  0.6852441980893  0.3751354026849  0.3562353083167 1.0
C      1  0.4298206553934  0.1826607638951  0.4873001955444 1.0
C      1  0.7281945158937  0.4023610990893  0.4484929042617 1.0
C      1  0.6878484381878  0.5217946550244  0.2528901548018 1.0
C      1  0.3316411548595  0.5462918219255  0.8266693766638 1.0
C      1  0.2727941423837  0.3449735624600  0.5731611449269 1.0
C      1  0.5000430939393  0.6679932330540  0.2207229578366 1.0
C      1  0.5307424724845  0.3195341401252  0.3868285013943 1.0
C      1  0.4254624055348  0.4333310798094  0.5321432504433 1.0
C      1  0.4517783180695  0.4818771993441  0.6938712315844 1.0
C      1  0.4197404791108  0.2043530312356  0.3325599943335 1.0
C      1  0.3176331842560  0.2546290498326  0.5587755082928 1.0
C      1  0.7352705150960  0.6044678657930  0.2711054199653 1.0
C      1  0.5096025570130  0.5367635359944  0.6496793652206 1.0
C      1  0.4624547918127  0.6254615273741  0.4857307670475 1.0
C      1  0.7214006965619  0.6283353878859  0.6885936315430 1.0
C      1  0.7254132464398  0.3174592541242  0.5021223864952 1.0
C      1  0.8257903665713  0.6132055140193  0.4146074901416 1.0
END
