TITL C-97547-8777-17 -5.61 3375.00 -969.63651795 0 0 120 (C1) n - 1
REM
REM Run started: at 2021.01.21 03:37:31 in /rds/project/t2_vol4/rds-t2-cs072/BORA/CARBON/AIRSS/Generating-Clusters/Str-Search/Only-C1/C100-200
REM VASP from code version vasp.5.4.4.18Apr17-6-g9f103f2a35 (build Oct 11 2019 16:45:47) gamma-only
REM
REM
REM
REM
REM ./C.cell (efaf0b2bf1589a83377268d7ebe2c73f)
REM AIRSS Version 0.9.1 bugfix July 2018 build 013d7b7c2542+ Fri, 06 Jul 2018 19:26:36 +0100
REM compiler GCC version 4.8.5 20150623 (Red Hat 4.8.5-39)
REM options -cpp -mtune=generic -march=x86-64 -g -O0
REM seed -230111883 919833923 -288878106 -1777977813 208593850 -1847735541 -1649250420 1547026745 -192819272 -302680216 381418375 504121802
REM
REM C.POTCAR (d86ddea03c3ceb6dc662c8ad6801f873)
REM 
CELL 1.54180   15.00000   15.00000   15.00000   90.00000   90.00000   90.00000
LATT -1
SFAC C  
C      1  0.7813224887357  0.2223896998690  0.5702517179284 1.0
C      1  0.8236846939483  0.4892205834865  0.4833904649460 1.0
C      1  0.5195772499847  0.3952918587630  0.7848667819925 1.0
C      1  0.5587646183479  0.2079902236222  0.3860426655235 1.0
C      1  0.4333722689156  0.7375097089200  0.6782715028838 1.0
C      1  0.6365899356029  0.4510709820786  0.2769254514997 1.0
C      1  0.8031348079923  0.5464099298755  0.4106034781206 1.0
C      1  0.6566955193324  0.2073967865274  0.3798713717813 1.0
C      1  0.2068233657208  0.4499058901182  0.5492280218564 1.0
C      1  0.3918857538884  0.4022800732145  0.3137838908584 1.0
C      1  0.7334571416618  0.6527568653268  0.5992756662358 1.0
C      1  0.3160667101565  0.4521677551165  0.2716744937679 1.0
C      1  0.7138723231938  0.6648538853242  0.3562439426652 1.0
C      1  0.6984677556192  0.5895525465679  0.2930704654389 1.0
C      1  0.3115925608591  0.5699071380370  0.5991804919056 1.0
C      1  0.5854272125681  0.7178132587559  0.7030439539970 1.0
C      1  0.2298933867948  0.3210461040692  0.6407942050307 1.0
C      1  0.3386965926517  0.5467699843482  0.2492293253062 1.0
C      1  0.2685481718833  0.6930963105043  0.3507078067137 1.0
C      1  0.5121811045004  0.5434100967326  0.2232560592493 1.0
C      1  0.3998846755290  0.6759493768788  0.2137637838208 1.0
C      1  0.5274670626796  0.4630627071199  0.5603188505707 1.0
C      1  0.7447427632100  0.3439445042519  0.3243577948657 1.0
C      1  0.6315403981408  0.5743113459221  0.6340863624963 1.0
C      1  0.1759014252939  0.4092983135579  0.3450455865213 1.0
C      1  0.4527079083531  0.3917130811947  0.5639036000893 1.0
C      1  0.5178164292510  0.3220371095228  0.5267659304672 1.0
C      1  0.5642112360913  0.8063780984776  0.5797882668735 1.0
C      1  0.5810326061023  0.2428369484565  0.6548851746322 1.0
C      1  0.4592831932443  0.3813732551450  0.2465540175848 1.0
C      1  0.4294140580843  0.5719857031280  0.4932820511114 1.0
C      1  0.2526747489119  0.6373901728168  0.5473477178475 1.0
C      1  0.6359511361891  0.6746678182951  0.6239825546651 1.0
C      1  0.3673370394506  0.3009394601270  0.4341538762351 1.0
C      1  0.2687370352364  0.6372125135410  0.4374405806243 1.0
C      1  0.6522330768458  0.3746908255872  0.7338432633021 1.0
C      1  0.3600169823046  0.5145509452906  0.7972778625439 1.0
C      1  0.5709420318310  0.1798015529749  0.4832893595748 1.0
C      1  0.6003913922994  0.7236002943220  0.5448056626242 1.0
C      1  0.3404410832806  0.7537330472490  0.6461631153418 1.0
C      1  0.6759219728085  0.7462501959107  0.4842697644702 1.0
C      1  0.1467218052465  0.4578132416370  0.4055477909394 1.0
C      1  0.7366209782931  0.4291050862378  0.7172833990270 1.0
C      1  0.5376900923787  0.2574263319360  0.7367408117492 1.0
C      1  0.5173393591595  0.3069202076130  0.2561968602957 1.0
C      1  0.5217834236186  0.8049702946827  0.2872770780050 1.0
C      1  0.3837426780914  0.5834204661162  0.3322619763141 1.0
C      1  0.7385202376220  0.5188345968552  0.7386687960578 1.0
C      1  0.7499423119427  0.6812787744402  0.5111927379425 1.0
C      1  0.6237038029800  0.5237949021725  0.4456539687700 1.0
C      1  0.4276407787619  0.3640347553738  0.7833670665405 1.0
C      1  0.4028317743668  0.7146479250111  0.5796762497375 1.0
C      1  0.4301320472488  0.1979716585204  0.5908332688492 1.0
C      1  0.6259296278163  0.5476374689859  0.2457224545792 1.0
C      1  0.4432859198656  0.8312633434761  0.4388964074216 1.0
C      1  0.6638472221593  0.1636144170193  0.4687747227078 1.0
C      1  0.2686804657542  0.8496344505471  0.4142218513126 1.0
C      1  0.4430643997735  0.3570658572470  0.4664411565542 1.0
C      1  0.3679631198909  0.4303863763947  0.7995119247840 1.0
C      1  0.2566342458887  0.3866566021942  0.3035617224505 1.0
C      1  0.4265670012834  0.4359715400122  0.4042700602455 1.0
C      1  0.2909173116001  0.6090972388006  0.6881135158383 1.0
C      1  0.4397732079970  0.2758265311099  0.7383870363501 1.0
C      1  0.3357014387380  0.3235273286307  0.3416709016482 1.0
C      1  0.1642894216923  0.5067815595681  0.4835375837360 1.0
C      1  0.4846402571280  0.5737619549948  0.3233515670191 1.0
C      1  0.5724827986104  0.3874912793715  0.2336103536958 1.0
C      1  0.5176789605138  0.6696806198128  0.3187866677989 1.0
C      1  0.4205005240329  0.5886108429112  0.1894979675707 1.0
C      1  0.5103676702033  0.8268474817537  0.3757551602027 1.0
C      1  0.7619337802561  0.5185986990496  0.3273448508375 1.0
C      1  0.7338294844665  0.1693740230072  0.5271608353547 1.0
C      1  0.3679476412252  0.2035729311906  0.4390617485302 1.0
C      1  0.5044753758945  0.4956117746050  0.3878402475705 1.0
C      1  0.5482950634269  0.5154881452908  0.6472920843822 1.0
C      1  0.4103992909601  0.6082366661909  0.5806799438518 1.0
C      1  0.6601962678761  0.7335247768968  0.3873482064022 1.0
C      1  0.6858565835554  0.5621226597090  0.8055080190289 1.0
C      1  0.5967152235533  0.3897914153632  0.5279165851751 1.0
C      1  0.7326961701019  0.4317783184977  0.3011660981950 1.0
C      1  0.4054632469936  0.7823367298825  0.5094048067418 1.0
C      1  0.4522248456721  0.6434710105378  0.7308225802050 1.0
C      1  0.3510113191187  0.5792292951728  0.4242582073004 1.0
C      1  0.1903608397772  0.5963265857788  0.4851521419478 1.0
C      1  0.5475934395302  0.6573537877808  0.7700395231336 1.0
C      1  0.3882447371308  0.1682830360076  0.5169225842781 1.0
C      1  0.5962540496372  0.4635134416682  0.3703652572292 1.0
C      1  0.5214573722986  0.5304807048703  0.4811292509703 1.0
C      1  0.5061665655172  0.4459892884040  0.1942627159645 1.0
C      1  0.7608877504019  0.4005348755562  0.6218515633850 1.0
C      1  0.5711052674271  0.7481225051025  0.3553524011058 1.0
C      1  0.2702625493024  0.6886831653291  0.6409052168686 1.0
C      1  0.3224466815451  0.3152924604927  0.6383951196386 1.0
C      1  0.6481226609966  0.8285281973199  0.5473399388218 1.0
C      1  0.3508682527724  0.8377170023714  0.4540886547256 1.0
C      1  0.5285683550983  0.2264516800753  0.5660757287121 1.0
C      1  0.3958550040265  0.2394863190018  0.3510180069493 1.0
C      1  0.5846106386522  0.3239634047549  0.7920323490568 1.0
C      1  0.7218469785017  0.5713092254269  0.6559380151667 1.0
C      1  0.3091401094959  0.4679914954077  0.5545661489325 1.0
C      1  0.3643476384620  0.4931916956055  0.4678760189682 1.0
C      1  0.7467812428861  0.3005760878063  0.6109695986567 1.0
C      1  0.7108997456924  0.2683848909344  0.3404580360800 1.0
C      1  0.6731514999045  0.3619673642230  0.5819776302570 1.0
C      1  0.3896540923720  0.2472733212113  0.6664315673088 1.0
C      1  0.2569194732203  0.7811199932071  0.3630892214400 1.0
C      1  0.6115257954807  0.6030197056818  0.8071356661843 1.0
C      1  0.6573571896142  0.3048959693523  0.6598960798144 1.0
C      1  0.4957301421690  0.2453355359427  0.3284231469242 1.0
C      1  0.1837689836707  0.3785049072099  0.5999383638727 1.0
C      1  0.7731437852784  0.6350542858936  0.4290253381238 1.0
C      1  0.3605529670360  0.3927232383886  0.5980365471455 1.0
C      1  0.8092368470962  0.4502571231442  0.5544545217132 1.0
C      1  0.4706788483114  0.5824980053330  0.6545625965217 1.0
C      1  0.5237196012216  0.7798574345053  0.6672103101984 1.0
C      1  0.6382550328628  0.4331402854015  0.4516021826725 1.0
C      1  0.3260662942674  0.6483801007768  0.2808581012387 1.0
C      1  0.4773391186126  0.7202198205417  0.2520951224470 1.0
C      1  0.5682807868212  0.4440997920158  0.7233564583546 1.0
C      1  0.3600608696558  0.5956969376308  0.7575163695107 1.0
END
