TITL C-97547-8777-3 -7.498 3375.00 -1301.33912158 0 0 159 (C1) n - 1
REM
REM Run started: at 2021.01.20 18:06:44 in /rds/project/t2_vol4/rds-t2-cs072/BORA/CARBON/AIRSS/Generating-Clusters/Str-Search/Only-C1/C100-200
REM VASP from code version vasp.5.4.4.18Apr17-6-g9f103f2a35 (build Oct 11 2019 16:45:47) gamma-only
REM
REM
REM
REM
REM ./C.cell (efaf0b2bf1589a83377268d7ebe2c73f)
REM AIRSS Version 0.9.1 bugfix July 2018 build 013d7b7c2542+ Fri, 06 Jul 2018 19:26:36 +0100
REM compiler GCC version 4.8.5 20150623 (Red Hat 4.8.5-39)
REM options -cpp -mtune=generic -march=x86-64 -g -O0
REM seed 573868971 78766258 -1359801219 -2004408179 -1015175598 -1891891458 1800456445 -472960672 -275627779 -683115401 -1484444277 -813581743
REM
REM C.POTCAR (d86ddea03c3ceb6dc662c8ad6801f873)
REM 
CELL 1.54180   15.00000   15.00000   15.00000   90.00000   90.00000   90.00000
LATT -1
SFAC C  
C      1  0.5139495101903  0.3976266108813  0.7014549627752 1.0
C      1  0.7071350348125  0.6210577450771  0.7953989073909 1.0
C      1  0.3906459928061  0.4288749358832  0.5169353102527 1.0
C      1  0.3929823808517  0.7327952143753  0.2522669756419 1.0
C      1  0.7538451256374  0.3189961286278  0.3284088598958 1.0
C      1  0.6609198400969  0.7723371707603  0.5361302761857 1.0
C      1  0.4859220338604  0.4668237330097  0.5263505587173 1.0
C      1  0.5447548245449  0.2188113602456  0.7088251148708 1.0
C      1  0.7318387942940  0.7158532942118  0.4881237136340 1.0
C      1  0.7100214208732  0.2551958231465  0.6002993033957 1.0
C      1  0.3333245872375  0.5846408847052  0.1966062372899 1.0
C      1  0.4523855217791  0.5293948579208  0.7848947752193 1.0
C      1  0.4739731598475  0.3919552568679  0.3001699281438 1.0
C      1  0.1768652370202  0.5834302408987  0.4015436316535 1.0
C      1  0.6890999646749  0.6252463430696  0.3522530112050 1.0
C      1  0.4013771512025  0.8214346763209  0.4609523318405 1.0
C      1  0.7607584571678  0.3336657965827  0.5789691977619 1.0
C      1  0.4442604817464  0.8817738861593  0.3849939375144 1.0
C      1  0.4492101832903  0.6746700760551  0.6168636755635 1.0
C      1  0.5785815308259  0.4714926936980  0.6889137175321 1.0
C      1  0.5795440211955  0.6310965373220  0.4830983263754 1.0
C      1  0.4855781428228  0.2173107128344  0.4377864598278 1.0
C      1  0.4973393914194  0.4640192764761  0.6280636220410 1.0
C      1  0.6614493604718  0.2984109628584  0.6775511411048 1.0
C      1  0.2193189229375  0.4221066108313  0.3211543419471 1.0
C      1  0.5685800081887  0.2498091818299  0.2447049533232 1.0
C      1  0.1819704430788  0.5545434014112  0.6984886518704 1.0
C      1  0.7131777712299  0.2150574479116  0.4480983352186 1.0
C      1  0.6372403760789  0.6975618094013  0.7641687853070 1.0
C      1  0.3049111602739  0.4542355299255  0.4627535453852 1.0
C      1  0.4011371203830  0.4066253454014  0.0952739280137 1.0
C      1  0.5415150915300  0.7111650031158  0.4433026934566 1.0
C      1  0.3415391578836  0.3591355586853  0.1290651405008 1.0
C      1  0.5441514390626  0.4287080667358  0.3648213972526 1.0
C      1  0.2788337095056  0.5505784189645  0.5763353152386 1.0
C      1  0.5551069811251  0.3130898087373  0.6632251845045 1.0
C      1  0.5099307758490  0.5579365398044  0.2685792608526 1.0
C      1  0.5044579938377  0.6434844227040  0.2181050335016 1.0
C      1  0.4222179285319  0.1832122823502  0.6391152366492 1.0
C      1  0.5408584271145  0.3238020127429  0.8866597781183 1.0
C      1  0.7798051088823  0.4985095269663  0.3374099457299 1.0
C      1  0.5145105983707  0.3057082865535  0.4902206806914 1.0
C      1  0.3332119399035  0.7669615778599  0.3280383851344 1.0
C      1  0.1228713933353  0.4299525834566  0.4869356202793 1.0
C      1  0.3043430634845  0.3349998622147  0.2111209812784 1.0
C      1  0.4989106042477  0.8574876894368  0.4533275828821 1.0
C      1  0.7032608502591  0.2650941561964  0.2685477208403 1.0
C      1  0.5935191912287  0.6676588192823  0.1664441088917 1.0
C      1  0.4879843075762  0.7291153751353  0.2816170823466 1.0
C      1  0.4018878062507  0.6553604225979  0.2000981869763 1.0
C      1  0.8592764463419  0.5699777776414  0.6112645740198 1.0
C      1  0.2026638772261  0.3396803854503  0.3713967065307 1.0
C      1  0.6245860893907  0.2968648744323  0.8397903582475 1.0
C      1  0.2942533456384  0.4497317520254  0.5617305785454 1.0
C      1  0.5458853822984  0.6579134543309  0.7708919992936 1.0
C      1  0.8192968903087  0.6766882866001  0.5164803192149 1.0
C      1  0.7312994749965  0.4155452428130  0.3054727809524 1.0
C      1  0.6398005230559  0.4209505555981  0.4550900686397 1.0
C      1  0.3923849860030  0.7502230795977  0.6182931120908 1.0
C      1  0.6653619081240  0.5063150633795  0.4859180165439 1.0
C      1  0.4011518738371  0.2009496722506  0.4178547424796 1.0
C      1  0.3233825922960  0.6454556431285  0.7748495539638 1.0
C      1  0.6396720104975  0.3869105690064  0.1652238636096 1.0
C      1  0.4090790742401  0.2716753390967  0.7829645154484 1.0
C      1  0.7641022673853  0.7095979153434  0.6590540064081 1.0
C      1  0.5016033496826  0.5689531955774  0.5154897972049 1.0
C      1  0.6375739490482  0.2045867471670  0.3039695753552 1.0
C      1  0.7016308623449  0.4424830595693  0.2089832943858 1.0
C      1  0.3011323634467  0.7448500810045  0.5659812809975 1.0
C      1  0.4861428348714  0.8689750538707  0.6731732212804 1.0
C      1  0.6509035021863  0.6009180309645  0.1575711777073 1.0
C      1  0.3562843578655  0.8298313343982  0.5505930290893 1.0
C      1  0.5513315776260  0.4828780532566  0.9455243792589 1.0
C      1  0.4583464660001  0.4751596441177  0.2319455864951 1.0
C      1  0.8627547980364  0.4985597202887  0.5679777237620 1.0
C      1  0.5010410353516  0.5393774049557  0.6906376312491 1.0
C      1  0.6953437475046  0.5380738702153  0.2068377240324 1.0
C      1  0.7099256027552  0.5409844516994  0.8355592708446 1.0
C      1  0.5925034135786  0.1510585138311  0.5379424540141 1.0
C      1  0.4290582293315  0.6144683220649  0.5459766239379 1.0
C      1  0.5581369029712  0.7919279582512  0.2467600420146 1.0
C      1  0.3073741638366  0.3004159674380  0.6544115639119 1.0
C      1  0.8358994801901  0.4518910824555  0.4895346624247 1.0
C      1  0.2054127742578  0.4975480095292  0.7534739760792 1.0
C      1  0.7327736765610  0.5651288171270  0.2914069491932 1.0
C      1  0.2454310615100  0.6998891565533  0.6383477251344 1.0
C      1  0.5165340137656  0.5937833600903  0.8323814653749 1.0
C      1  0.3389483544192  0.3204363323691  0.7383889315144 1.0
C      1  0.2426650989534  0.7179062014229  0.3301993364914 1.0
C      1  0.2116850845395  0.6878182728054  0.2459385372799 1.0
C      1  0.7969073752217  0.3577627112745  0.4935461914036 1.0
C      1  0.5652970236400  0.1579915600818  0.4490872727578 1.0
C      1  0.3480760272052  0.4109322963037  0.7664636760658 1.0
C      1  0.3045766629894  0.6882184359510  0.4770983167346 1.0
C      1  0.2594461999559  0.2614147837616  0.3503408519142 1.0
C      1  0.7104921829546  0.4565139162426  0.8501671052247 1.0
C      1  0.6754028796686  0.5266167506082  0.5784638011445 1.0
C      1  0.3373162567122  0.5980480633558  0.5093495433382 1.0
C      1  0.1708394082069  0.3517706781497  0.4605854157839 1.0
C      1  0.5962992444618  0.7643162225708  0.1764580357108 1.0
C      1  0.2213842224273  0.3053795455390  0.5281029327311 1.0
C      1  0.5650049047995  0.4172698074176  0.1186258731931 1.0
C      1  0.3122826113567  0.2172529786666  0.4252072427796 1.0
C      1  0.1339548098986  0.5064816186765  0.4367270914569 1.0
C      1  0.2862935566603  0.2320783634470  0.5187461760943 1.0
C      1  0.6683108644382  0.6111565320589  0.6149414667919 1.0
C      1  0.5706960783302  0.7919280059043  0.4746610711106 1.0
C      1  0.6666497472926  0.4590184722225  0.6469753356172 1.0
C      1  0.6439147278973  0.2968866672595  0.1987158785007 1.0
C      1  0.3563338612609  0.5618142001306  0.7863610814657 1.0
C      1  0.7123280350704  0.3810378630407  0.6511582126958 1.0
C      1  0.2865427673726  0.2623937140601  0.2625311424075 1.0
C      1  0.6408218393551  0.1821443516070  0.3925066609318 1.0
C      1  0.4069899397042  0.8402083111516  0.6355406312835 1.0
C      1  0.2539569213100  0.3614944889566  0.5973241119369 1.0
C      1  0.8307246827114  0.6613021060918  0.6071803019823 1.0
C      1  0.2255760725443  0.6706711572484  0.4098258486811 1.0
C      1  0.2781459372420  0.6968097676964  0.7246527072482 1.0
C      1  0.4593192884774  0.3325519596733  0.8388928001313 1.0
C      1  0.5256376305455  0.2818396961000  0.5752833179834 1.0
C      1  0.2962206215206  0.4844211123313  0.7787977204588 1.0
C      1  0.2517701775989  0.6248370042093  0.2064494964310 1.0
C      1  0.6436951296136  0.4052282317122  0.3635738549598 1.0
C      1  0.3105368439630  0.4160074900819  0.2768282127758 1.0
C      1  0.3602232021298  0.5033033678569  0.2541398248739 1.0
C      1  0.3310522351629  0.5391941450051  0.4291234647531 1.0
C      1  0.5831879018964  0.3974590437308  0.9310921499053 1.0
C      1  0.7675397481420  0.2926975372576  0.4221625593658 1.0
C      1  0.5395523907210  0.4013540040580  0.4659524734053 1.0
C      1  0.6517352490778  0.6706330637821  0.5415283231017 1.0
C      1  0.4622955590970  0.5889758377925  0.3542465097216 1.0
C      1  0.8262299972320  0.6203023500470  0.4366863525767 1.0
C      1  0.6835127171443  0.1928786422401  0.5379953338883 1.0
C      1  0.5046354144004  0.6369731971951  0.6822656965053 1.0
C      1  0.4489703537998  0.2045212417743  0.7282268687742 1.0
C      1  0.8227502147998  0.5199462855678  0.4204091058054 1.0
C      1  0.5595974276164  0.8370020707120  0.6987769090150 1.0
C      1  0.6372573366496  0.7883144287542  0.7087383804075 1.0
C      1  0.5051414353480  0.3065781743729  0.2655079589783 1.0
C      1  0.6657990817648  0.3822622133593  0.8767415379899 1.0
C      1  0.6231925306053  0.5748939800578  0.4124289768250 1.0
C      1  0.3640455783477  0.3850672851710  0.4339565071047 1.0
C      1  0.5251279065847  0.1852691211393  0.6068608002861 1.0
C      1  0.4456695021733  0.4219236310600  0.7853584100526 1.0
C      1  0.6972780949091  0.7790772163807  0.6340590281600 1.0
C      1  0.3567747120170  0.8684798885531  0.3608804931018 1.0
C      1  0.3758131926825  0.5448822907813  0.3498512836467 1.0
C      1  0.6285957869040  0.2512378268954  0.7601258164607 1.0
C      1  0.2199395736714  0.6014961410477  0.6252553107762 1.0
C      1  0.3843159368903  0.3892507284384  0.3458603551343 1.0
C      1  0.7018688388750  0.6448057071340  0.7024607566166 1.0
C      1  0.4703780756592  0.6906014079260  0.3784248722646 1.0
C      1  0.4806879131259  0.4410380714673  0.1367852617001 1.0
C      1  0.1803343043808  0.5007719509205  0.3518491872682 1.0
C      1  0.7500182986869  0.6698543294121  0.4025394840957 1.0
C      1  0.3391924285750  0.2250159911197  0.6010256969047 1.0
C      1  0.3786496676779  0.7326909374676  0.4147612180385 1.0
C      1  0.5485834647034  0.5318921329827  0.3578247126302 1.0
C      1  0.5446614350504  0.5603607850007  0.9151819930955 1.0
END
