TITL C-99672-2375-6 -9.189 3375.00 -1595.95281741 0 0 196 (C1) n - 1
REM
REM Run started: at 2021.01.17 15:22:29 in /rds/project/t2_vol4/rds-t2-cs072/BORA/CARBON/AIRSS/Generating-Clusters/Str-Search/Only-C1/C100-200
REM VASP from code version vasp.5.4.4.18Apr17-6-g9f103f2a35 (build Oct 11 2019 16:45:47) gamma-only
REM
REM
REM
REM
REM ./C.cell (efaf0b2bf1589a83377268d7ebe2c73f)
REM AIRSS Version 0.9.1 bugfix July 2018 build 013d7b7c2542+ Fri, 06 Jul 2018 19:26:36 +0100
REM compiler GCC version 4.8.5 20150623 (Red Hat 4.8.5-39)
REM options -cpp -mtune=generic -march=x86-64 -g -O0
REM seed 1924318087 -1284946693 -844368562 -2074370253 -1442306831 882073006 659890936 2023751809 -953618502 914255062 -785567516 1806914726
REM
REM C.POTCAR (d86ddea03c3ceb6dc662c8ad6801f873)
REM 
CELL 1.54180   15.00000   15.00000   15.00000   90.00000   90.00000   90.00000
LATT -1
SFAC C  
C      1  0.2906297230286  0.2048559010341  0.3117906449879 1.0
C      1  0.1768802989683  0.7271629262630  0.5894289758966 1.0
C      1  0.4473387048430  0.1670598171338  0.6658519532231 1.0
C      1  0.6163970483301  0.6203741506675  0.6472459657656 1.0
C      1  0.8635993127225  0.4747326376206  0.6806178356181 1.0
C      1  0.4042173991140  0.7811059873136  0.6346421630771 1.0
C      1  0.7191729311664  0.6958333180359  0.3841677929574 1.0
C      1  0.5850289392576  0.5831931666214  0.4824458920638 1.0
C      1  0.8430791817537  0.4953132710746  0.2298016966035 1.0
C      1  0.4339357651602  0.2871530442914  0.1343188379200 1.0
C      1  0.3124156768966  0.7758142404069  0.6791533249757 1.0
C      1  0.5202786759852  0.6568584469115  0.6649796850277 1.0
C      1  0.7503901132516  0.5197014149146  0.4224399839097 1.0
C      1  0.3151428625435  0.3386369871936  0.5756047118881 1.0
C      1  0.6464394180676  0.6435413386982  0.4324696532247 1.0
C      1  0.7100870792797  0.1485096250712  0.6379941682422 1.0
C      1  0.4213139878235  0.7805456280161  0.4562848854243 1.0
C      1  0.4846886325853  0.7986969477720  0.3889895941393 1.0
C      1  0.4185807302874  0.5954649484088  0.2992080574038 1.0
C      1  0.2619857640731  0.5903232582074  0.5623783723298 1.0
C      1  0.5718089321353  0.5582575321469  0.5770269619298 1.0
C      1  0.5462910813734  0.1601849626752  0.5504072524761 1.0
C      1  0.4157166009845  0.3861250799719  0.4153142754185 1.0
C      1  0.5249924975050  0.5504449824286  0.2830088171278 1.0
C      1  0.4770578936646  0.8777237582639  0.3276998429295 1.0
C      1  0.8703977470845  0.4135048975769  0.6081903137287 1.0
C      1  0.1133488515684  0.5658611281551  0.4277407516740 1.0
C      1  0.7058436664679  0.4930554162486  0.6276197346729 1.0
C      1  0.5462889519974  0.7796565025873  0.7510193333285 1.0
C      1  0.8046310301627  0.7936126368040  0.3078556343597 1.0
C      1  0.7451530809839  0.5912742268601  0.7684498301153 1.0
C      1  0.6178016976876  0.4590686573194  0.3783127392407 1.0
C      1  0.4787321301157  0.4433786881136  0.8204066199094 1.0
C      1  0.8103005558630  0.3365794663850  0.6239694136928 1.0
C      1  0.6172083396997  0.3152530773408  0.7723142492571 1.0
C      1  0.1262096691460  0.4208272405142  0.6357160330864 1.0
C      1  0.5309083037839  0.8916081527018  0.3964331004166 1.0
C      1  0.6344741449886  0.8000206405682  0.4713867782717 1.0
C      1  0.8772992742736  0.5592606986473  0.5468374473682 1.0
C      1  0.6548494647099  0.5393755403685  0.4238944407465 1.0
C      1  0.4513384517501  0.5858667897552  0.8645406437465 1.0
C      1  0.4807368884464  0.5876975522517  0.6089710222660 1.0
C      1  0.6974259725153  0.1956512075276  0.7201447506141 1.0
C      1  0.2360581910450  0.7717926071459  0.6254219719472 1.0
C      1  0.2126452427915  0.1793978692250  0.4477216111643 1.0
C      1  0.6273552085499  0.7336359291493  0.3904476722343 1.0
C      1  0.5842209514007  0.3018970002022  0.3647257588529 1.0
C      1  0.7240088479873  0.3937561829014  0.6349414217676 1.0
C      1  0.4716817653395  0.3451031577843  0.7889068883731 1.0
C      1  0.3022394953968  0.4826040480173  0.8158375566817 1.0
C      1  0.1714866740174  0.3959610339948  0.7170913135058 1.0
C      1  0.2365943612721  0.5083015026675  0.5140579853029 1.0
C      1  0.3604842562696  0.2091308146172  0.2447484482582 1.0
C      1  0.8009593834629  0.2603257777936  0.5617507930339 1.0
C      1  0.3968488834009  0.2019480833907  0.7392205741837 1.0
C      1  0.8913598637570  0.6148264663829  0.4662428263710 1.0
C      1  0.2539658304911  0.7744978733827  0.4302262578023 1.0
C      1  0.2082675528369  0.3082394282462  0.6992700207170 1.0
C      1  0.4252907942549  0.4376714322580  0.6638470748490 1.0
C      1  0.3811959015043  0.6278122717211  0.2115662499710 1.0
C      1  0.3001705123607  0.7634409590135  0.2332497096999 1.0
C      1  0.5494128445052  0.3606934645696  0.2861208277681 1.0
C      1  0.4972250152977  0.6327413013173  0.3435348759421 1.0
C      1  0.7384278291941  0.3611184957419  0.4469658086929 1.0
C      1  0.6088028947134  0.1417864128643  0.3217355398989 1.0
C      1  0.2994804888740  0.4236072552508  0.5114976285434 1.0
C      1  0.7489542765183  0.5134037217506  0.1958003166400 1.0
C      1  0.4325535726927  0.2986151443541  0.4584424253648 1.0
C      1  0.1412517236970  0.3410950681433  0.4654501120207 1.0
C      1  0.1205985217989  0.3936563649561  0.3861858177610 1.0
C      1  0.3350096331233  0.7799063656932  0.4728803762269 1.0
C      1  0.4967293817159  0.3604181709001  0.1276841895626 1.0
C      1  0.1079168170274  0.5107183885733  0.6158151340261 1.0
C      1  0.2401465022424  0.4283882476931  0.2589901983204 1.0
C      1  0.8893982876700  0.4235157974162  0.1977639709681 1.0
C      1  0.4617824328533  0.5272729384929  0.1147705462497 1.0
C      1  0.2180057503719  0.6909140442519  0.7865138135470 1.0
C      1  0.3985540445215  0.3070127820923  0.7352390381031 1.0
C      1  0.6277211727561  0.3817194822059  0.6091027769690 1.0
C      1  0.7806438049538  0.5599167563445  0.3471350974240 1.0
C      1  0.3386607259989  0.1234189675709  0.5435140601217 1.0
C      1  0.7468013093147  0.7297700555682  0.5936081667648 1.0
C      1  0.6834793274915  0.1650159788586  0.3868824770653 1.0
C      1  0.2374325372472  0.5259027023127  0.2533388572744 1.0
C      1  0.5146618588877  0.2493171006285  0.4268583876199 1.0
C      1  0.2922672929564  0.6717050905208  0.2446303912861 1.0
C      1  0.3739449698427  0.3617490797042  0.6562567635792 1.0
C      1  0.2832197166904  0.1212102936759  0.4737842965274 1.0
C      1  0.5358646053484  0.7275864653171  0.3342702064360 1.0
C      1  0.6331251982602  0.8405523375445  0.6161837805624 1.0
C      1  0.6740989720220  0.5539370181413  0.7013962669411 1.0
C      1  0.7060768891237  0.2813709929962  0.7535426958200 1.0
C      1  0.3816258082659  0.4668018647486  0.4701880285970 1.0
C      1  0.2953109380197  0.7504519599058  0.7663569285077 1.0
C      1  0.1734035457208  0.3638957274038  0.3063666460884 1.0
C      1  0.3319464627567  0.2444138543096  0.7789991487482 1.0
C      1  0.1997930139300  0.6222120573944  0.3902026639916 1.0
C      1  0.7783514209405  0.7167681324592  0.6857219899290 1.0
C      1  0.6425356884450  0.2281885056445  0.3310447979082 1.0
C      1  0.4919439926415  0.9226241906476  0.5956054199144 1.0
C      1  0.4092860102027  0.6302461121716  0.5494825906175 1.0
C      1  0.4081032916712  0.5273151880103  0.6407120968038 1.0
C      1  0.5026330700394  0.7504595704112  0.2352192546632 1.0
C      1  0.5004167884061  0.4180992417921  0.7243906720860 1.0
C      1  0.3446156836180  0.5871747896203  0.6097135370893 1.0
C      1  0.1360950660683  0.5490876433470  0.5254539328826 1.0
C      1  0.0248881771491  0.5464150781731  0.3829694718211 1.0
C      1  0.2888848002108  0.4868216286180  0.1891078289151 1.0
C      1  0.5091071222587  0.1321387971103  0.3150776208225 1.0
C      1  0.6729341792759  0.4503244875971  0.2010657382585 1.0
C      1  0.5369358590347  0.1501661171416  0.6477246494308 1.0
C      1  0.4008912529734  0.5669112134231  0.4677679854960 1.0
C      1  0.6663588937241  0.6853384274564  0.5931392039944 1.0
C      1  0.2758885502232  0.5851580803518  0.4599123753210 1.0
C      1  0.6279767278325  0.4260862939382  0.2796714906787 1.0
C      1  0.1979688998949  0.7176545831418  0.4105548513142 1.0
C      1  0.7359896869206  0.6358272998296  0.3097523646519 1.0
C      1  0.6346604958570  0.3682742829694  0.4317658308035 1.0
C      1  0.4400946733132  0.6808718201898  0.8472905029766 1.0
C      1  0.3909158053723  0.1842737195717  0.5816482005231 1.0
C      1  0.7082686700497  0.8131582524213  0.5510520568315 1.0
C      1  0.4517330496749  0.8307300308903  0.2441949470283 1.0
C      1  0.3514698053440  0.7060027787570  0.8336358035438 1.0
C      1  0.7899048766026  0.4415301339070  0.4653074891718 1.0
C      1  0.1915401818935  0.2663398490304  0.4284810511581 1.0
C      1  0.5990858648888  0.6568392273540  0.8449926607375 1.0
C      1  0.7695443644405  0.2760726132405  0.4724297567873 1.0
C      1  0.2760321003708  0.6473434204724  0.8487475871379 1.0
C      1  0.6261066496794  0.4776304276736  0.5856970099925 1.0
C      1  0.7049820726399  0.7442032280480  0.7484410642898 1.0
C      1  0.4663809553573  0.4205322660202  0.3305348520029 1.0
C      1  0.5175069725926  0.4506785996893  0.1131765347210 1.0
C      1  0.5686647628305  0.4898783658967  0.8359605181380 1.0
C      1  0.3831586573978  0.2734417033049  0.5324650314113 1.0
C      1  0.2736255467713  0.3799394674786  0.3368808665935 1.0
C      1  0.6156604610449  0.5751345526489  0.1332258631652 1.0
C      1  0.5301929324183  0.7209254325797  0.8267210901834 1.0
C      1  0.4019353148828  0.5032487016139  0.8409865297084 1.0
C      1  0.4847610335774  0.7394649173688  0.6831176999881 1.0
C      1  0.4560133423365  0.1769496812719  0.2516111291855 1.0
C      1  0.7443393662121  0.4924082965008  0.7944754200958 1.0
C      1  0.8105580289568  0.7432739547793  0.3914511821285 1.0
C      1  0.5491810136859  0.5739397195820  0.8647712051686 1.0
C      1  0.5895888802815  0.8911005045793  0.4716024964623 1.0
C      1  0.6019187008480  0.3303713465486  0.5281164116455 1.0
C      1  0.5250462891591  0.4918074182537  0.3669896008319 1.0
C      1  0.2319422519781  0.2862145765796  0.3373141608263 1.0
C      1  0.4329822622898  0.5006267209062  0.2683690502722 1.0
C      1  0.8689540378614  0.5419883654015  0.3136561776893 1.0
C      1  0.2214889181344  0.3028790236716  0.6051531394499 1.0
C      1  0.4312260080361  0.8746728146092  0.6228790439866 1.0
C      1  0.4687274554141  0.6751664966839  0.1774158675819 1.0
C      1  0.3619205710327  0.8186412349112  0.2212524035168 1.0
C      1  0.5188959229772  0.6065694117916  0.1347463070657 1.0
C      1  0.0853786820136  0.4814269788425  0.3821095030320 1.0
C      1  0.3188529663617  0.4096951818884  0.4154021995957 1.0
C      1  0.3977874708998  0.7320805426565  0.5394020480724 1.0
C      1  0.2578515367580  0.3023436271905  0.7794016883843 1.0
C      1  0.4976973924926  0.5722134891449  0.4248427862177 1.0
C      1  0.1828417326977  0.6036497364126  0.7521964056740 1.0
C      1  0.1717186614282  0.6301937373374  0.5855185641330 1.0
C      1  0.7559526144550  0.1744516306518  0.5608847307102 1.0
C      1  0.6862754483086  0.6685608526902  0.8058947253590 1.0
C      1  0.5977501003224  0.3963870726932  0.7133782326012 1.0
C      1  0.7381577795315  0.6705198551909  0.2233978979245 1.0
C      1  0.8682684860358  0.7000370797550  0.4444434828266 1.0
C      1  0.5787516523070  0.9119575182742  0.5627033986479 1.0
C      1  0.3819788444302  0.5271774358181  0.1763800293230 1.0
C      1  0.9371836549164  0.3581333430476  0.1697889032894 1.0
C      1  0.7763110032082  0.7588975779545  0.2357948936309 1.0
C      1  0.2489682348303  0.5611645540477  0.8135888887486 1.0
C      1  0.4987975656506  0.2268942926072  0.1827084168431 1.0
C      1  0.6260446614913  0.1438069004215  0.6830801754694 1.0
C      1  0.6121671720850  0.7600739227020  0.5578830658932 1.0
C      1  0.1486237354069  0.3536432446003  0.5639670416767 1.0
C      1  0.7699877902448  0.3483690779319  0.7158562682437 1.0
C      1  0.3503095256897  0.2687953688012  0.1715522600393 1.0
C      1  0.5250486205850  0.0984227541525  0.4843217577589 1.0
C      1  0.5391356802028  0.3109533315566  0.1992991146168 1.0
C      1  0.5033643070124  0.1485208225327  0.4087045117098 1.0
C      1  0.8619116807308  0.4630268922615  0.5264710645269 1.0
C      1  0.1424615606688  0.5824046624123  0.6682683914488 1.0
C      1  0.7327277030438  0.1856576828090  0.4623803041650 1.0
C      1  0.8135943678437  0.6311961242647  0.7041341823760 1.0
C      1  0.6074085601757  0.4803493733666  0.1323187356090 1.0
C      1  0.6323161573160  0.8026348222383  0.7163206783035 1.0
C      1  0.2468702825612  0.4044863084329  0.7845428885308 1.0
C      1  0.2764351483672  0.1458798604674  0.3819074428463 1.0
C      1  0.2372926473762  0.6103539174742  0.2947786381039 1.0
C      1  0.6425581644093  0.4764397899139  0.7682921447937 1.0
C      1  0.5438279764441  0.2849447972751  0.8152404199233 1.0
C      1  0.8062874602511  0.4376169594566  0.7518285079298 1.0
C      1  0.5647888256843  0.2487945841187  0.5139098878368 1.0
C      1  0.9305687086902  0.5637506529555  0.3802110500296 1.0
C      1  0.8585179747224  0.5671310080671  0.6443322416622 1.0
C      1  0.7068343500284  0.5957143195279  0.1675606403634 1.0
END
