TITL C-3578201-9217-123 -5.25913608046131e-07 125000 -180.784232164424 0 0 30 (C1) n - 1
REM
REM in /home/bkarasulu/work/CARBON/AIRSS/Generating-Clusters/EDIP-Nigel-Params/with-SteepDescent/Higher-Symm/SD-CG/HFTN-CG
REM
REM
REM
REM
REM
REM ./C.cell (12c818d87b63d06a65506943cc24bca4)
REM
REM compiler GCC version 9.2.1 20190827 (Red Hat 9.2.1-1)
REM options -cpp -mtune=generic -march=x86-64 -g -O0 -fpre-include=/usr/include/finclude/math-vector-fortran.h
REM seed -1190857289 319995698 -123249687 -2071192801 -611789284 938799938 205732092 1335041413 1348170120 -1939962041 1042791310 1586254844 1438438589 222326963 395320422 24801338 -704296396 -87252369 1756338095 -566671474 -469262774 -994895065 -1941828782 936826299 -442129783 -291593436 -1223901826 -287101798 1345760588 -567959077 1420386367 896064693 -578631738
REM
CELL 1.54180   50.00000   50.00000   50.00000   90.00000   90.00000   90.00000
LATT -1
SFAC C  
C      1  0.5270000000000  0.5168340000000  0.5428510000000 1.0
C      1  0.5268560000000  0.4715890000000  0.5367090000000 1.0
C      1  0.5342200000000  0.4612070000000  0.4940620000000 1.0
C      1  0.5276950000000  0.4817370000000  0.4552450000000 1.0
C      1  0.5457680000000  0.5261030000000  0.4703610000000 1.0
C      1  0.5359500000000  0.5528210000000  0.5119900000000 1.0
C      1  0.5411250000000  0.5059390000000  0.4533490000000 1.0
C      1  0.5437090000000  0.4615240000000  0.4675450000000 1.0
C      1  0.5446720000000  0.4571950000000  0.5198770000000 1.0
C      1  0.5378250000000  0.4926120000000  0.5515590000000 1.0
C      1  0.5434910000000  0.5366600000000  0.5329890000000 1.0
C      1  0.5400730000000  0.5489330000000  0.4843950000000 1.0
C      1  0.4683340000000  0.5248020000000  0.4735130000000 1.0
C      1  0.4661310000000  0.5426410000000  0.5175610000000 1.0
C      1  0.4635230000000  0.5090460000000  0.5509020000000 1.0
C      1  0.4762740000000  0.4690510000000  0.5294440000000 1.0
C      1  0.4642580000000  0.4580840000000  0.4806680000000 1.0
C      1  0.4596620000000  0.4901860000000  0.4469320000000 1.0
C      1  0.4790510000000  0.5255240000000  0.5350890000000 1.0
C      1  0.4608010000000  0.5447490000000  0.4913110000000 1.0
C      1  0.4521140000000  0.5154270000000  0.4528160000000 1.0
C      1  0.4763900000000  0.4721990000000  0.4599080000000 1.0
C      1  0.4631270000000  0.4580970000000  0.5075520000000 1.0
C      1  0.4614690000000  0.4824450000000  0.5486080000000 1.0
C      1  0.5116430000000  0.5262740000000  0.4976930000000 1.0
C      1  0.5024950000000  0.4815810000000  0.5221010000000 1.0
C      1  0.4954760000000  0.5150190000000  0.4755040000000 1.0
C      1  0.5040960000000  0.5129150000000  0.5245820000000 1.0
C      1  0.5013110000000  0.4858780000000  0.4698490000000 1.0
C      1  0.5088190000000  0.4729270000000  0.4950360000000 1.0
END
