TITL C-3578206-1180-539 1.9308995334839e-06 125000 -452.904619361824 0 0 75 (C1) n - 1
REM
REM in /home/bkarasulu/work/CARBON/AIRSS/Generating-Clusters/EDIP-Nigel-Params/with-SteepDescent/Higher-Symm/SD-CG/HFTN-CG
REM
REM
REM
REM
REM
REM ./C.cell (12c818d87b63d06a65506943cc24bca4)
REM
REM compiler GCC version 9.2.1 20190827 (Red Hat 9.2.1-1)
REM options -cpp -mtune=generic -march=x86-64 -g -O0 -fpre-include=/usr/include/finclude/math-vector-fortran.h
REM seed -1101948646 1641777148 -1359705337 2083192525 -1700503301 2042718739 965053795 -1732530533 -1700617483 -1316640053 1054767380 7028541 1339320432 939524155 1528787036 252161984 1778359961 -1334754684 -1601239297 -1363112757 1412056176 855569271 1237911335 774472879 2049028869 194612608 -137067281 -1908977533 -2080874240 -652659878 -1300087296 564679824 772785523
REM
CELL 1.54180   50.00000   50.00000   50.00000   90.00000   90.00000   90.00000
LATT -1
SFAC C  
C      1  0.5501000000000  0.4938770000000  0.5442990000000 1.0
C      1  0.5117200000000  0.4917600000000  0.4326780000000 1.0
C      1  0.4328340000000  0.4975720000000  0.5300610000000 1.0
C      1  0.5536820000000  0.5080480000000  0.4551480000000 1.0
C      1  0.5042340000000  0.5044900000000  0.5661490000000 1.0
C      1  0.4368420000000  0.5015860000000  0.4787240000000 1.0
C      1  0.4929260000000  0.5569750000000  0.4778930000000 1.0
C      1  0.4880510000000  0.5686850000000  0.5277340000000 1.0
C      1  0.5231590000000  0.5616350000000  0.5019960000000 1.0
C      1  0.4921140000000  0.4434560000000  0.5189710000000 1.0
C      1  0.4863480000000  0.4346670000000  0.4781040000000 1.0
C      1  0.5243120000000  0.4421680000000  0.4933920000000 1.0
C      1  0.5245270000000  0.4935680000000  0.4845530000000 1.0
C      1  0.4753190000000  0.4846950000000  0.4904600000000 1.0
C      1  0.4927220000000  0.4969640000000  0.5236840000000 1.0
C      1  0.5214120000000  0.5121010000000  0.5172680000000 1.0
C      1  0.4782480000000  0.5237390000000  0.5144840000000 1.0
C      1  0.4974440000000  0.5043260000000  0.4724800000000 1.0
C      1  0.5501400000000  0.5331080000000  0.4724740000000 1.0
C      1  0.4512310000000  0.5267450000000  0.4716100000000 1.0
C      1  0.4943130000000  0.5320480000000  0.5607620000000 1.0
C      1  0.5470230000000  0.4695650000000  0.5254450000000 1.0
C      1  0.4478090000000  0.4722440000000  0.5355570000000 1.0
C      1  0.4992560000000  0.4654060000000  0.4420390000000 1.0
C      1  0.4721980000000  0.5434170000000  0.5760310000000 1.0
C      1  0.5743270000000  0.5370160000000  0.4883200000000 1.0
C      1  0.4506490000000  0.5306600000000  0.4436560000000 1.0
C      1  0.4741200000000  0.4613750000000  0.4278110000000 1.0
C      1  0.5728620000000  0.4661480000000  0.5122500000000 1.0
C      1  0.4443420000000  0.4601890000000  0.5618450000000 1.0
C      1  0.4980280000000  0.4196840000000  0.4559410000000 1.0
C      1  0.4739600000000  0.4213700000000  0.5178090000000 1.0
C      1  0.5396880000000  0.4251640000000  0.5120370000000 1.0
C      1  0.4996310000000  0.5889460000000  0.5434400000000 1.0
C      1  0.4734380000000  0.5779490000000  0.4798090000000 1.0
C      1  0.5388580000000  0.5776400000000  0.4829710000000 1.0
C      1  0.4983420000000  0.5404280000000  0.5311870000000 1.0
C      1  0.5254950000000  0.5316840000000  0.4923990000000 1.0
C      1  0.4799920000000  0.5285930000000  0.4838370000000 1.0
C      1  0.4933080000000  0.4650620000000  0.4731610000000 1.0
C      1  0.5232580000000  0.4712020000000  0.5049750000000 1.0
C      1  0.4755650000000  0.4704900000000  0.5197820000000 1.0
C      1  0.5526550000000  0.5431750000000  0.5391790000000 1.0
C      1  0.5046330000000  0.5396680000000  0.4321890000000 1.0
C      1  0.4459160000000  0.5438970000000  0.5215770000000 1.0
C      1  0.5573740000000  0.4598380000000  0.4592230000000 1.0
C      1  0.5028310000000  0.4574990000000  0.5643900000000 1.0
C      1  0.4400900000000  0.4519590000000  0.4716240000000 1.0
C      1  0.4883860000000  0.4809350000000  0.5645590000000 1.0
C      1  0.5645410000000  0.4850950000000  0.4683380000000 1.0
C      1  0.4426160000000  0.4779500000000  0.4622350000000 1.0
C      1  0.4942760000000  0.5140820000000  0.4298470000000 1.0
C      1  0.5620980000000  0.5178610000000  0.5323920000000 1.0
C      1  0.4432070000000  0.5226530000000  0.5407330000000 1.0
C      1  0.5369380000000  0.4416470000000  0.4650230000000 1.0
C      1  0.4564470000000  0.4304640000000  0.4784400000000 1.0
C      1  0.5099320000000  0.4407240000000  0.5434860000000 1.0
C      1  0.5359940000000  0.5634590000000  0.5297010000000 1.0
C      1  0.4594920000000  0.5694950000000  0.5209780000000 1.0
C      1  0.5103760000000  0.5577620000000  0.4526390000000 1.0
C      1  0.5390340000000  0.5598680000000  0.4606880000000 1.0
C      1  0.4546090000000  0.5849960000000  0.4980210000000 1.0
C      1  0.5255100000000  0.5823720000000  0.5471940000000 1.0
C      1  0.5383800000000  0.4415730000000  0.5354140000000 1.0
C      1  0.4518440000000  0.4172540000000  0.5026010000000 1.0
C      1  0.5155520000000  0.4390020000000  0.4448420000000 1.0
C      1  0.4610040000000  0.4797070000000  0.5714670000000 1.0
C      1  0.5740300000000  0.4882670000000  0.4951930000000 1.0
C      1  0.4581270000000  0.4820940000000  0.4382980000000 1.0
C      1  0.4662270000000  0.5096070000000  0.4335630000000 1.0
C      1  0.5733480000000  0.5150390000000  0.5059700000000 1.0
C      1  0.4566830000000  0.5233220000000  0.5658250000000 1.0
C      1  0.5380650000000  0.4999810000000  0.4338210000000 1.0
C      1  0.4247830000000  0.4998060000000  0.5037690000000 1.0
C      1  0.5311790000000  0.4994630000000  0.5635500000000 1.0
END
