TITL C-3578200-9634-431 -1.11374169200348e-06 125000 -983.055979812361 0 0 156 (C1) n - 1
REM
REM in /home/bkarasulu/work/CARBON/AIRSS/Generating-Clusters/EDIP-Nigel-Params/with-SteepDescent/Higher-Symm/SD-CG/HFTN-CG
REM
REM
REM
REM
REM
REM ./C.cell (12c818d87b63d06a65506943cc24bca4)
REM
REM compiler GCC version 9.2.1 20190827 (Red Hat 9.2.1-1)
REM options -cpp -mtune=generic -march=x86-64 -g -O0 -fpre-include=/usr/include/finclude/math-vector-fortran.h
REM seed -1922379930 -1201296687 959864491 879567258 473459008 -873779992 -479999061 -339190034 -1996765485 2043066788 747429007 -1153161891 296628926 1648000059 2073872117 -1479036813 997567078 -1015819376 -2063632588 -504576361 -1283461501 -980528579 -1202441431 -1639885032 -77739143 -1243543899 -494727502 -1633595257 1777552090 -1203933688 1885998992 -2079683229 -1281388443
REM
CELL 1.54180   50.00000   50.00000   50.00000   90.00000   90.00000   90.00000
LATT -1
SFAC C  
C      1  0.5589970000000  0.5996680000000  0.5010610000000 1.0
C      1  0.5583060000000  0.4002040000000  0.5035900000000 1.0
C      1  0.4798720000000  0.4744940000000  0.4562410000000 1.0
C      1  0.4824690000000  0.5247170000000  0.4559980000000 1.0
C      1  0.3969290000000  0.5136670000000  0.5069860000000 1.0
C      1  0.3953320000000  0.4824740000000  0.5051130000000 1.0
C      1  0.5991050000000  0.4896930000000  0.5432580000000 1.0
C      1  0.6010810000000  0.5184630000000  0.5449170000000 1.0
C      1  0.5591980000000  0.4329690000000  0.4675810000000 1.0
C      1  0.5571800000000  0.5660190000000  0.4662580000000 1.0
C      1  0.5094070000000  0.4405120000000  0.4087450000000 1.0
C      1  0.5062430000000  0.5604220000000  0.4080150000000 1.0
C      1  0.5388280000000  0.5523950000000  0.4441570000000 1.0
C      1  0.5416670000000  0.4484640000000  0.4461480000000 1.0
C      1  0.4282090000000  0.5430530000000  0.4876990000000 1.0
C      1  0.4233240000000  0.4542290000000  0.4798620000000 1.0
C      1  0.5887470000000  0.4698780000000  0.4644310000000 1.0
C      1  0.5868830000000  0.5292300000000  0.4620090000000 1.0
C      1  0.3952160000000  0.5155630000000  0.4760410000000 1.0
C      1  0.3932270000000  0.4859730000000  0.4727520000000 1.0
C      1  0.4531830000000  0.5521150000000  0.5583330000000 1.0
C      1  0.4431930000000  0.4439530000000  0.5497750000000 1.0
C      1  0.4274600000000  0.5156960000000  0.4192830000000 1.0
C      1  0.4281500000000  0.4867580000000  0.4157910000000 1.0
C      1  0.5677360000000  0.4844340000000  0.4484880000000 1.0
C      1  0.5645530000000  0.5137340000000  0.4486310000000 1.0
C      1  0.5137970000000  0.3931790000000  0.5204020000000 1.0
C      1  0.5144350000000  0.6071110000000  0.5192860000000 1.0
C      1  0.4536750000000  0.5707040000000  0.5117230000000 1.0
C      1  0.4426130000000  0.4224370000000  0.5038910000000 1.0
C      1  0.5111960000000  0.5492080000000  0.5133250000000 1.0
C      1  0.5112680000000  0.4519830000000  0.5126540000000 1.0
C      1  0.5033160000000  0.5922440000000  0.5790310000000 1.0
C      1  0.5011310000000  0.4125710000000  0.5809400000000 1.0
C      1  0.5003990000000  0.5579020000000  0.4855050000000 1.0
C      1  0.4992480000000  0.4402100000000  0.4853680000000 1.0
C      1  0.5217210000000  0.5731240000000  0.5617010000000 1.0
C      1  0.5194290000000  0.4306750000000  0.5629090000000 1.0
C      1  0.4452860000000  0.4848470000000  0.5062560000000 1.0
C      1  0.4483970000000  0.5107020000000  0.5184870000000 1.0
C      1  0.5214820000000  0.3974590000000  0.4709850000000 1.0
C      1  0.5205420000000  0.6018670000000  0.4708900000000 1.0
C      1  0.5079670000000  0.4842640000000  0.4163670000000 1.0
C      1  0.5083790000000  0.5167570000000  0.4158070000000 1.0
C      1  0.5869490000000  0.5492780000000  0.5057350000000 1.0
C      1  0.5880420000000  0.4493500000000  0.5084550000000 1.0
C      1  0.5618370000000  0.5181610000000  0.4190910000000 1.0
C      1  0.5665140000000  0.4794910000000  0.4191030000000 1.0
C      1  0.4737890000000  0.5946120000000  0.4629660000000 1.0
C      1  0.4743840000000  0.4052740000000  0.4586940000000 1.0
C      1  0.4944980000000  0.5452690000000  0.5837700000000 1.0
C      1  0.4926100000000  0.4606420000000  0.5844750000000 1.0
C      1  0.4139390000000  0.4894090000000  0.5811910000000 1.0
C      1  0.4215060000000  0.5094540000000  0.5628960000000 1.0
C      1  0.4819680000000  0.4645310000000  0.5567920000000 1.0
C      1  0.4833700000000  0.5440190000000  0.5553160000000 1.0
C      1  0.5847880000000  0.4542620000000  0.5380270000000 1.0
C      1  0.5856410000000  0.5454670000000  0.5359230000000 1.0
C      1  0.4475310000000  0.6102910000000  0.5356140000000 1.0
C      1  0.4524450000000  0.3876620000000  0.5346470000000 1.0
C      1  0.4558150000000  0.4892710000000  0.6047950000000 1.0
C      1  0.4566800000000  0.5185710000000  0.5995140000000 1.0
C      1  0.5432560000000  0.4711480000000  0.5641390000000 1.0
C      1  0.5429320000000  0.5309800000000  0.5641330000000 1.0
C      1  0.5163750000000  0.4338710000000  0.4377190000000 1.0
C      1  0.5138860000000  0.5676490000000  0.4366070000000 1.0
C      1  0.5854200000000  0.4370600000000  0.4287400000000 1.0
C      1  0.5827120000000  0.5607100000000  0.4266030000000 1.0
C      1  0.4737190000000  0.5213450000000  0.5031770000000 1.0
C      1  0.4707490000000  0.4714770000000  0.5038560000000 1.0
C      1  0.5230910000000  0.4560660000000  0.5793130000000 1.0
C      1  0.5248360000000  0.5483570000000  0.5790260000000 1.0
C      1  0.4792580000000  0.4323350000000  0.5878570000000 1.0
C      1  0.4827970000000  0.5732970000000  0.5908850000000 1.0
C      1  0.5396420000000  0.5927090000000  0.5208750000000 1.0
C      1  0.5384000000000  0.4086010000000  0.5223950000000 1.0
C      1  0.4169910000000  0.4727240000000  0.4600910000000 1.0
C      1  0.4199920000000  0.5271030000000  0.4663360000000 1.0
C      1  0.4385720000000  0.5554950000000  0.5315540000000 1.0
C      1  0.4293230000000  0.4403120000000  0.5238200000000 1.0
C      1  0.5426420000000  0.4589130000000  0.5137130000000 1.0
C      1  0.5412700000000  0.5417220000000  0.5135870000000 1.0
C      1  0.4890640000000  0.5162230000000  0.5444260000000 1.0
C      1  0.4948940000000  0.4873390000000  0.5436090000000 1.0
C      1  0.4757890000000  0.6105110000000  0.4894670000000 1.0
C      1  0.4755710000000  0.3899100000000  0.4862540000000 1.0
C      1  0.4446060000000  0.5602160000000  0.4380710000000 1.0
C      1  0.4445520000000  0.4403610000000  0.4318880000000 1.0
C      1  0.5318790000000  0.4813060000000  0.4634690000000 1.0
C      1  0.5379180000000  0.5129800000000  0.4647560000000 1.0
C      1  0.4631960000000  0.4844280000000  0.4319070000000 1.0
C      1  0.4637490000000  0.5158060000000  0.4330450000000 1.0
C      1  0.5902320000000  0.5273930000000  0.5701190000000 1.0
C      1  0.5912570000000  0.4776470000000  0.5676880000000 1.0
C      1  0.5009560000000  0.5650590000000  0.5392940000000 1.0
C      1  0.4994310000000  0.4373290000000  0.5397680000000 1.0
C      1  0.5248120000000  0.4644610000000  0.4012190000000 1.0
C      1  0.5217020000000  0.5373180000000  0.3984560000000 1.0
C      1  0.4798010000000  0.5242940000000  0.4093870000000 1.0
C      1  0.4801160000000  0.4769450000000  0.4081050000000 1.0
C      1  0.4569510000000  0.5778970000000  0.5752900000000 1.0
C      1  0.4572020000000  0.4240460000000  0.5678230000000 1.0
C      1  0.4253320000000  0.4640380000000  0.4336180000000 1.0
C      1  0.4265040000000  0.5364490000000  0.4397150000000 1.0
C      1  0.4217810000000  0.4662710000000  0.5066820000000 1.0
C      1  0.4256950000000  0.5314050000000  0.5147920000000 1.0
C      1  0.5016630000000  0.5796680000000  0.4628580000000 1.0
C      1  0.5028780000000  0.4198610000000  0.4619340000000 1.0
C      1  0.5526510000000  0.5147460000000  0.4942600000000 1.0
C      1  0.5558780000000  0.4845960000000  0.5006940000000 1.0
C      1  0.5609110000000  0.4383090000000  0.4991260000000 1.0
C      1  0.5599420000000  0.5611680000000  0.4978880000000 1.0
C      1  0.4886220000000  0.3929400000000  0.5621120000000 1.0
C      1  0.4884160000000  0.6088100000000  0.5595400000000 1.0
C      1  0.5466340000000  0.5779090000000  0.5454200000000 1.0
C      1  0.5446060000000  0.4236380000000  0.5471860000000 1.0
C      1  0.4857680000000  0.5214010000000  0.5995510000000 1.0
C      1  0.4848130000000  0.4843150000000  0.6018700000000 1.0
C      1  0.4476990000000  0.5020620000000  0.5484580000000 1.0
C      1  0.4515070000000  0.4713560000000  0.5583020000000 1.0
C      1  0.5651410000000  0.4861030000000  0.5777180000000 1.0
C      1  0.5645110000000  0.5166480000000  0.5785050000000 1.0
C      1  0.4407270000000  0.5292910000000  0.5757450000000 1.0
C      1  0.4382380000000  0.4751840000000  0.5854430000000 1.0
C      1  0.4578410000000  0.4331480000000  0.4085550000000 1.0
C      1  0.4568510000000  0.5677420000000  0.4143820000000 1.0
C      1  0.5581900000000  0.5475480000000  0.4207550000000 1.0
C      1  0.5612530000000  0.4503100000000  0.4217880000000 1.0
C      1  0.5076640000000  0.4764310000000  0.4459780000000 1.0
C      1  0.5113590000000  0.5250090000000  0.4458990000000 1.0
C      1  0.5503030000000  0.5962090000000  0.4731560000000 1.0
C      1  0.5510830000000  0.4029040000000  0.4749930000000 1.0
C      1  0.4778240000000  0.5532360000000  0.4024960000000 1.0
C      1  0.4808110000000  0.4479650000000  0.4014350000000 1.0
C      1  0.4764590000000  0.5405260000000  0.4810460000000 1.0
C      1  0.4740790000000  0.4556150000000  0.4799460000000 1.0
C      1  0.4967980000000  0.4784940000000  0.5157010000000 1.0
C      1  0.4978440000000  0.5228990000000  0.5175140000000 1.0
C      1  0.5865840000000  0.4403930000000  0.4568390000000 1.0
C      1  0.5843060000000  0.5583750000000  0.4547690000000 1.0
C      1  0.4920650000000  0.4066470000000  0.5348320000000 1.0
C      1  0.4918550000000  0.5943910000000  0.5331930000000 1.0
C      1  0.4491850000000  0.4220420000000  0.4547380000000 1.0
C      1  0.4498810000000  0.5767340000000  0.4618650000000 1.0
C      1  0.4588110000000  0.3947200000000  0.5613680000000 1.0
C      1  0.4590880000000  0.6050230000000  0.5614970000000 1.0
C      1  0.5547160000000  0.5482720000000  0.5416050000000 1.0
C      1  0.5543080000000  0.4524100000000  0.5424590000000 1.0
C      1  0.4476070000000  0.4379020000000  0.4789960000000 1.0
C      1  0.4519250000000  0.5587080000000  0.4848870000000 1.0
C      1  0.4573570000000  0.3987510000000  0.5090720000000 1.0
C      1  0.4658100000000  0.5970860000000  0.5168150000000 1.0
C      1  0.5842720000000  0.4751950000000  0.4937430000000 1.0
C      1  0.5825000000000  0.5241480000000  0.4905660000000 1.0
C      1  0.5051970000000  0.3844390000000  0.4927920000000 1.0
C      1  0.5056310000000  0.6161760000000  0.4927400000000 1.0
END
