TITL C-3577085-527-393 -5.68884514890379e-06 125000 -666.214734667437 0 0 109 (C1) n - 1
REM
REM in /home/bkarasulu/work/CARBON/AIRSS/Generating-Clusters/EDIP-Nigel-Params/with-SteepDescent/Higher-Symm/SD-CG/HFTN-CG
REM
REM
REM
REM
REM
REM ./C.cell (12c818d87b63d06a65506943cc24bca4)
REM
REM compiler GCC version 9.2.1 20190827 (Red Hat 9.2.1-1)
REM options -cpp -mtune=generic -march=x86-64 -g -O0 -fpre-include=/usr/include/finclude/math-vector-fortran.h
REM seed 2003250302 -1299266786 1744562543 640994019 -1909452560 -1331158822 1007784900 930631578 -861038719 -189758502 -1660653832 -526849247 1435537639 609367309 -635615730 1141157842 600088039 -1566755188 -524153578 894324233 -1021190404 1089931725 -518432833 1271102007 2012200860 395957854 1352651185 -1857172476 64895593 -600370634 1773620916 2035231539 1346692966
REM
CELL 1.54180   50.00000   50.00000   50.00000   90.00000   90.00000   90.00000
LATT -1
SFAC C  
C      1  0.4467680000000  0.4396210000000  0.4474380000000 1.0
C      1  0.5507600000000  0.5631260000000  0.4460080000000 1.0
C      1  0.4477150000000  0.4416010000000  0.5585600000000 1.0
C      1  0.5490830000000  0.5594380000000  0.5543070000000 1.0
C      1  0.4504030000000  0.5608450000000  0.4456750000000 1.0
C      1  0.5531620000000  0.4417920000000  0.4420620000000 1.0
C      1  0.4488790000000  0.5645250000000  0.5547990000000 1.0
C      1  0.5549770000000  0.4389310000000  0.5539900000000 1.0
C      1  0.4840180000000  0.4363760000000  0.5242050000000 1.0
C      1  0.5158650000000  0.5590110000000  0.5264250000000 1.0
C      1  0.4802380000000  0.4272540000000  0.4722860000000 1.0
C      1  0.5169720000000  0.5588740000000  0.4731070000000 1.0
C      1  0.4819870000000  0.5617900000000  0.5270970000000 1.0
C      1  0.5230050000000  0.4363140000000  0.5255620000000 1.0
C      1  0.4830520000000  0.5595640000000  0.4738130000000 1.0
C      1  0.5194200000000  0.4243650000000  0.4711540000000 1.0
C      1  0.4891820000000  0.4615660000000  0.5072630000000 1.0
C      1  0.5176230000000  0.5306640000000  0.5129420000000 1.0
C      1  0.4887060000000  0.4552210000000  0.4778490000000 1.0
C      1  0.5215520000000  0.5311650000000  0.4829940000000 1.0
C      1  0.4793110000000  0.5327030000000  0.5172150000000 1.0
C      1  0.5201690000000  0.4618010000000  0.5082670000000 1.0
C      1  0.4777920000000  0.5325550000000  0.4865390000000 1.0
C      1  0.5190110000000  0.4543230000000  0.4755030000000 1.0
C      1  0.4372250000000  0.5632820000000  0.5285110000000 1.0
C      1  0.5670770000000  0.4392450000000  0.5276110000000 1.0
C      1  0.4380840000000  0.5615510000000  0.4717690000000 1.0
C      1  0.5646130000000  0.4423640000000  0.4691390000000 1.0
C      1  0.4364870000000  0.4436670000000  0.5315460000000 1.0
C      1  0.5601540000000  0.5599550000000  0.5279130000000 1.0
C      1  0.4363060000000  0.4432010000000  0.4742190000000 1.0
C      1  0.5616980000000  0.5624500000000  0.4724500000000 1.0
C      1  0.5907010000000  0.4851470000000  0.5312130000000 1.0
C      1  0.4077830000000  0.5200260000000  0.5317680000000 1.0
C      1  0.5928780000000  0.4873320000000  0.4684870000000 1.0
C      1  0.4096950000000  0.5183150000000  0.4701270000000 1.0
C      1  0.5882760000000  0.5174780000000  0.5303100000000 1.0
C      1  0.4081870000000  0.4882110000000  0.5325070000000 1.0
C      1  0.5916670000000  0.5193150000000  0.4691010000000 1.0
C      1  0.4103130000000  0.4869280000000  0.4718500000000 1.0
C      1  0.5160910000000  0.5189320000000  0.4023940000000 1.0
C      1  0.4921340000000  0.4841480000000  0.4150020000000 1.0
C      1  0.5112970000000  0.5119460000000  0.5906030000000 1.0
C      1  0.4817540000000  0.4807010000000  0.5996400000000 1.0
C      1  0.5181190000000  0.4811450000000  0.4012500000000 1.0
C      1  0.4880880000000  0.5123560000000  0.4091420000000 1.0
C      1  0.5072110000000  0.4837750000000  0.5848580000000 1.0
C      1  0.4838760000000  0.5186810000000  0.5984900000000 1.0
C      1  0.5453460000000  0.5165460000000  0.4727400000000 1.0
C      1  0.4590920000000  0.4879560000000  0.4825120000000 1.0
C      1  0.5407350000000  0.5149720000000  0.5236440000000 1.0
C      1  0.4562460000000  0.4896090000000  0.5266350000000 1.0
C      1  0.5462000000000  0.4882260000000  0.4836350000000 1.0
C      1  0.4559060000000  0.5167750000000  0.4747800000000 1.0
C      1  0.5372160000000  0.4876060000000  0.5109710000000 1.0
C      1  0.4545870000000  0.5188380000000  0.5309720000000 1.0
C      1  0.4690030000000  0.5318120000000  0.5773550000000 1.0
C      1  0.5313080000000  0.4690860000000  0.5780880000000 1.0
C      1  0.4750620000000  0.5270790000000  0.4301680000000 1.0
C      1  0.5398730000000  0.4669100000000  0.4153670000000 1.0
C      1  0.4598600000000  0.4674470000000  0.5848770000000 1.0
C      1  0.5233150000000  0.5261690000000  0.5689620000000 1.0
C      1  0.4687360000000  0.4695320000000  0.4230680000000 1.0
C      1  0.5296020000000  0.5298420000000  0.4254500000000 1.0
C      1  0.4725930000000  0.5593710000000  0.5696330000000 1.0
C      1  0.5298770000000  0.4420000000000  0.5683140000000 1.0
C      1  0.4743690000000  0.5555000000000  0.4315050000000 1.0
C      1  0.5251910000000  0.4450540000000  0.4325920000000 1.0
C      1  0.4755310000000  0.4473940000000  0.5658930000000 1.0
C      1  0.5251470000000  0.5546000000000  0.5685580000000 1.0
C      1  0.4707900000000  0.4419370000000  0.4317430000000 1.0
C      1  0.5272740000000  0.5579940000000  0.4310680000000 1.0
C      1  0.5709380000000  0.4705490000000  0.4835220000000 1.0
C      1  0.4320080000000  0.5332010000000  0.4847830000000 1.0
C      1  0.5753470000000  0.4653110000000  0.5141520000000 1.0
C      1  0.4312910000000  0.5342000000000  0.5178220000000 1.0
C      1  0.5680160000000  0.5335150000000  0.4834300000000 1.0
C      1  0.4333820000000  0.4721360000000  0.4869380000000 1.0
C      1  0.5655840000000  0.5318520000000  0.5152760000000 1.0
C      1  0.4321980000000  0.4729210000000  0.5193730000000 1.0
C      1  0.5453990000000  0.5126010000000  0.5541280000000 1.0
C      1  0.4438560000000  0.4885460000000  0.5691510000000 1.0
C      1  0.5507290000000  0.5152850000000  0.4418580000000 1.0
C      1  0.4492400000000  0.4845310000000  0.4394560000000 1.0
C      1  0.5495200000000  0.4828420000000  0.5599880000000 1.0
C      1  0.4472960000000  0.5184170000000  0.5614680000000 1.0
C      1  0.5549760000000  0.4855400000000  0.4343900000000 1.0
C      1  0.4516970000000  0.5147920000000  0.4442610000000 1.0
C      1  0.5852670000000  0.4876790000000  0.4387400000000 1.0
C      1  0.4192300000000  0.5171970000000  0.4410440000000 1.0
C      1  0.5800870000000  0.4855050000000  0.5598750000000 1.0
C      1  0.4145730000000  0.5209260000000  0.5614230000000 1.0
C      1  0.5828310000000  0.5194850000000  0.4399580000000 1.0
C      1  0.4186210000000  0.4851990000000  0.4422090000000 1.0
C      1  0.5774310000000  0.5171950000000  0.5587260000000 1.0
C      1  0.4139750000000  0.4890960000000  0.5628120000000 1.0
C      1  0.4593470000000  0.5791180000000  0.5145050000000 1.0
C      1  0.5471720000000  0.4219290000000  0.5135890000000 1.0
C      1  0.4600170000000  0.5783890000000  0.4849500000000 1.0
C      1  0.5476880000000  0.4215050000000  0.4831770000000 1.0
C      1  0.4567410000000  0.4265140000000  0.5176150000000 1.0
C      1  0.5384230000000  0.5769110000000  0.5151940000000 1.0
C      1  0.4538240000000  0.4234480000000  0.4879750000000 1.0
C      1  0.5385830000000  0.5776100000000  0.4857850000000 1.0
C      1  0.5020770000000  0.4329210000000  0.5585040000000 1.0
C      1  0.4999950000000  0.5692460000000  0.5608530000000 1.0
C      1  0.4986900000000  0.4295840000000  0.4378610000000 1.0
C      1  0.4999920000000  0.5688960000000  0.4395880000000 1.0
C      1  0.4758410000000  0.4872040000000  0.5065020000000 1.0
END
