TITL C-3578194-7807-599 4.75546362667598e-07 125000 -557.063367614461 0 0 87 (C3h) n - 1
REM
REM in /home/bkarasulu/work/CARBON/AIRSS/Generating-Clusters/EDIP-Nigel-Params/with-SteepDescent/Higher-Symm/SD-CG/HFTN-CG
REM
REM
REM
REM
REM
REM ./C.cell (12c818d87b63d06a65506943cc24bca4)
REM
REM compiler GCC version 9.2.1 20190827 (Red Hat 9.2.1-1)
REM options -cpp -mtune=generic -march=x86-64 -g -O0 -fpre-include=/usr/include/finclude/math-vector-fortran.h
REM seed 1739615222 -2064007262 -481288047 140522639 -1500060546 -236656449 1209455932 2131753610 -1763204927 688662208 855722083 -1895689406 1790409151 1570973484 -1153370482 -416143026 1718013093 -867431026 1874016241 1164067656 741469257 -1295818884 1078928530 -1833800371 2088934456 -1556931854 -47547152 -426824983 -315508796 -1597840772 354494943 -1505348366 1372494353
REM
CELL 1.54180   50.00000   50.00000   50.00000   90.00000   90.00000   90.00000
LATT -1
SFAC C  
C      1  0.4309220000000  0.4786020000000  0.4802440000000 1.0
C      1  0.5516480000000  0.4786010000000  0.4500550000000 1.0
C      1  0.5174300000000  0.4786020000000  0.5697010000000 1.0
C      1  0.4309230000000  0.5230450000000  0.4802440000000 1.0
C      1  0.5516480000000  0.5230440000000  0.4500550000000 1.0
C      1  0.5174300000000  0.5230450000000  0.5697010000000 1.0
C      1  0.5151460000000  0.5675970000000  0.5231340000000 1.0
C      1  0.4723930000000  0.5675970000000  0.5015490000000 1.0
C      1  0.5124620000000  0.5675970000000  0.4753160000000 1.0
C      1  0.5151450000000  0.4340500000000  0.5231340000000 1.0
C      1  0.4723930000000  0.4340490000000  0.5015500000000 1.0
C      1  0.5124620000000  0.4340490000000  0.4753170000000 1.0
C      1  0.5722780000000  0.5155140000000  0.5227800000000 1.0
C      1  0.4441330000000  0.5155140000000  0.5512040000000 1.0
C      1  0.4835890000000  0.5155130000000  0.4260150000000 1.0
C      1  0.5722780000000  0.4861330000000  0.5227800000000 1.0
C      1  0.4441330000000  0.4861330000000  0.5512040000000 1.0
C      1  0.4835890000000  0.4861320000000  0.4260150000000 1.0
C      1  0.5008470000000  0.4458960000000  0.4340190000000 1.0
C      1  0.5567170000000  0.4458960000000  0.5337250000000 1.0
C      1  0.4424350000000  0.4458970000000  0.5322570000000 1.0
C      1  0.5008480000000  0.5557500000000  0.4340190000000 1.0
C      1  0.5567170000000  0.5557500000000  0.5337240000000 1.0
C      1  0.4424350000000  0.5557510000000  0.5322560000000 1.0
C      1  0.4753060000000  0.4365520000000  0.4469120000000 1.0
C      1  0.5583230000000  0.4365530000000  0.5051590000000 1.0
C      1  0.4663710000000  0.4365530000000  0.5479300000000 1.0
C      1  0.4753060000000  0.5650940000000  0.4469110000000 1.0
C      1  0.5583230000000  0.5650940000000  0.5051580000000 1.0
C      1  0.4663710000000  0.5650940000000  0.5479290000000 1.0
C      1  0.4666880000000  0.5535530000000  0.5733200000000 1.0
C      1  0.4531590000000  0.5535520000000  0.4344900000000 1.0
C      1  0.5801530000000  0.5535520000000  0.4921890000000 1.0
C      1  0.4666880000000  0.4480950000000  0.5733210000000 1.0
C      1  0.4531590000000  0.4480940000000  0.4344910000000 1.0
C      1  0.5801530000000  0.4480940000000  0.4921900000000 1.0
C      1  0.4726760000000  0.4852690000000  0.5100990000000 1.0
C      1  0.5049160000000  0.4852680000000  0.4712870000000 1.0
C      1  0.5224080000000  0.4852690000000  0.5186140000000 1.0
C      1  0.4726760000000  0.5163780000000  0.5100990000000 1.0
C      1  0.5049160000000  0.5163780000000  0.4712870000000 1.0
C      1  0.5224080000000  0.5163780000000  0.5186140000000 1.0
C      1  0.4875060000000  0.4437270000000  0.5264230000000 1.0
C      1  0.4833640000000  0.4437270000000  0.4759690000000 1.0
C      1  0.5291300000000  0.4437270000000  0.4976090000000 1.0
C      1  0.4875060000000  0.5579190000000  0.5264220000000 1.0
C      1  0.4833640000000  0.5579190000000  0.4759680000000 1.0
C      1  0.5291300000000  0.5579190000000  0.4976080000000 1.0
C      1  0.5252760000000  0.5491570000000  0.5665040000000 1.0
C      1  0.4297680000000  0.5491570000000  0.4886370000000 1.0
C      1  0.5449560000000  0.5491560000000  0.4448580000000 1.0
C      1  0.5252760000000  0.4524900000000  0.5665040000000 1.0
C      1  0.4297680000000  0.4524900000000  0.4886380000000 1.0
C      1  0.5449560000000  0.4524890000000  0.4448590000000 1.0
C      1  0.5329040000000  0.5663030000000  0.5462070000000 1.0
C      1  0.4435310000000  0.5663020000000  0.5053910000000 1.0
C      1  0.5235650000000  0.5663020000000  0.4484000000000 1.0
C      1  0.5329040000000  0.4353450000000  0.5462080000000 1.0
C      1  0.4435310000000  0.4353440000000  0.5053920000000 1.0
C      1  0.5235650000000  0.4353440000000  0.4484010000000 1.0
C      1  0.4447140000000  0.4764010000000  0.5218640000000 1.0
C      1  0.5087080000000  0.4764000000000  0.4411890000000 1.0
C      1  0.5465780000000  0.4764010000000  0.5369470000000 1.0
C      1  0.4447140000000  0.5252460000000  0.5218640000000 1.0
C      1  0.5087080000000  0.5252450000000  0.4411880000000 1.0
C      1  0.5465780000000  0.5252460000000  0.5369470000000 1.0
C      1  0.5272420000000  0.4746990000000  0.4911450000000 1.0
C      1  0.4940480000000  0.4747000000000  0.5280200000000 1.0
C      1  0.4787110000000  0.4746990000000  0.4808350000000 1.0
C      1  0.5272420000000  0.5269470000000  0.4911450000000 1.0
C      1  0.4940480000000  0.5269470000000  0.5280190000000 1.0
C      1  0.4787110000000  0.5269470000000  0.4808350000000 1.0
C      1  0.5763280000000  0.5259020000000  0.4947130000000 1.0
C      1  0.4664140000000  0.5259030000000  0.5687460000000 1.0
C      1  0.4572570000000  0.5259020000000  0.4365410000000 1.0
C      1  0.5763280000000  0.4757440000000  0.4947130000000 1.0
C      1  0.4664140000000  0.4757450000000  0.5687460000000 1.0
C      1  0.4572570000000  0.4757440000000  0.4365410000000 1.0
C      1  0.4917350000000  0.4856470000000  0.5563410000000 1.0
C      1  0.4553400000000  0.4856460000000  0.4646720000000 1.0
C      1  0.5529250000000  0.4856460000000  0.4789880000000 1.0
C      1  0.4917350000000  0.5160010000000  0.5563410000000 1.0
C      1  0.4553400000000  0.5160000000000  0.4646710000000 1.0
C      1  0.5529250000000  0.5160000000000  0.4789870000000 1.0
C      1  0.5384900000000  0.5008230000000  0.4347620000000 1.0
C      1  0.5372530000000  0.5008240000000  0.5659520000000 1.0
C      1  0.4242580000000  0.5008230000000  0.4992860000000 1.0
END
