TITL C-3578197-9521-417 -8.17183355833071e-06 125000 -363.878760752868 0 0 59 (C1) n - 1
REM
REM in /home/bkarasulu/work/CARBON/AIRSS/Generating-Clusters/EDIP-Nigel-Params/with-SteepDescent/Higher-Symm/SD-CG/HFTN-CG
REM
REM
REM
REM
REM
REM ./C.cell (12c818d87b63d06a65506943cc24bca4)
REM
REM compiler GCC version 9.2.1 20190827 (Red Hat 9.2.1-1)
REM options -cpp -mtune=generic -march=x86-64 -g -O0 -fpre-include=/usr/include/finclude/math-vector-fortran.h
REM seed -1657515377 -281976378 1849259156 1501230852 -1684488754 -241250487 -688759295 1353744242 -853199144 956651315 -558186621 -769995864 1047850420 -1812913998 -1915744717 1231580184 -505094563 -559089536 -1892899823 -1128522360 166106672 2015712 -307518051 448866669 398710001 -1272112429 64317913 -1264352984 2128814816 -1859116580 1633413230 1076406467 -1731501838
REM
CELL 1.54180   50.00000   50.00000   50.00000   90.00000   90.00000   90.00000
LATT -1
SFAC C  
C      1  0.5619460000000  0.4716910000000  0.5052510000000 1.0
C      1  0.5628790000000  0.5043890000000  0.4693270000000 1.0
C      1  0.5529970000000  0.5269550000000  0.4870460000000 1.0
C      1  0.5490310000000  0.5199550000000  0.5160060000000 1.0
C      1  0.5466900000000  0.4909550000000  0.5219780000000 1.0
C      1  0.4902970000000  0.5544910000000  0.5525440000000 1.0
C      1  0.4870500000000  0.4709980000000  0.5641720000000 1.0
C      1  0.4882710000000  0.4280670000000  0.4899850000000 1.0
C      1  0.4796560000000  0.4877140000000  0.4261690000000 1.0
C      1  0.4887730000000  0.5651490000000  0.4691510000000 1.0
C      1  0.5366470000000  0.5491280000000  0.4752430000000 1.0
C      1  0.5338400000000  0.5391610000000  0.5325100000000 1.0
C      1  0.5352830000000  0.4814100000000  0.5477000000000 1.0
C      1  0.5451850000000  0.4493800000000  0.4962910000000 1.0
C      1  0.5421670000000  0.4942450000000  0.4504800000000 1.0
C      1  0.5196840000000  0.4562580000000  0.4513340000000 1.0
C      1  0.5127340000000  0.5318880000000  0.4424690000000 1.0
C      1  0.5128500000000  0.5722530000000  0.5120260000000 1.0
C      1  0.5113730000000  0.5132720000000  0.5675880000000 1.0
C      1  0.5119310000000  0.4394680000000  0.5329850000000 1.0
C      1  0.4637680000000  0.4697640000000  0.5451250000000 1.0
C      1  0.4632490000000  0.4380840000000  0.4782800000000 1.0
C      1  0.4579550000000  0.5012140000000  0.4403640000000 1.0
C      1  0.4628870000000  0.5613690000000  0.4843260000000 1.0
C      1  0.4630710000000  0.5417400000000  0.5551770000000 1.0
C      1  0.4613260000000  0.4525530000000  0.4519820000000 1.0
C      1  0.4690510000000  0.5226330000000  0.4579410000000 1.0
C      1  0.4634650000000  0.5644700000000  0.5137370000000 1.0
C      1  0.4622760000000  0.5125200000000  0.5618210000000 1.0
C      1  0.4665260000000  0.4516510000000  0.5225800000000 1.0
C      1  0.4883190000000  0.5735800000000  0.5286100000000 1.0
C      1  0.4864290000000  0.4991830000000  0.5752350000000 1.0
C      1  0.4872820000000  0.4314220000000  0.5190640000000 1.0
C      1  0.4883440000000  0.4637870000000  0.4415430000000 1.0
C      1  0.4864380000000  0.5438270000000  0.4473310000000 1.0
C      1  0.4574630000000  0.5319870000000  0.4829520000000 1.0
C      1  0.4565330000000  0.5387080000000  0.5264480000000 1.0
C      1  0.4529930000000  0.4961640000000  0.5385380000000 1.0
C      1  0.4520860000000  0.4564120000000  0.4981430000000 1.0
C      1  0.4461100000000  0.4793330000000  0.4581690000000 1.0
C      1  0.5095210000000  0.5541950000000  0.4883580000000 1.0
C      1  0.5069300000000  0.5306360000000  0.5437320000000 1.0
C      1  0.5086530000000  0.4682660000000  0.5422320000000 1.0
C      1  0.5253310000000  0.4660800000000  0.4802230000000 1.0
C      1  0.5159020000000  0.5055530000000  0.4583400000000 1.0
C      1  0.4953770000000  0.4654790000000  0.4919020000000 1.0
C      1  0.4890600000000  0.4843740000000  0.4659010000000 1.0
C      1  0.4946550000000  0.5268830000000  0.4934260000000 1.0
C      1  0.4880350000000  0.5168200000000  0.5219100000000 1.0
C      1  0.4959730000000  0.4841410000000  0.5182990000000 1.0
C      1  0.5353700000000  0.4991480000000  0.5692660000000 1.0
C      1  0.5343920000000  0.4345430000000  0.5172990000000 1.0
C      1  0.5418980000000  0.4682790000000  0.4393870000000 1.0
C      1  0.5344990000000  0.5495610000000  0.4470860000000 1.0
C      1  0.5362410000000  0.5666050000000  0.5266410000000 1.0
C      1  0.4472460000000  0.5050480000000  0.5091360000000 1.0
C      1  0.5166350000000  0.5031030000000  0.4922630000000 1.0
C      1  0.5756350000000  0.4841020000000  0.4839850000000 1.0
C      1  0.4505360000000  0.4833340000000  0.4879350000000 1.0
END
