TITL C-3578201-9217-277 -1.48168353645108e-06 125000 -882.276255837779 0 0 140 (C1) n - 1
REM
REM in /home/bkarasulu/work/CARBON/AIRSS/Generating-Clusters/EDIP-Nigel-Params/with-SteepDescent/Higher-Symm/SD-CG/HFTN-CG
REM
REM
REM
REM
REM
REM ./C.cell (12c818d87b63d06a65506943cc24bca4)
REM
REM compiler GCC version 9.2.1 20190827 (Red Hat 9.2.1-1)
REM options -cpp -mtune=generic -march=x86-64 -g -O0 -fpre-include=/usr/include/finclude/math-vector-fortran.h
REM seed 1606868276 -2067088091 896262184 -699794030 -164886809 -1406715164 -2025016093 -789613012 -853773718 1971364723 1823333993 -2085843837 483699834 854825765 1838876628 -1550389795 309115348 1185216666 1533107792 -401436705 -253530272 459771512 -880836512 -1105513023 603428646 -572233098 -1300013156 -1003652815 638834708 -1593499551 -126862498 -1729043381 -187574440
REM
CELL 1.54180   50.00000   50.00000   50.00000   90.00000   90.00000   90.00000
LATT -1
SFAC C  
C      1  0.4503700000000  0.5728580000000  0.4988150000000 1.0
C      1  0.4510200000000  0.5047470000000  0.4278370000000 1.0
C      1  0.4521670000000  0.4342900000000  0.4973250000000 1.0
C      1  0.4524410000000  0.4960700000000  0.5696190000000 1.0
C      1  0.4644400000000  0.5324770000000  0.4587570000000 1.0
C      1  0.4674680000000  0.4597450000000  0.4657730000000 1.0
C      1  0.4671580000000  0.4672700000000  0.5394630000000 1.0
C      1  0.4586020000000  0.5411910000000  0.5469380000000 1.0
C      1  0.5302660000000  0.4594670000000  0.4257770000000 1.0
C      1  0.5299200000000  0.4260860000000  0.5391510000000 1.0
C      1  0.5294150000000  0.5407450000000  0.5759550000000 1.0
C      1  0.5285950000000  0.5723210000000  0.4599590000000 1.0
C      1  0.5697860000000  0.4527730000000  0.4541300000000 1.0
C      1  0.5656700000000  0.4572890000000  0.5432550000000 1.0
C      1  0.5657780000000  0.5446750000000  0.5431970000000 1.0
C      1  0.5669960000000  0.5425170000000  0.4553900000000 1.0
C      1  0.5144300000000  0.5990200000000  0.4686840000000 1.0
C      1  0.5140030000000  0.4694720000000  0.4006040000000 1.0
C      1  0.5136650000000  0.4008270000000  0.5295000000000 1.0
C      1  0.5159810000000  0.5301890000000  0.6025800000000 1.0
C      1  0.4840630000000  0.4251560000000  0.5753420000000 1.0
C      1  0.4840170000000  0.5762230000000  0.5795220000000 1.0
C      1  0.4845740000000  0.5742940000000  0.4228560000000 1.0
C      1  0.4837540000000  0.4240430000000  0.4243530000000 1.0
C      1  0.5095080000000  0.4353860000000  0.5863300000000 1.0
C      1  0.5081440000000  0.5870180000000  0.5648070000000 1.0
C      1  0.5096090000000  0.5626730000000  0.4130100000000 1.0
C      1  0.5088950000000  0.4125600000000  0.4351920000000 1.0
C      1  0.4333620000000  0.4296870000000  0.5191720000000 1.0
C      1  0.4346490000000  0.5167480000000  0.5805010000000 1.0
C      1  0.4328130000000  0.5738380000000  0.4760330000000 1.0
C      1  0.4349610000000  0.4807540000000  0.4295030000000 1.0
C      1  0.5334710000000  0.4309330000000  0.5693360000000 1.0
C      1  0.5328380000000  0.5708410000000  0.5697190000000 1.0
C      1  0.5333230000000  0.5676180000000  0.4300340000000 1.0
C      1  0.5333660000000  0.4291200000000  0.4303730000000 1.0
C      1  0.4699090000000  0.5832090000000  0.4465460000000 1.0
C      1  0.4688950000000  0.4484530000000  0.4165930000000 1.0
C      1  0.4690720000000  0.4175410000000  0.5510790000000 1.0
C      1  0.4700050000000  0.5513930000000  0.5899790000000 1.0
C      1  0.4890190000000  0.5448090000000  0.4478910000000 1.0
C      1  0.4913880000000  0.4483950000000  0.4535070000000 1.0
C      1  0.4910910000000  0.4544620000000  0.5508350000000 1.0
C      1  0.4870020000000  0.5523280000000  0.5495590000000 1.0
C      1  0.5079070000000  0.3941470000000  0.4617650000000 1.0
C      1  0.5098440000000  0.4610880000000  0.6058140000000 1.0
C      1  0.5072450000000  0.6047780000000  0.5369820000000 1.0
C      1  0.5093410000000  0.5366620000000  0.3946610000000 1.0
C      1  0.5585800000000  0.4703020000000  0.4325350000000 1.0
C      1  0.5580570000000  0.4330740000000  0.5273940000000 1.0
C      1  0.5570630000000  0.5288560000000  0.5668880000000 1.0
C      1  0.5558910000000  0.5648460000000  0.4715780000000 1.0
C      1  0.4422280000000  0.4317050000000  0.5463770000000 1.0
C      1  0.4457210000000  0.5423920000000  0.5741440000000 1.0
C      1  0.4426820000000  0.5697750000000  0.4498650000000 1.0
C      1  0.4419350000000  0.4530100000000  0.4308710000000 1.0
C      1  0.5273380000000  0.5069760000000  0.6136480000000 1.0
C      1  0.5251470000000  0.6115220000000  0.4913770000000 1.0
C      1  0.5255550000000  0.4913500000000  0.3874870000000 1.0
C      1  0.5245220000000  0.3876340000000  0.5072100000000 1.0
C      1  0.3915560000000  0.5233230000000  0.5211120000000 1.0
C      1  0.4004310000000  0.5218400000000  0.4742270000000 1.0
C      1  0.4010050000000  0.4750630000000  0.4782540000000 1.0
C      1  0.3990350000000  0.4771290000000  0.5260780000000 1.0
C      1  0.4599670000000  0.5109400000000  0.5419960000000 1.0
C      1  0.4624590000000  0.5363440000000  0.4888990000000 1.0
C      1  0.4645240000000  0.4891590000000  0.4607010000000 1.0
C      1  0.4639560000000  0.4645870000000  0.5095440000000 1.0
C      1  0.4054640000000  0.5339390000000  0.4989630000000 1.0
C      1  0.4139310000000  0.4979730000000  0.4676280000000 1.0
C      1  0.4136190000000  0.4705160000000  0.5028710000000 1.0
C      1  0.4077240000000  0.5030980000000  0.5324300000000 1.0
C      1  0.4962810000000  0.5243040000000  0.4287010000000 1.0
C      1  0.4981950000000  0.4291810000000  0.4741580000000 1.0
C      1  0.4967030000000  0.4745520000000  0.5714900000000 1.0
C      1  0.4933460000000  0.5704700000000  0.5272010000000 1.0
C      1  0.5332440000000  0.5173390000000  0.3939370000000 1.0
C      1  0.5321840000000  0.3931140000000  0.4809230000000 1.0
C      1  0.5337840000000  0.4808150000000  0.6062300000000 1.0
C      1  0.5312900000000  0.6049600000000  0.5177450000000 1.0
C      1  0.4867700000000  0.5043240000000  0.5262950000000 1.0
C      1  0.4879450000000  0.5205400000000  0.4987550000000 1.0
C      1  0.4906790000000  0.4978490000000  0.4770480000000 1.0
C      1  0.4918730000000  0.4760770000000  0.4984160000000 1.0
C      1  0.4426910000000  0.5549030000000  0.5241920000000 1.0
C      1  0.4423960000000  0.5404060000000  0.4414170000000 1.0
C      1  0.4438340000000  0.4433580000000  0.4603030000000 1.0
C      1  0.4439920000000  0.4605930000000  0.5560020000000 1.0
C      1  0.5520580000000  0.5707870000000  0.5465070000000 1.0
C      1  0.5540300000000  0.5459010000000  0.4288930000000 1.0
C      1  0.5545330000000  0.4271080000000  0.4516890000000 1.0
C      1  0.5531890000000  0.4535490000000  0.5698570000000 1.0
C      1  0.4401060000000  0.4841610000000  0.5031700000000 1.0
C      1  0.4361420000000  0.5065880000000  0.5228590000000 1.0
C      1  0.4345880000000  0.5319180000000  0.5065700000000 1.0
C      1  0.4421400000000  0.4990270000000  0.4775490000000 1.0
C      1  0.4705420000000  0.4991250000000  0.4052950000000 1.0
C      1  0.4711790000000  0.4095690000000  0.5006400000000 1.0
C      1  0.4730700000000  0.4999480000000  0.5944180000000 1.0
C      1  0.4719910000000  0.5936990000000  0.4972090000000 1.0
C      1  0.5102650000000  0.5336310000000  0.5544020000000 1.0
C      1  0.5111340000000  0.5494930000000  0.4679960000000 1.0
C      1  0.5142430000000  0.4674890000000  0.4493800000000 1.0
C      1  0.5145330000000  0.4503650000000  0.5317400000000 1.0
C      1  0.4837400000000  0.4757630000000  0.6081600000000 1.0
C      1  0.4812030000000  0.6067380000000  0.5218300000000 1.0
C      1  0.4829510000000  0.5223990000000  0.3924000000000 1.0
C      1  0.4814750000000  0.3945010000000  0.4771120000000 1.0
C      1  0.5216260000000  0.4374910000000  0.4868610000000 1.0
C      1  0.5189220000000  0.4882220000000  0.5627040000000 1.0
C      1  0.5164910000000  0.5603700000000  0.5142040000000 1.0
C      1  0.5199510000000  0.5127360000000  0.4382970000000 1.0
C      1  0.5658620000000  0.5372370000000  0.5117730000000 1.0
C      1  0.5680560000000  0.5114290000000  0.4617860000000 1.0
C      1  0.5701310000000  0.4598220000000  0.4850520000000 1.0
C      1  0.5644380000000  0.4890080000000  0.5366730000000 1.0
C      1  0.5666350000000  0.4320470000000  0.4988190000000 1.0
C      1  0.5644100000000  0.5001670000000  0.5657960000000 1.0
C      1  0.5621910000000  0.5650080000000  0.4999960000000 1.0
C      1  0.5651930000000  0.4990320000000  0.4337200000000 1.0
C      1  0.5429850000000  0.5008020000000  0.4786830000000 1.0
C      1  0.5453740000000  0.4747700000000  0.4925220000000 1.0
C      1  0.5374430000000  0.5031630000000  0.5251040000000 1.0
C      1  0.5396610000000  0.5205920000000  0.5016440000000 1.0
C      1  0.4845330000000  0.5961320000000  0.4700560000000 1.0
C      1  0.4843570000000  0.4722290000000  0.4060590000000 1.0
C      1  0.4839770000000  0.4061500000000  0.5275420000000 1.0
C      1  0.4861940000000  0.5274210000000  0.5985680000000 1.0
C      1  0.5132550000000  0.5074680000000  0.5417570000000 1.0
C      1  0.5138050000000  0.5377740000000  0.4956750000000 1.0
C      1  0.5172940000000  0.4951310000000  0.4611190000000 1.0
C      1  0.5189740000000  0.4612540000000  0.5035970000000 1.0
C      1  0.5410920000000  0.5766880000000  0.5189660000000 1.0
C      1  0.5441260000000  0.5181870000000  0.4219970000000 1.0
C      1  0.5450640000000  0.4205190000000  0.4798780000000 1.0
C      1  0.5435780000000  0.4810680000000  0.5778160000000 1.0
C      1  0.5933820000000  0.4784920000000  0.4935310000000 1.0
C      1  0.5900500000000  0.4948020000000  0.5204540000000 1.0
C      1  0.5910000000000  0.5211120000000  0.5048740000000 1.0
C      1  0.5930020000000  0.5055950000000  0.4779080000000 1.0
END
