TITL C-3577084-3642-253 1.50106845333695e-06 125000 -830.652586421631 0 0 132 (C1) n - 1
REM
REM in /home/bkarasulu/work/CARBON/AIRSS/Generating-Clusters/EDIP-Nigel-Params/with-SteepDescent/Higher-Symm/SD-CG/HFTN-CG
REM
REM
REM
REM
REM
REM ./C.cell (12c818d87b63d06a65506943cc24bca4)
REM
REM compiler GCC version 9.2.1 20190827 (Red Hat 9.2.1-1)
REM options -cpp -mtune=generic -march=x86-64 -g -O0 -fpre-include=/usr/include/finclude/math-vector-fortran.h
REM seed 1881911038 -616458540 1753124213 -1753984889 -140299747 1151953066 948448066 -240493643 1233339935 1468275900 -77777527 1465929735 -1544800075 -1927707558 1228156359 1466827515 -590547536 -1976263791 -1902146042 -622133711 -1473912183 -1658428089 1125235185 -1769663692 1015945649 -1075185947 -277256075 -759059730 1629478873 -1642136863 -2056624441 142812467 -430026816
REM
CELL 1.54180   50.00000   50.00000   50.00000   90.00000   90.00000   90.00000
LATT -1
SFAC C  
C      1  0.5766870000000  0.4940320000000  0.5366420000000 1.0
C      1  0.5276210000000  0.4191900000000  0.5357190000000 1.0
C      1  0.4266260000000  0.4520660000000  0.5367260000000 1.0
C      1  0.4371120000000  0.5539980000000  0.5288100000000 1.0
C      1  0.5307050000000  0.5781670000000  0.5327600000000 1.0
C      1  0.5868750000000  0.5025670000000  0.4632610000000 1.0
C      1  0.5197320000000  0.4160920000000  0.4641740000000 1.0
C      1  0.4253860000000  0.4502250000000  0.4686750000000 1.0
C      1  0.4332200000000  0.5534060000000  0.4609730000000 1.0
C      1  0.5329090000000  0.5728650000000  0.4644340000000 1.0
C      1  0.5569920000000  0.5218970000000  0.4167890000000 1.0
C      1  0.5408240000000  0.4467580000000  0.4132150000000 1.0
C      1  0.4664350000000  0.4472200000000  0.4264880000000 1.0
C      1  0.4340200000000  0.5160910000000  0.4215600000000 1.0
C      1  0.4959680000000  0.5610960000000  0.4243360000000 1.0
C      1  0.5564150000000  0.5233780000000  0.5832390000000 1.0
C      1  0.5391550000000  0.4510670000000  0.5819060000000 1.0
C      1  0.4614950000000  0.4417910000000  0.5859450000000 1.0
C      1  0.4377220000000  0.5128980000000  0.5745110000000 1.0
C      1  0.4935960000000  0.5608210000000  0.5765320000000 1.0
C      1  0.5385620000000  0.5207870000000  0.4869720000000 1.0
C      1  0.5367190000000  0.4694710000000  0.4870870000000 1.0
C      1  0.4832680000000  0.4631060000000  0.4793030000000 1.0
C      1  0.4565310000000  0.5072110000000  0.4891570000000 1.0
C      1  0.4915430000000  0.5452610000000  0.4909870000000 1.0
C      1  0.5437500000000  0.5223540000000  0.5163810000000 1.0
C      1  0.5337800000000  0.4714230000000  0.5171150000000 1.0
C      1  0.4824520000000  0.4590540000000  0.5108830000000 1.0
C      1  0.4587650000000  0.5033150000000  0.5215580000000 1.0
C      1  0.4938810000000  0.5425790000000  0.5223090000000 1.0
C      1  0.5645740000000  0.4935620000000  0.4164400000000 1.0
C      1  0.5131320000000  0.4346700000000  0.4158250000000 1.0
C      1  0.4435720000000  0.4652870000000  0.4235100000000 1.0
C      1  0.4466230000000  0.5422740000000  0.4202800000000 1.0
C      1  0.5237280000000  0.5559040000000  0.4184700000000 1.0
C      1  0.5622780000000  0.4939250000000  0.5836900000000 1.0
C      1  0.5137500000000  0.4373680000000  0.5812780000000 1.0
C      1  0.4399760000000  0.4629580000000  0.5851500000000 1.0
C      1  0.4495690000000  0.5393770000000  0.5776570000000 1.0
C      1  0.5233030000000  0.5570620000000  0.5797010000000 1.0
C      1  0.4785840000000  0.5358940000000  0.5830690000000 1.0
C      1  0.5335770000000  0.5350330000000  0.5978950000000 1.0
C      1  0.5414860000000  0.4761260000000  0.5955110000000 1.0
C      1  0.4894430000000  0.4502770000000  0.5931590000000 1.0
C      1  0.4524200000000  0.4899810000000  0.5874420000000 1.0
C      1  0.4750520000000  0.5435380000000  0.4112820000000 1.0
C      1  0.5309500000000  0.5303220000000  0.4081940000000 1.0
C      1  0.5415790000000  0.4759640000000  0.4061220000000 1.0
C      1  0.4913740000000  0.4539450000000  0.4134050000000 1.0
C      1  0.4538210000000  0.4933270000000  0.4201570000000 1.0
C      1  0.4509800000000  0.4329500000000  0.5361700000000 1.0
C      1  0.4227590000000  0.5270740000000  0.5271090000000 1.0
C      1  0.5012930000000  0.5844880000000  0.5330850000000 1.0
C      1  0.5805850000000  0.5258070000000  0.5391270000000 1.0
C      1  0.5501170000000  0.4402850000000  0.5347350000000 1.0
C      1  0.4508290000000  0.4349200000000  0.4729700000000 1.0
C      1  0.4197120000000  0.5264430000000  0.4623770000000 1.0
C      1  0.5052920000000  0.5853380000000  0.4645780000000 1.0
C      1  0.5746410000000  0.5299080000000  0.4639390000000 1.0
C      1  0.5440980000000  0.4332860000000  0.4645030000000 1.0
C      1  0.4497730000000  0.5727560000000  0.5095660000000 1.0
C      1  0.5455590000000  0.5851540000000  0.5103050000000 1.0
C      1  0.5848090000000  0.4756670000000  0.5128140000000 1.0
C      1  0.5089990000000  0.4135520000000  0.5144440000000 1.0
C      1  0.4171620000000  0.4716890000000  0.5159100000000 1.0
C      1  0.4472890000000  0.5702780000000  0.4807430000000 1.0
C      1  0.5524260000000  0.5727760000000  0.4863990000000 1.0
C      1  0.5900550000000  0.4879970000000  0.4876450000000 1.0
C      1  0.5006770000000  0.4119710000000  0.4867040000000 1.0
C      1  0.4148320000000  0.4694410000000  0.4873330000000 1.0
C      1  0.4742620000000  0.4300570000000  0.5161610000000 1.0
C      1  0.4115130000000  0.5086380000000  0.5074020000000 1.0
C      1  0.4835240000000  0.5899460000000  0.5103700000000 1.0
C      1  0.5785960000000  0.5401640000000  0.5146020000000 1.0
C      1  0.5708500000000  0.4486210000000  0.5123390000000 1.0
C      1  0.4637960000000  0.4172840000000  0.4919170000000 1.0
C      1  0.4267050000000  0.5054990000000  0.4827120000000 1.0
C      1  0.4854170000000  0.5745720000000  0.4849860000000 1.0
C      1  0.5677260000000  0.5468370000000  0.4884120000000 1.0
C      1  0.5621170000000  0.4400810000000  0.4861350000000 1.0
C      1  0.4843980000000  0.5210710000000  0.3932910000000 1.0
C      1  0.5127930000000  0.5146350000000  0.3930020000000 1.0
C      1  0.5186940000000  0.4864290000000  0.3895760000000 1.0
C      1  0.4915520000000  0.4736090000000  0.3918030000000 1.0
C      1  0.4702690000000  0.4952060000000  0.3945550000000 1.0
C      1  0.4849170000000  0.5224280000000  0.6099460000000 1.0
C      1  0.5141970000000  0.5163140000000  0.6110320000000 1.0
C      1  0.5170490000000  0.4881220000000  0.6053090000000 1.0
C      1  0.4929260000000  0.4732590000000  0.6116990000000 1.0
C      1  0.4711470000000  0.4949280000000  0.6113910000000 1.0
C      1  0.4746800000000  0.4984980000000  0.4428490000000 1.0
C      1  0.4779160000000  0.5278500000000  0.4471040000000 1.0
C      1  0.5101170000000  0.5261690000000  0.4469960000000 1.0
C      1  0.5331270000000  0.4991760000000  0.4460850000000 1.0
C      1  0.5195870000000  0.4679850000000  0.4437290000000 1.0
C      1  0.4718200000000  0.4666280000000  0.5558860000000 1.0
C      1  0.4900420000000  0.5169840000000  0.5615730000000 1.0
C      1  0.5194260000000  0.5243060000000  0.5587380000000 1.0
C      1  0.5329310000000  0.4964480000000  0.5578010000000 1.0
C      1  0.5105590000000  0.4730180000000  0.5568710000000 1.0
C      1  0.4304160000000  0.5081140000000  0.5472310000000 1.0
C      1  0.4856700000000  0.5679650000000  0.5498530000000 1.0
C      1  0.5625530000000  0.5391600000000  0.5594000000000 1.0
C      1  0.5580940000000  0.4450910000000  0.5619210000000 1.0
C      1  0.4614860000000  0.4272010000000  0.5615490000000 1.0
C      1  0.4114760000000  0.5151890000000  0.4380310000000 1.0
C      1  0.4920280000000  0.5837590000000  0.4400000000000 1.0
C      1  0.5643810000000  0.5405480000000  0.4385420000000 1.0
C      1  0.5516840000000  0.4457060000000  0.4398370000000 1.0
C      1  0.4705600000000  0.4377480000000  0.4530550000000 1.0
C      1  0.5147120000000  0.4180770000000  0.5608220000000 1.0
C      1  0.4219380000000  0.4589150000000  0.5637330000000 1.0
C      1  0.4437040000000  0.5566500000000  0.5560270000000 1.0
C      1  0.5429850000000  0.5635200000000  0.5568720000000 1.0
C      1  0.5802390000000  0.4831830000000  0.5633690000000 1.0
C      1  0.5106010000000  0.4163970000000  0.4375110000000 1.0
C      1  0.4238430000000  0.4594500000000  0.4423670000000 1.0
C      1  0.4344520000000  0.5632820000000  0.4346090000000 1.0
C      1  0.5436910000000  0.5624800000000  0.4389290000000 1.0
C      1  0.5823480000000  0.4889190000000  0.4384880000000 1.0
C      1  0.5148540000000  0.5340000000000  0.4756520000000 1.0
C      1  0.5446700000000  0.4952550000000  0.4739120000000 1.0
C      1  0.5118580000000  0.4628130000000  0.4717180000000 1.0
C      1  0.4702830000000  0.4880550000000  0.4708830000000 1.0
C      1  0.4684820000000  0.5323210000000  0.4769760000000 1.0
C      1  0.5215380000000  0.5351010000000  0.5309650000000 1.0
C      1  0.5468200000000  0.4954160000000  0.5310090000000 1.0
C      1  0.5069680000000  0.4675180000000  0.5270370000000 1.0
C      1  0.4632240000000  0.4745790000000  0.5272620000000 1.0
C      1  0.4799470000000  0.5196780000000  0.5337570000000 1.0
C      1  0.4883150000000  0.4889620000000  0.5715630000000 1.0
C      1  0.5020330000000  0.4926800000000  0.4297710000000 1.0
END
