TITL C-3578200-9634-589 -4.67385327576254e-06 125000 -639.940500427333 0 0 104 (C1) n - 1
REM
REM in /home/bkarasulu/work/CARBON/AIRSS/Generating-Clusters/EDIP-Nigel-Params/with-SteepDescent/Higher-Symm/SD-CG/HFTN-CG
REM
REM
REM
REM
REM
REM ./C.cell (12c818d87b63d06a65506943cc24bca4)
REM
REM compiler GCC version 9.2.1 20190827 (Red Hat 9.2.1-1)
REM options -cpp -mtune=generic -march=x86-64 -g -O0 -fpre-include=/usr/include/finclude/math-vector-fortran.h
REM seed -139273984 -1303010586 -1427114254 -312662951 -566217103 -1227674053 -10712921 -906093421 836925219 367431201 1180355621 -2118449117 1699706066 1133543672 1105512490 -1802902973 -190785540 -1288075742 634433866 798813886 637987109 1429497674 -1606384833 -527647733 1270041105 -100891575 184034211 1323869399 -81115388 882130415 2089050989 651336072 1338284948
REM
CELL 1.54180   50.00000   50.00000   50.00000   90.00000   90.00000   90.00000
LATT -1
SFAC C  
C      1  0.5084410000000  0.5959810000000  0.4746940000000 1.0
C      1  0.5188660000000  0.5932340000000  0.5248910000000 1.0
C      1  0.5374760000000  0.4862240000000  0.5264690000000 1.0
C      1  0.5373200000000  0.4890670000000  0.4704550000000 1.0
C      1  0.4488010000000  0.4725330000000  0.5632310000000 1.0
C      1  0.4526410000000  0.4735950000000  0.4402250000000 1.0
C      1  0.5546500000000  0.4500820000000  0.4503100000000 1.0
C      1  0.5505780000000  0.4495800000000  0.5478370000000 1.0
C      1  0.5768260000000  0.5010250000000  0.4542200000000 1.0
C      1  0.5752250000000  0.4966840000000  0.5466920000000 1.0
C      1  0.5081800000000  0.5223740000000  0.5407870000000 1.0
C      1  0.5071930000000  0.5207950000000  0.4563800000000 1.0
C      1  0.4911870000000  0.4483190000000  0.5771630000000 1.0
C      1  0.4949760000000  0.4489960000000  0.4250900000000 1.0
C      1  0.5286980000000  0.4713100000000  0.5801240000000 1.0
C      1  0.5313610000000  0.4722520000000  0.4160980000000 1.0
C      1  0.5341500000000  0.4951740000000  0.4334230000000 1.0
C      1  0.5294870000000  0.4957990000000  0.5632860000000 1.0
C      1  0.5012790000000  0.4729700000000  0.5888220000000 1.0
C      1  0.5028750000000  0.4733260000000  0.4111750000000 1.0
C      1  0.5328470000000  0.4476770000000  0.4314030000000 1.0
C      1  0.5274350000000  0.4464500000000  0.5647620000000 1.0
C      1  0.4650470000000  0.4946540000000  0.5246390000000 1.0
C      1  0.4549130000000  0.4970770000000  0.4768890000000 1.0
C      1  0.5095810000000  0.4768990000000  0.5216530000000 1.0
C      1  0.5090810000000  0.4795800000000  0.4722690000000 1.0
C      1  0.5703700000000  0.4739580000000  0.4468800000000 1.0
C      1  0.5656960000000  0.4719140000000  0.5556560000000 1.0
C      1  0.4653360000000  0.5397420000000  0.4482180000000 1.0
C      1  0.4657110000000  0.5380260000000  0.5520130000000 1.0
C      1  0.4886810000000  0.4976140000000  0.5799720000000 1.0
C      1  0.4916430000000  0.4983000000000  0.4216260000000 1.0
C      1  0.5055960000000  0.5242860000000  0.4172390000000 1.0
C      1  0.5040860000000  0.5229640000000  0.5826220000000 1.0
C      1  0.5107220000000  0.5523580000000  0.4507320000000 1.0
C      1  0.5093570000000  0.5516770000000  0.5496660000000 1.0
C      1  0.5544470000000  0.4317210000000  0.4735540000000 1.0
C      1  0.5570500000000  0.4345130000000  0.5244230000000 1.0
C      1  0.4396810000000  0.4880210000000  0.5381620000000 1.0
C      1  0.4272550000000  0.4838620000000  0.4540680000000 1.0
C      1  0.5041590000000  0.5684010000000  0.4739910000000 1.0
C      1  0.5024460000000  0.5692280000000  0.5261340000000 1.0
C      1  0.4967560000000  0.4472970000000  0.5193440000000 1.0
C      1  0.5025300000000  0.4508190000000  0.4766400000000 1.0
C      1  0.4765290000000  0.5212370000000  0.4714070000000 1.0
C      1  0.4783340000000  0.5213350000000  0.5280510000000 1.0
C      1  0.5435020000000  0.5197900000000  0.4223710000000 1.0
C      1  0.5415160000000  0.5202950000000  0.5742280000000 1.0
C      1  0.5333280000000  0.5175670000000  0.5240570000000 1.0
C      1  0.5327340000000  0.5199970000000  0.4731800000000 1.0
C      1  0.4898960000000  0.5497220000000  0.4292150000000 1.0
C      1  0.4890080000000  0.5477000000000  0.5709810000000 1.0
C      1  0.4646070000000  0.6071960000000  0.4861110000000 1.0
C      1  0.4752950000000  0.5844060000000  0.5287770000000 1.0
C      1  0.5002900000000  0.4074100000000  0.4926830000000 1.0
C      1  0.5029400000000  0.4174930000000  0.5186500000000 1.0
C      1  0.5639970000000  0.5225060000000  0.5551690000000 1.0
C      1  0.5644970000000  0.5258710000000  0.4421450000000 1.0
C      1  0.4241570000000  0.5366380000000  0.4698930000000 1.0
C      1  0.4270450000000  0.5370840000000  0.5253800000000 1.0
C      1  0.4463170000000  0.5210970000000  0.5675300000000 1.0
C      1  0.4486870000000  0.5211660000000  0.4319530000000 1.0
C      1  0.4593160000000  0.4963310000000  0.5785040000000 1.0
C      1  0.4630190000000  0.4964750000000  0.4254490000000 1.0
C      1  0.4263040000000  0.5148410000000  0.5460830000000 1.0
C      1  0.4254450000000  0.5144360000000  0.4485490000000 1.0
C      1  0.5520560000000  0.5422210000000  0.4637340000000 1.0
C      1  0.5618510000000  0.5414490000000  0.5329610000000 1.0
C      1  0.4543300000000  0.4342310000000  0.4841960000000 1.0
C      1  0.4411120000000  0.4242310000000  0.5252020000000 1.0
C      1  0.4678800000000  0.4496130000000  0.5605100000000 1.0
C      1  0.4717200000000  0.4506150000000  0.4419800000000 1.0
C      1  0.4643860000000  0.4272870000000  0.5421320000000 1.0
C      1  0.4688330000000  0.4276300000000  0.4596670000000 1.0
C      1  0.4941230000000  0.4147570000000  0.4665410000000 1.0
C      1  0.4851590000000  0.4086200000000  0.5383160000000 1.0
C      1  0.4460070000000  0.5561560000000  0.4663050000000 1.0
C      1  0.4485690000000  0.5573980000000  0.5354020000000 1.0
C      1  0.4919370000000  0.6127260000000  0.4900860000000 1.0
C      1  0.4994290000000  0.6126200000000  0.5180090000000 1.0
C      1  0.5938350000000  0.5066200000000  0.4758950000000 1.0
C      1  0.5915480000000  0.4950300000000  0.5231020000000 1.0
C      1  0.4763940000000  0.4528550000000  0.4957410000000 1.0
C      1  0.4768910000000  0.5377130000000  0.4988990000000 1.0
C      1  0.5470080000000  0.4731400000000  0.4977950000000 1.0
C      1  0.5273000000000  0.4463370000000  0.4956990000000 1.0
C      1  0.4527350000000  0.5571440000000  0.4965790000000 1.0
C      1  0.4229790000000  0.4449560000000  0.5240810000000 1.0
C      1  0.4234440000000  0.4720820000000  0.5194090000000 1.0
C      1  0.5029500000000  0.5525390000000  0.4992870000000 1.0
C      1  0.5887830000000  0.5142450000000  0.5023100000000 1.0
C      1  0.4594480000000  0.5857650000000  0.5038000000000 1.0
C      1  0.5770620000000  0.4627670000000  0.4963440000000 1.0
C      1  0.4997820000000  0.4927690000000  0.4971850000000 1.0
C      1  0.5697210000000  0.4348960000000  0.4985660000000 1.0
C      1  0.4218000000000  0.4846360000000  0.4923430000000 1.0
C      1  0.4706600000000  0.4833990000000  0.4983050000000 1.0
C      1  0.5766520000000  0.5393750000000  0.5080760000000 1.0
C      1  0.4455760000000  0.4123940000000  0.5001220000000 1.0
C      1  0.4025680000000  0.5055560000000  0.4959010000000 1.0
C      1  0.4189300000000  0.5281670000000  0.4977040000000 1.0
C      1  0.5206110000000  0.5270420000000  0.4987220000000 1.0
C      1  0.5686690000000  0.5519750000000  0.4844350000000 1.0
C      1  0.5977800000000  0.4693220000000  0.5145450000000 1.0
END
