TITL C-3578204-4308-327 -9.00251984378159e-06 125000 -830.895791574948 0 0 132 (C1) n - 1
REM
REM in /home/bkarasulu/work/CARBON/AIRSS/Generating-Clusters/EDIP-Nigel-Params/with-SteepDescent/Higher-Symm/SD-CG/HFTN-CG
REM
REM
REM
REM
REM
REM ./C.cell (12c818d87b63d06a65506943cc24bca4)
REM
REM compiler GCC version 9.2.1 20190827 (Red Hat 9.2.1-1)
REM options -cpp -mtune=generic -march=x86-64 -g -O0 -fpre-include=/usr/include/finclude/math-vector-fortran.h
REM seed 1173476805 -563250103 1515037925 79229289 206194204 -2035693864 -139536030 1171144647 -1183904483 1996674889 1766950807 570212482 1082785183 1833355455 1580955029 -1494456651 -1426696842 -1471988751 700272857 1224720868 -355796617 -100210155 1119547518 889952810 729255035 -195327493 -501081517 657072551 -1071022461 -1993019882 -1682049146 1562170294 1345631791
REM
CELL 1.54180   50.00000   50.00000   50.00000   90.00000   90.00000   90.00000
LATT -1
SFAC C  
C      1  0.4733650000000  0.5904600000000  0.5063120000000 1.0
C      1  0.4798110000000  0.4086800000000  0.4793070000000 1.0
C      1  0.5066920000000  0.5914750000000  0.4729510000000 1.0
C      1  0.5245360000000  0.4107590000000  0.4930840000000 1.0
C      1  0.5197810000000  0.6013190000000  0.5215230000000 1.0
C      1  0.4912970000000  0.3989200000000  0.5282860000000 1.0
C      1  0.5639980000000  0.5459970000000  0.5527140000000 1.0
C      1  0.4891110000000  0.4565000000000  0.5812100000000 1.0
C      1  0.4256150000000  0.5425870000000  0.5277420000000 1.0
C      1  0.4355210000000  0.4559680000000  0.4478450000000 1.0
C      1  0.5111700000000  0.5438600000000  0.4204830000000 1.0
C      1  0.5763480000000  0.4572190000000  0.4712270000000 1.0
C      1  0.4147200000000  0.4758140000000  0.4564840000000 1.0
C      1  0.4931420000000  0.5246720000000  0.4052380000000 1.0
C      1  0.5783240000000  0.4785500000000  0.4505640000000 1.0
C      1  0.5848620000000  0.5259400000000  0.5445620000000 1.0
C      1  0.5067850000000  0.4775450000000  0.5953260000000 1.0
C      1  0.4226560000000  0.5224720000000  0.5495800000000 1.0
C      1  0.4824120000000  0.5253270000000  0.4486450000000 1.0
C      1  0.5326320000000  0.4736830000000  0.4610080000000 1.0
C      1  0.5546340000000  0.5189540000000  0.5122220000000 1.0
C      1  0.5180760000000  0.4759920000000  0.5534410000000 1.0
C      1  0.4648440000000  0.5240140000000  0.5376340000000 1.0
C      1  0.4478410000000  0.4746310000000  0.4865100000000 1.0
C      1  0.4109700000000  0.5032960000000  0.5044890000000 1.0
C      1  0.4488190000000  0.4967430000000  0.4238700000000 1.0
C      1  0.5379040000000  0.5033880000000  0.4187320000000 1.0
C      1  0.5922140000000  0.4962580000000  0.4969580000000 1.0
C      1  0.5508120000000  0.5049920000000  0.5760580000000 1.0
C      1  0.4617580000000  0.4966970000000  0.5789150000000 1.0
C      1  0.5098560000000  0.5051800000000  0.5646540000000 1.0
C      1  0.4496850000000  0.4948760000000  0.5372010000000 1.0
C      1  0.4400440000000  0.5032160000000  0.4723130000000 1.0
C      1  0.4901260000000  0.4969000000000  0.4352250000000 1.0
C      1  0.5491580000000  0.5019850000000  0.4609030000000 1.0
C      1  0.5623410000000  0.4919680000000  0.5284500000000 1.0
C      1  0.4807920000000  0.4152820000000  0.5523770000000 1.0
C      1  0.4445150000000  0.5844940000000  0.5094870000000 1.0
C      1  0.4622120000000  0.4140770000000  0.4554480000000 1.0
C      1  0.5187880000000  0.5846680000000  0.4465240000000 1.0
C      1  0.5531260000000  0.4178010000000  0.4895850000000 1.0
C      1  0.5351670000000  0.5861360000000  0.5432080000000 1.0
C      1  0.4939420000000  0.5179070000000  0.5426450000000 1.0
C      1  0.4608500000000  0.4806420000000  0.5135680000000 1.0
C      1  0.4619350000000  0.5237840000000  0.4718730000000 1.0
C      1  0.5028830000000  0.4778050000000  0.4540230000000 1.0
C      1  0.5420710000000  0.5159340000000  0.4852880000000 1.0
C      1  0.5370430000000  0.4776640000000  0.5309990000000 1.0
C      1  0.4786020000000  0.6009050000000  0.4780790000000 1.0
C      1  0.5078400000000  0.3994780000000  0.4704190000000 1.0
C      1  0.5281420000000  0.6006780000000  0.4922100000000 1.0
C      1  0.5210870000000  0.3980440000000  0.5205250000000 1.0
C      1  0.4901120000000  0.6015830000000  0.5283990000000 1.0
C      1  0.4699790000000  0.3979440000000  0.5060330000000 1.0
C      1  0.4641220000000  0.5459610000000  0.5747440000000 1.0
C      1  0.4158290000000  0.4531210000000  0.5060840000000 1.0
C      1  0.4506000000000  0.5476190000000  0.4301240000000 1.0
C      1  0.5344550000000  0.4548920000000  0.4235520000000 1.0
C      1  0.5836570000000  0.5461240000000  0.4949510000000 1.0
C      1  0.5505630000000  0.4531640000000  0.5705470000000 1.0
C      1  0.4265640000000  0.5047470000000  0.4431650000000 1.0
C      1  0.5099390000000  0.4959050000000  0.4091260000000 1.0
C      1  0.5875710000000  0.5047020000000  0.4680250000000 1.0
C      1  0.5741170000000  0.4999460000000  0.5568970000000 1.0
C      1  0.4891700000000  0.5051900000000  0.5896990000000 1.0
C      1  0.4165950000000  0.4948960000000  0.5332330000000 1.0
C      1  0.4721450000000  0.4597180000000  0.4710890000000 1.0
C      1  0.5079490000000  0.5382590000000  0.4606370000000 1.0
C      1  0.5279540000000  0.4630770000000  0.4899440000000 1.0
C      1  0.5347620000000  0.5360780000000  0.5276660000000 1.0
C      1  0.4936420000000  0.4627840000000  0.5407390000000 1.0
C      1  0.4646930000000  0.5382870000000  0.5088150000000 1.0
C      1  0.4476420000000  0.4153820000000  0.5153380000000 1.0
C      1  0.4588090000000  0.5855620000000  0.4620130000000 1.0
C      1  0.5115410000000  0.4153750000000  0.4453140000000 1.0
C      1  0.5504980000000  0.5825040000000  0.4850210000000 1.0
C      1  0.5395820000000  0.4159150000000  0.5369110000000 1.0
C      1  0.4870980000000  0.5843640000000  0.5524050000000 1.0
C      1  0.5111790000000  0.5204100000000  0.5205750000000 1.0
C      1  0.4903650000000  0.4818690000000  0.5180470000000 1.0
C      1  0.4774800000000  0.5157500000000  0.4938430000000 1.0
C      1  0.4898040000000  0.4821790000000  0.4790950000000 1.0
C      1  0.5138020000000  0.5187300000000  0.4818660000000 1.0
C      1  0.5216970000000  0.4848280000000  0.5086220000000 1.0
C      1  0.4843000000000  0.4370860000000  0.4865700000000 1.0
C      1  0.5042330000000  0.5621800000000  0.4823070000000 1.0
C      1  0.5110890000000  0.4383400000000  0.4979550000000 1.0
C      1  0.5232570000000  0.5621870000000  0.5130950000000 1.0
C      1  0.5020090000000  0.4365400000000  0.5272230000000 1.0
C      1  0.4847880000000  0.5621830000000  0.5069940000000 1.0
C      1  0.4390950000000  0.4314280000000  0.4647080000000 1.0
C      1  0.4984580000000  0.5690720000000  0.4310030000000 1.0
C      1  0.5555930000000  0.4366620000000  0.4674520000000 1.0
C      1  0.5604560000000  0.5706950000000  0.5349530000000 1.0
C      1  0.5017180000000  0.4312570000000  0.5700840000000 1.0
C      1  0.4414970000000  0.5667350000000  0.5331740000000 1.0
C      1  0.4573500000000  0.4683510000000  0.4311210000000 1.0
C      1  0.5372650000000  0.5308510000000  0.4304610000000 1.0
C      1  0.5826130000000  0.4675790000000  0.4986000000000 1.0
C      1  0.5414860000000  0.5332840000000  0.5702740000000 1.0
C      1  0.4629620000000  0.4684500000000  0.5688010000000 1.0
C      1  0.4219060000000  0.5311290000000  0.5006240000000 1.0
C      1  0.5353210000000  0.4340130000000  0.4447640000000 1.0
C      1  0.5660650000000  0.5675610000000  0.5053220000000 1.0
C      1  0.5304580000000  0.4336230000000  0.5596760000000 1.0
C      1  0.4644120000000  0.5653950000000  0.5526680000000 1.0
C      1  0.4348480000000  0.4334200000000  0.4950890000000 1.0
C      1  0.4699840000000  0.5670050000000  0.4417530000000 1.0
C      1  0.4279120000000  0.5373480000000  0.4474710000000 1.0
C      1  0.5075650000000  0.4638250000000  0.4123490000000 1.0
C      1  0.5781370000000  0.5345390000000  0.4674310000000 1.0
C      1  0.5731560000000  0.4618090000000  0.5513010000000 1.0
C      1  0.4904570000000  0.5373010000000  0.5870180000000 1.0
C      1  0.4203120000000  0.4630170000000  0.5343920000000 1.0
C      1  0.5136900000000  0.5745550000000  0.5613630000000 1.0
C      1  0.4538870000000  0.4259990000000  0.5426450000000 1.0
C      1  0.4376710000000  0.5750460000000  0.4810750000000 1.0
C      1  0.4840000000000  0.4250320000000  0.4358010000000 1.0
C      1  0.5454270000000  0.5720420000000  0.4573250000000 1.0
C      1  0.5605700000000  0.4258720000000  0.5176690000000 1.0
C      1  0.5927790000000  0.5235760000000  0.5139900000000 1.0
C      1  0.5384050000000  0.4777670000000  0.5866970000000 1.0
C      1  0.4458320000000  0.5218220000000  0.5717160000000 1.0
C      1  0.4086950000000  0.4770140000000  0.4881520000000 1.0
C      1  0.4625750000000  0.5237000000000  0.4147090000000 1.0
C      1  0.5539420000000  0.4784410000000  0.4260240000000 1.0
C      1  0.4822300000000  0.4526280000000  0.4246880000000 1.0
C      1  0.5550030000000  0.5449120000000  0.4503850000000 1.0
C      1  0.5758360000000  0.4506410000000  0.5227470000000 1.0
C      1  0.5155120000000  0.5481850000000  0.5741790000000 1.0
C      1  0.4445930000000  0.4528200000000  0.5496820000000 1.0
C      1  0.4258880000000  0.5480860000000  0.4760820000000 1.0
END
