TITL C-3578207-9274-840 1.21944484651659e-06 125000 -767.472901061206 0 0 125 (C1) n - 1
REM
REM in /home/bkarasulu/work/CARBON/AIRSS/Generating-Clusters/EDIP-Nigel-Params/with-SteepDescent/Higher-Symm/SD-CG/HFTN-CG
REM
REM
REM
REM
REM
REM ./C.cell (12c818d87b63d06a65506943cc24bca4)
REM
REM compiler GCC version 9.2.1 20190827 (Red Hat 9.2.1-1)
REM options -cpp -mtune=generic -march=x86-64 -g -O0 -fpre-include=/usr/include/finclude/math-vector-fortran.h
REM seed -36276457 796146463 1612684095 -1141731292 1607232263 -1661827269 1733457525 -947707642 1306460590 -583072491 1556359091 -143834744 754070651 1708651403 -1991173192 1574866778 -573987811 -2118067045 1834539972 -487542073 1174329526 -285031893 562635744 -981121576 -1118376026 1373501457 2020229279 -432572181 -2005550188 -1988106076 2118998015 -934744837 1019753468
REM
CELL 1.54180   50.00000   50.00000   50.00000   90.00000   90.00000   90.00000
LATT -1
SFAC C  
C      1  0.5062070000000  0.5515880000000  0.5751150000000 1.0
C      1  0.4642150000000  0.5744350000000  0.5727880000000 1.0
C      1  0.4303750000000  0.4119730000000  0.5104040000000 1.0
C      1  0.5985630000000  0.4997050000000  0.5105280000000 1.0
C      1  0.4259570000000  0.4665920000000  0.4530870000000 1.0
C      1  0.4175430000000  0.5424730000000  0.5246340000000 1.0
C      1  0.4554290000000  0.4753400000000  0.4911250000000 1.0
C      1  0.4754170000000  0.4962320000000  0.4049030000000 1.0
C      1  0.5364780000000  0.5407860000000  0.5753200000000 1.0
C      1  0.5744410000000  0.4614090000000  0.4979760000000 1.0
C      1  0.4483090000000  0.5333910000000  0.4245150000000 1.0
C      1  0.4823760000000  0.4263920000000  0.4906860000000 1.0
C      1  0.5805770000000  0.5556240000000  0.4671050000000 1.0
C      1  0.4253520000000  0.4941190000000  0.5602920000000 1.0
C      1  0.4282740000000  0.4449070000000  0.5464090000000 1.0
C      1  0.5621510000000  0.4439380000000  0.4523940000000 1.0
C      1  0.5359130000000  0.4462070000000  0.5335340000000 1.0
C      1  0.5544160000000  0.4969160000000  0.5900840000000 1.0
C      1  0.4414650000000  0.4607180000000  0.5688270000000 1.0
C      1  0.5189200000000  0.4633050000000  0.4306570000000 1.0
C      1  0.5050730000000  0.4455440000000  0.4890610000000 1.0
C      1  0.4349490000000  0.4861200000000  0.4328340000000 1.0
C      1  0.5176410000000  0.5151230000000  0.4965550000000 1.0
C      1  0.4726420000000  0.5261680000000  0.4089230000000 1.0
C      1  0.5827900000000  0.4557320000000  0.5263070000000 1.0
C      1  0.4752110000000  0.5046330000000  0.4640060000000 1.0
C      1  0.5055030000000  0.5206720000000  0.5437470000000 1.0
C      1  0.5369280000000  0.5691280000000  0.5220840000000 1.0
C      1  0.4361150000000  0.5211800000000  0.5649130000000 1.0
C      1  0.4701830000000  0.4229730000000  0.5368960000000 1.0
C      1  0.5331860000000  0.4082510000000  0.4702180000000 1.0
C      1  0.4399530000000  0.5308660000000  0.5068510000000 1.0
C      1  0.4686750000000  0.5223980000000  0.5153730000000 1.0
C      1  0.4404380000000  0.4411840000000  0.4527450000000 1.0
C      1  0.4916420000000  0.5497760000000  0.4166570000000 1.0
C      1  0.5530280000000  0.4501770000000  0.4805760000000 1.0
C      1  0.5554910000000  0.5259010000000  0.4381120000000 1.0
C      1  0.4879520000000  0.4255920000000  0.4449750000000 1.0
C      1  0.4901700000000  0.5774520000000  0.5342120000000 1.0
C      1  0.5764090000000  0.4958510000000  0.4601400000000 1.0
C      1  0.4231620000000  0.5231990000000  0.4664210000000 1.0
C      1  0.5962330000000  0.5301350000000  0.5162710000000 1.0
C      1  0.5591610000000  0.5529080000000  0.4469440000000 1.0
C      1  0.5677410000000  0.5720830000000  0.5257830000000 1.0
C      1  0.4805150000000  0.4727280000000  0.4419110000000 1.0
C      1  0.5465450000000  0.4705770000000  0.5752500000000 1.0
C      1  0.4565940000000  0.5201460000000  0.5859990000000 1.0
C      1  0.5016380000000  0.4858480000000  0.3968770000000 1.0
C      1  0.4586240000000  0.4454570000000  0.4927680000000 1.0
C      1  0.5707250000000  0.4906210000000  0.5500970000000 1.0
C      1  0.4622740000000  0.5802440000000  0.5219900000000 1.0
C      1  0.4410950000000  0.4210460000000  0.5351880000000 1.0
C      1  0.5306780000000  0.4894660000000  0.3997770000000 1.0
C      1  0.5143010000000  0.5884300000000  0.5202720000000 1.0
C      1  0.5355080000000  0.4734960000000  0.5143080000000 1.0
C      1  0.4753430000000  0.5167650000000  0.5463600000000 1.0
C      1  0.5192280000000  0.4961160000000  0.5539590000000 1.0
C      1  0.5207690000000  0.5550640000000  0.4213490000000 1.0
C      1  0.5782420000000  0.5462950000000  0.5366600000000 1.0
C      1  0.5345000000000  0.4214430000000  0.5174900000000 1.0
C      1  0.5747810000000  0.5110320000000  0.5721920000000 1.0
C      1  0.4907830000000  0.5743820000000  0.5639420000000 1.0
C      1  0.4986230000000  0.4758430000000  0.5428390000000 1.0
C      1  0.5050140000000  0.5043610000000  0.5890500000000 1.0
C      1  0.4489510000000  0.5704350000000  0.5494010000000 1.0
C      1  0.5438110000000  0.5048540000000  0.4945550000000 1.0
C      1  0.4668890000000  0.4453130000000  0.4406100000000 1.0
C      1  0.4926960000000  0.5493280000000  0.4787730000000 1.0
C      1  0.5436510000000  0.4925210000000  0.5366770000000 1.0
C      1  0.5152290000000  0.4340090000000  0.4346130000000 1.0
C      1  0.4297040000000  0.5472160000000  0.5507220000000 1.0
C      1  0.4318280000000  0.4322780000000  0.4896440000000 1.0
C      1  0.4929750000000  0.4676160000000  0.5933700000000 1.0
C      1  0.5124020000000  0.4060500000000  0.5236700000000 1.0
C      1  0.4259260000000  0.4768940000000  0.4816720000000 1.0
C      1  0.4131910000000  0.4896320000000  0.5348110000000 1.0
C      1  0.5123160000000  0.5327570000000  0.5181200000000 1.0
C      1  0.4644030000000  0.4906480000000  0.5801600000000 1.0
C      1  0.4886710000000  0.5909790000000  0.4498010000000 1.0
C      1  0.4647330000000  0.5918130000000  0.4646310000000 1.0
C      1  0.5470000000000  0.5575660000000  0.4956010000000 1.0
C      1  0.4773470000000  0.4961530000000  0.4958650000000 1.0
C      1  0.4619300000000  0.5548660000000  0.4406700000000 1.0
C      1  0.4668920000000  0.5385180000000  0.4655680000000 1.0
C      1  0.5664260000000  0.4683210000000  0.4353420000000 1.0
C      1  0.5640950000000  0.5365350000000  0.5619280000000 1.0
C      1  0.4074310000000  0.5115520000000  0.5153010000000 1.0
C      1  0.5709940000000  0.5743560000000  0.4876870000000 1.0
C      1  0.5320000000000  0.4303950000000  0.4895850000000 1.0
C      1  0.5872780000000  0.4848440000000  0.4870140000000 1.0
C      1  0.5321660000000  0.5159430000000  0.5913660000000 1.0
C      1  0.4137250000000  0.4617510000000  0.5270640000000 1.0
C      1  0.5191070000000  0.4589780000000  0.5801310000000 1.0
C      1  0.4451210000000  0.5777790000000  0.4495220000000 1.0
C      1  0.4866410000000  0.5284180000000  0.5824370000000 1.0
C      1  0.5062720000000  0.5766780000000  0.4681900000000 1.0
C      1  0.5846390000000  0.5282300000000  0.4794870000000 1.0
C      1  0.4698630000000  0.4480490000000  0.5803380000000 1.0
C      1  0.4715070000000  0.5907620000000  0.4942340000000 1.0
C      1  0.5111520000000  0.5121600000000  0.4238070000000 1.0
C      1  0.5621300000000  0.4493080000000  0.5474560000000 1.0
C      1  0.4848570000000  0.4324420000000  0.5600350000000 1.0
C      1  0.4377440000000  0.5130370000000  0.4427070000000 1.0
C      1  0.4858970000000  0.4105180000000  0.5161430000000 1.0
C      1  0.5345600000000  0.5292590000000  0.4185150000000 1.0
C      1  0.5399920000000  0.4227700000000  0.4464990000000 1.0
C      1  0.4128610000000  0.4549080000000  0.4979990000000 1.0
C      1  0.5096240000000  0.4491280000000  0.5541690000000 1.0
C      1  0.5445570000000  0.4687350000000  0.4155230000000 1.0
C      1  0.4830510000000  0.4087850000000  0.4671180000000 1.0
C      1  0.4880100000000  0.5470440000000  0.5096880000000 1.0
C      1  0.5298930000000  0.4732960000000  0.4589940000000 1.0
C      1  0.5016380000000  0.5934900000000  0.4934400000000 1.0
C      1  0.5015180000000  0.4704280000000  0.4695040000000 1.0
C      1  0.5609310000000  0.5297200000000  0.4998360000000 1.0
C      1  0.4716370000000  0.4873200000000  0.5508540000000 1.0
C      1  0.5343530000000  0.5688660000000  0.4440840000000 1.0
C      1  0.5955010000000  0.4819880000000  0.5341510000000 1.0
C      1  0.5457330000000  0.4997340000000  0.4643960000000 1.0
C      1  0.5030610000000  0.4766640000000  0.5121710000000 1.0
C      1  0.5127230000000  0.5284140000000  0.4722660000000 1.0
C      1  0.4129940000000  0.5033520000000  0.4859630000000 1.0
C      1  0.4405950000000  0.5418820000000  0.4801840000000 1.0
C      1  0.5041690000000  0.5081640000000  0.4533780000000 1.0
C      1  0.4545690000000  0.4780990000000  0.4132970000000 1.0
END
