TITL C-3577087-600-620 -2.87174911723132e-06 125000 -799.984265125402 0 0 128 (C1) n - 1
REM
REM in /home/bkarasulu/work/CARBON/AIRSS/Generating-Clusters/EDIP-Nigel-Params/with-SteepDescent/Higher-Symm/SD-CG/HFTN-CG
REM
REM
REM
REM
REM
REM ./C.cell (12c818d87b63d06a65506943cc24bca4)
REM
REM compiler GCC version 9.2.1 20190827 (Red Hat 9.2.1-1)
REM options -cpp -mtune=generic -march=x86-64 -g -O0 -fpre-include=/usr/include/finclude/math-vector-fortran.h
REM seed -986827835 1898313940 1499023757 -1243511049 426979916 -1382927088 1050992375 -1996021458 1103942694 -1730032846 -1446590791 1484084765 2146832386 -1508256613 -1732245033 -1539888057 1001608911 -2123618883 -210839422 1507451003 536164617 -709819078 894883499 1172311404 -529128813 -660141657 -1477544687 1079734924 -729437868 437077402 1865340478 -145619345 1757773530
REM
CELL 1.54180   50.00000   50.00000   50.00000   90.00000   90.00000   90.00000
LATT -1
SFAC C  
C      1  0.4106320000000  0.5418200000000  0.4587240000000 1.0
C      1  0.4760240000000  0.3974080000000  0.5296560000000 1.0
C      1  0.5336520000000  0.4754330000000  0.4248220000000 1.0
C      1  0.5141540000000  0.4865070000000  0.4440530000000 1.0
C      1  0.5176680000000  0.5999490000000  0.4736020000000 1.0
C      1  0.5826170000000  0.5254660000000  0.4974070000000 1.0
C      1  0.4903100000000  0.4795560000000  0.4853610000000 1.0
C      1  0.5240800000000  0.4587800000000  0.5239940000000 1.0
C      1  0.4914950000000  0.4301540000000  0.4375080000000 1.0
C      1  0.5545700000000  0.4603050000000  0.4412300000000 1.0
C      1  0.4905040000000  0.4642000000000  0.4059900000000 1.0
C      1  0.4540870000000  0.5708170000000  0.5238410000000 1.0
C      1  0.4346940000000  0.5392920000000  0.4893200000000 1.0
C      1  0.4697200000000  0.5708980000000  0.5493280000000 1.0
C      1  0.4708270000000  0.5420840000000  0.5528150000000 1.0
C      1  0.5283130000000  0.5304070000000  0.4614090000000 1.0
C      1  0.5545760000000  0.5678720000000  0.4805260000000 1.0
C      1  0.5382820000000  0.5151450000000  0.5769720000000 1.0
C      1  0.4135300000000  0.4952560000000  0.4989730000000 1.0
C      1  0.5211170000000  0.4075340000000  0.5458390000000 1.0
C      1  0.5456700000000  0.5608630000000  0.5551200000000 1.0
C      1  0.5486360000000  0.4860190000000  0.5825410000000 1.0
C      1  0.5250130000000  0.5251080000000  0.4911480000000 1.0
C      1  0.5915850000000  0.4831640000000  0.5228750000000 1.0
C      1  0.5117000000000  0.4431280000000  0.4669860000000 1.0
C      1  0.5443860000000  0.4201670000000  0.5324950000000 1.0
C      1  0.4353170000000  0.5096710000000  0.4832260000000 1.0
C      1  0.4436390000000  0.5434640000000  0.5176820000000 1.0
C      1  0.4978060000000  0.4440040000000  0.5216480000000 1.0
C      1  0.5187250000000  0.5718670000000  0.4342180000000 1.0
C      1  0.4410010000000  0.4348250000000  0.5301350000000 1.0
C      1  0.4249760000000  0.5232270000000  0.4422260000000 1.0
C      1  0.5735430000000  0.4968040000000  0.5422570000000 1.0
C      1  0.5409950000000  0.4352390000000  0.4524120000000 1.0
C      1  0.5308930000000  0.4657930000000  0.5918740000000 1.0
C      1  0.5343130000000  0.5011890000000  0.5041100000000 1.0
C      1  0.4152720000000  0.4474680000000  0.5218160000000 1.0
C      1  0.5690800000000  0.5295670000000  0.4477080000000 1.0
C      1  0.5882280000000  0.4708230000000  0.4780320000000 1.0
C      1  0.4539740000000  0.4534250000000  0.4839770000000 1.0
C      1  0.4876640000000  0.4935880000000  0.4093620000000 1.0
C      1  0.4663610000000  0.4555140000000  0.5600600000000 1.0
C      1  0.4693370000000  0.4711630000000  0.4668060000000 1.0
C      1  0.5047510000000  0.3897080000000  0.5239120000000 1.0
C      1  0.5114770000000  0.5386290000000  0.5381090000000 1.0
C      1  0.4774430000000  0.4922930000000  0.5995300000000 1.0
C      1  0.5837390000000  0.4543270000000  0.5218820000000 1.0
C      1  0.5264860000000  0.5138150000000  0.5488310000000 1.0
C      1  0.4818740000000  0.5210360000000  0.4619280000000 1.0
C      1  0.4630990000000  0.5594400000000  0.4388120000000 1.0
C      1  0.5823070000000  0.5249970000000  0.5509620000000 1.0
C      1  0.4203570000000  0.5670860000000  0.4665790000000 1.0
C      1  0.5905510000000  0.4954480000000  0.4968120000000 1.0
C      1  0.5406950000000  0.4795580000000  0.4832460000000 1.0
C      1  0.5740230000000  0.5026340000000  0.4498820000000 1.0
C      1  0.4426660000000  0.5109070000000  0.5660680000000 1.0
C      1  0.5142340000000  0.4733940000000  0.4693410000000 1.0
C      1  0.4842890000000  0.5082470000000  0.4905300000000 1.0
C      1  0.4733370000000  0.4470750000000  0.4221830000000 1.0
C      1  0.5042440000000  0.5345530000000  0.4127120000000 1.0
C      1  0.5184480000000  0.5684430000000  0.5618470000000 1.0
C      1  0.5159810000000  0.5573870000000  0.4619630000000 1.0
C      1  0.4193360000000  0.5002690000000  0.5271470000000 1.0
C      1  0.4567730000000  0.4974850000000  0.4581990000000 1.0
C      1  0.5434230000000  0.4112770000000  0.5039670000000 1.0
C      1  0.4656050000000  0.5139420000000  0.5857630000000 1.0
C      1  0.4993480000000  0.4920680000000  0.5675580000000 1.0
C      1  0.5167750000000  0.5475610000000  0.5086430000000 1.0
C      1  0.4234970000000  0.4891310000000  0.5719350000000 1.0
C      1  0.5277000000000  0.5508780000000  0.4156850000000 1.0
C      1  0.5541390000000  0.4330620000000  0.4860950000000 1.0
C      1  0.5387180000000  0.5021360000000  0.4103840000000 1.0
C      1  0.4436460000000  0.4371340000000  0.5595070000000 1.0
C      1  0.4483060000000  0.5713470000000  0.4621920000000 1.0
C      1  0.5458080000000  0.5284940000000  0.4263790000000 1.0
C      1  0.5069030000000  0.5155780000000  0.4441220000000 1.0
C      1  0.5651170000000  0.4751780000000  0.5610520000000 1.0
C      1  0.4513130000000  0.5310130000000  0.4311430000000 1.0
C      1  0.4976630000000  0.5802660000000  0.5448410000000 1.0
C      1  0.4749800000000  0.5795830000000  0.5043940000000 1.0
C      1  0.4916210000000  0.4436870000000  0.5699900000000 1.0
C      1  0.4261290000000  0.4525960000000  0.4715320000000 1.0
C      1  0.5688380000000  0.5415000000000  0.4750870000000 1.0
C      1  0.4352890000000  0.5221880000000  0.5376130000000 1.0
C      1  0.5108460000000  0.5094330000000  0.4005320000000 1.0
C      1  0.5647770000000  0.4787110000000  0.4619990000000 1.0
C      1  0.4681430000000  0.4263370000000  0.4900710000000 1.0
C      1  0.4899600000000  0.5945460000000  0.4607250000000 1.0
C      1  0.4880840000000  0.4945810000000  0.5376540000000 1.0
C      1  0.4492710000000  0.4724670000000  0.5101340000000 1.0
C      1  0.4647260000000  0.5086320000000  0.4189750000000 1.0
C      1  0.5833840000000  0.4447670000000  0.4929640000000 1.0
C      1  0.4201330000000  0.4510440000000  0.5697710000000 1.0
C      1  0.4025460000000  0.4579320000000  0.5467860000000 1.0
C      1  0.4891760000000  0.5321420000000  0.5834530000000 1.0
C      1  0.4961580000000  0.4257790000000  0.5459430000000 1.0
C      1  0.5112750000000  0.4650690000000  0.5716350000000 1.0
C      1  0.5835750000000  0.5673410000000  0.5254650000000 1.0
C      1  0.5188410000000  0.4297830000000  0.4264470000000 1.0
C      1  0.4867010000000  0.5521420000000  0.4992290000000 1.0
C      1  0.5860670000000  0.5394520000000  0.5241540000000 1.0
C      1  0.4966940000000  0.5950500000000  0.5186320000000 1.0
C      1  0.5217660000000  0.5966670000000  0.5031360000000 1.0
C      1  0.5188080000000  0.4542980000000  0.4088470000000 1.0
C      1  0.4267710000000  0.4675470000000  0.4455340000000 1.0
C      1  0.4729330000000  0.4658820000000  0.5315670000000 1.0
C      1  0.5412110000000  0.4556800000000  0.4998060000000 1.0
C      1  0.4484480000000  0.4581550000000  0.4298450000000 1.0
C      1  0.4828460000000  0.5272890000000  0.5294510000000 1.0
C      1  0.5146260000000  0.4029100000000  0.4986180000000 1.0
C      1  0.5146140000000  0.5221170000000  0.5957260000000 1.0
C      1  0.5381900000000  0.5714230000000  0.5062910000000 1.0
C      1  0.4982740000000  0.4286060000000  0.4934450000000 1.0
C      1  0.4056090000000  0.4870500000000  0.5489460000000 1.0
C      1  0.4865140000000  0.5511080000000  0.4688170000000 1.0
C      1  0.4886230000000  0.5790700000000  0.4347400000000 1.0
C      1  0.5564870000000  0.5719840000000  0.5302980000000 1.0
C      1  0.4576080000000  0.4148820000000  0.5149160000000 1.0
C      1  0.5585970000000  0.4503610000000  0.5401550000000 1.0
C      1  0.4179820000000  0.4953770000000  0.4445750000000 1.0
C      1  0.5418740000000  0.5867530000000  0.4602230000000 1.0
C      1  0.5034410000000  0.4987770000000  0.6082530000000 1.0
C      1  0.4132670000000  0.4651150000000  0.4965590000000 1.0
C      1  0.4568190000000  0.5036450000000  0.5036110000000 1.0
C      1  0.5108690000000  0.4861950000000  0.5181860000000 1.0
C      1  0.5595830000000  0.5371700000000  0.5683740000000 1.0
C      1  0.5481230000000  0.5066730000000  0.5296520000000 1.0
C      1  0.4658710000000  0.5897470000000  0.4774180000000 1.0
END
