TITL C-3577080-309-188 -3.45002733762189e-07 125000 -61.4662367190519 0 0 12 (C2) n - 1
REM
REM in /home/bkarasulu/work/CARBON/AIRSS/Generating-Clusters/EDIP-Nigel-Params/with-SteepDescent/Higher-Symm/SD-CG/HFTN-CG
REM
REM
REM
REM
REM
REM ./C.cell (12c818d87b63d06a65506943cc24bca4)
REM
REM compiler GCC version 9.2.1 20190827 (Red Hat 9.2.1-1)
REM options -cpp -mtune=generic -march=x86-64 -g -O0 -fpre-include=/usr/include/finclude/math-vector-fortran.h
REM seed 1258633085 1633672380 -1616820567 380334342 1265469352 826691427 -1718277400 -2013716879 -1439892342 -1905221678 1892542388 -499313444 -349642108 -1758354988 120575199 -1101026816 -1484381323 -2126710240 687044745 550317193 -2064340499 -2003973714 -2008794652 788179859 535901782 -1744013884 -495269260 -467247829 546447891 135274078 943929844 1440229162 1277955182
REM
CELL 1.54180   50.00000   50.00000   50.00000   90.00000   90.00000   90.00000
LATT -1
SFAC C  
C      1  0.4925530000000  0.4870090000000  0.5286740000000 1.0
C      1  0.5074350000000  0.5129910000000  0.5286770000000 1.0
C      1  0.5232440000000  0.5094020000000  0.4762630000000 1.0
C      1  0.4767660000000  0.4905990000000  0.4762530000000 1.0
C      1  0.5042420000000  0.4685770000000  0.5092830000000 1.0
C      1  0.4957540000000  0.5314230000000  0.5092820000000 1.0
C      1  0.4773070000000  0.5183050000000  0.4775200000000 1.0
C      1  0.5227030000000  0.4816960000000  0.4775290000000 1.0
C      1  0.5038830000000  0.5293490000000  0.4813360000000 1.0
C      1  0.4961240000000  0.4706510000000  0.4813340000000 1.0
C      1  0.5340790000000  0.5101910000000  0.5269310000000 1.0
C      1  0.4659090000000  0.4898080000000  0.5269160000000 1.0
END
