TITL C-3578198-8939-86 -1.71257437078404e-07 125000 -374.605222173794 0 0 63 (C1) n - 1
REM
REM in /home/bkarasulu/work/CARBON/AIRSS/Generating-Clusters/EDIP-Nigel-Params/with-SteepDescent/Higher-Symm/SD-CG/HFTN-CG
REM
REM
REM
REM
REM
REM ./C.cell (12c818d87b63d06a65506943cc24bca4)
REM
REM compiler GCC version 9.2.1 20190827 (Red Hat 9.2.1-1)
REM options -cpp -mtune=generic -march=x86-64 -g -O0 -fpre-include=/usr/include/finclude/math-vector-fortran.h
REM seed 596721820 -105756302 1697382202 -1079678065 1514064011 -14621150 1801770568 -1952097516 -1060712003 61299028 -1785059870 -1028978980 -2105895948 -1678468968 -1817881705 110320040 -1684742829 -241813440 -249251918 -925975493 -679309688 -1132271424 -1506798633 -295106725 310926043 1768357908 -1275500337 -1006180182 -665616909 1198601885 1318171493 -734826193 -273925219
REM
CELL 1.54180   50.00000   50.00000   50.00000   90.00000   90.00000   90.00000
LATT -1
SFAC C  
C      1  0.4790330000000  0.4692540000000  0.5645460000000 1.0
C      1  0.4237290000000  0.4708660000000  0.4947450000000 1.0
C      1  0.4801110000000  0.4743600000000  0.4270100000000 1.0
C      1  0.5616210000000  0.4676950000000  0.4596150000000 1.0
C      1  0.5636630000000  0.4746110000000  0.5483310000000 1.0
C      1  0.5269530000000  0.5313970000000  0.5688410000000 1.0
C      1  0.5799840000000  0.5239330000000  0.4971980000000 1.0
C      1  0.5206260000000  0.5297350000000  0.4349290000000 1.0
C      1  0.4390500000000  0.5312250000000  0.4589040000000 1.0
C      1  0.4412660000000  0.5272180000000  0.5490630000000 1.0
C      1  0.4806990000000  0.5629350000000  0.5189420000000 1.0
C      1  0.4732360000000  0.5577880000000  0.4905270000000 1.0
C      1  0.4970250000000  0.5583150000000  0.4735910000000 1.0
C      1  0.5210400000000  0.5639600000000  0.4908020000000 1.0
C      1  0.5109570000000  0.5678860000000  0.5196910000000 1.0
C      1  0.5122900000000  0.4355790000000  0.5200700000000 1.0
C      1  0.5214610000000  0.4339710000000  0.4915690000000 1.0
C      1  0.4965360000000  0.4348730000000  0.4743070000000 1.0
C      1  0.4729140000000  0.4370960000000  0.4928160000000 1.0
C      1  0.4826850000000  0.4371270000000  0.5210220000000 1.0
C      1  0.4368710000000  0.5131700000000  0.5236630000000 1.0
C      1  0.4551560000000  0.5170890000000  0.4380890000000 1.0
C      1  0.5421970000000  0.5145800000000  0.4482050000000 1.0
C      1  0.5618840000000  0.5128860000000  0.5162360000000 1.0
C      1  0.5039790000000  0.5137880000000  0.5643370000000 1.0
C      1  0.5677070000000  0.4849200000000  0.5221420000000 1.0
C      1  0.5393740000000  0.4853590000000  0.4520700000000 1.0
C      1  0.4650440000000  0.4904830000000  0.4462150000000 1.0
C      1  0.4345160000000  0.4843710000000  0.5183430000000 1.0
C      1  0.5041900000000  0.4844460000000  0.5682830000000 1.0
C      1  0.5357200000000  0.5386940000000  0.4910540000000 1.0
C      1  0.5181680000000  0.5394300000000  0.5315680000000 1.0
C      1  0.4745220000000  0.5353240000000  0.5297770000000 1.0
C      1  0.4527490000000  0.5375450000000  0.4844120000000 1.0
C      1  0.4978850000000  0.5391830000000  0.4508370000000 1.0
C      1  0.4620330000000  0.4648100000000  0.4897870000000 1.0
C      1  0.4720340000000  0.4596640000000  0.5375270000000 1.0
C      1  0.5206570000000  0.4616570000000  0.5287110000000 1.0
C      1  0.5364270000000  0.4602810000000  0.4881560000000 1.0
C      1  0.4953670000000  0.4621710000000  0.4610780000000 1.0
C      1  0.4438030000000  0.4662790000000  0.5380190000000 1.0
C      1  0.4482930000000  0.4729370000000  0.4629010000000 1.0
C      1  0.5172790000000  0.4700470000000  0.4396220000000 1.0
C      1  0.5666900000000  0.4659160000000  0.4987180000000 1.0
C      1  0.5265240000000  0.4684560000000  0.5568950000000 1.0
C      1  0.5502250000000  0.5316360000000  0.5367990000000 1.0
C      1  0.5548040000000  0.5315100000000  0.4692150000000 1.0
C      1  0.4768750000000  0.5346400000000  0.4308060000000 1.0
C      1  0.4311390000000  0.5308310000000  0.5023900000000 1.0
C      1  0.4789420000000  0.5290220000000  0.5605640000000 1.0
C      1  0.4201160000000  0.4856320000000  0.4686950000000 1.0
C      1  0.5050480000000  0.4860560000000  0.4147950000000 1.0
C      1  0.5840100000000  0.4797060000000  0.4753800000000 1.0
C      1  0.5551430000000  0.4912240000000  0.5691980000000 1.0
C      1  0.4545420000000  0.4840140000000  0.5704590000000 1.0
C      1  0.5854510000000  0.5085970000000  0.4742490000000 1.0
C      1  0.5058470000000  0.5150710000000  0.4144040000000 1.0
C      1  0.4175690000000  0.5145590000000  0.4702740000000 1.0
C      1  0.4543870000000  0.5129040000000  0.5722520000000 1.0
C      1  0.5541300000000  0.5197190000000  0.5657740000000 1.0
C      1  0.4996110000000  0.4719230000000  0.4983240000000 1.0
C      1  0.5021070000000  0.5272610000000  0.5045720000000 1.0
C      1  0.5010440000000  0.4997590000000  0.5004800000000 1.0
END
