TITL C-3578205-846-459 -4.48727243990496e-07 125000 -498.565451339748 0 0 78 (C1) n - 1
REM
REM in /home/bkarasulu/work/CARBON/AIRSS/Generating-Clusters/EDIP-Nigel-Params/with-SteepDescent/Higher-Symm/SD-CG/HFTN-CG
REM
REM
REM
REM
REM
REM ./C.cell (12c818d87b63d06a65506943cc24bca4)
REM
REM compiler GCC version 9.2.1 20190827 (Red Hat 9.2.1-1)
REM options -cpp -mtune=generic -march=x86-64 -g -O0 -fpre-include=/usr/include/finclude/math-vector-fortran.h
REM seed 691397404 796531997 -1736753167 1120515863 2108653849 2047005708 848682954 -271578742 -1368324269 1642325217 -1674928961 -1120359528 782848293 169587794 745879793 2064773006 -608104799 -1270901564 -1168527257 593253788 1607507408 -471778853 -489538893 1263219089 -135906108 104375106 1431764872 -1777381134 1387719587 -1745948015 -2034369972 614464967 -504172242
REM
CELL 1.54180   50.00000   50.00000   50.00000   90.00000   90.00000   90.00000
LATT -1
SFAC C  
C      1  0.5635450000000  0.4925110000000  0.5472200000000 1.0
C      1  0.5648160000000  0.5387870000000  0.5310220000000 1.0
C      1  0.5653000000000  0.5465150000000  0.4822520000000 1.0
C      1  0.5641440000000  0.5072290000000  0.4525640000000 1.0
C      1  0.5658780000000  0.4607680000000  0.4687140000000 1.0
C      1  0.5657740000000  0.4530540000000  0.5177980000000 1.0
C      1  0.4783540000000  0.4747750000000  0.5201280000000 1.0
C      1  0.4731400000000  0.5088350000000  0.5299230000000 1.0
C      1  0.4693230000000  0.5322670000000  0.5081700000000 1.0
C      1  0.4783750000000  0.5237670000000  0.4787640000000 1.0
C      1  0.4708700000000  0.4928950000000  0.4693320000000 1.0
C      1  0.4694070000000  0.4675100000000  0.4903270000000 1.0
C      1  0.4574710000000  0.5120590000000  0.4289600000000 1.0
C      1  0.4592610000000  0.4435290000000  0.4543000000000 1.0
C      1  0.4594300000000  0.4318470000000  0.5242280000000 1.0
C      1  0.4576060000000  0.4881320000000  0.5711410000000 1.0
C      1  0.4587400000000  0.5572050000000  0.5459030000000 1.0
C      1  0.4593730000000  0.5679640000000  0.4752410000000 1.0
C      1  0.5507270000000  0.4802900000000  0.4502540000000 1.0
C      1  0.5528510000000  0.4436720000000  0.4911590000000 1.0
C      1  0.5503830000000  0.4663220000000  0.5410940000000 1.0
C      1  0.5493330000000  0.5189330000000  0.5482720000000 1.0
C      1  0.5520140000000  0.5557050000000  0.5086440000000 1.0
C      1  0.5502660000000  0.5330300000000  0.4591390000000 1.0
C      1  0.4394810000000  0.4468610000000  0.5111220000000 1.0
C      1  0.4350070000000  0.4847340000000  0.5552340000000 1.0
C      1  0.4366600000000  0.5406440000000  0.5407010000000 1.0
C      1  0.4391260000000  0.5541460000000  0.4889870000000 1.0
C      1  0.4353720000000  0.5157530000000  0.4458470000000 1.0
C      1  0.4384140000000  0.4611370000000  0.4615770000000 1.0
C      1  0.5049740000000  0.5623820000000  0.5316230000000 1.0
C      1  0.5050910000000  0.5605660000000  0.4600420000000 1.0
C      1  0.5035590000000  0.4962200000000  0.4290710000000 1.0
C      1  0.5059090000000  0.4373240000000  0.4677460000000 1.0
C      1  0.5052430000000  0.4389710000000  0.5399010000000 1.0
C      1  0.5032640000000  0.5039080000000  0.5716500000000 1.0
C      1  0.5887030000000  0.4761560000000  0.4810750000000 1.0
C      1  0.5886540000000  0.4714850000000  0.5109340000000 1.0
C      1  0.5873610000000  0.4954000000000  0.5295490000000 1.0
C      1  0.5882270000000  0.5238730000000  0.5191570000000 1.0
C      1  0.5884540000000  0.5285090000000  0.4892750000000 1.0
C      1  0.5876620000000  0.5045530000000  0.4706660000000 1.0
C      1  0.4765260000000  0.5484630000000  0.4591110000000 1.0
C      1  0.4751660000000  0.4884420000000  0.4379130000000 1.0
C      1  0.4777110000000  0.4389290000000  0.4784910000000 1.0
C      1  0.4766420000000  0.4509160000000  0.5404960000000 1.0
C      1  0.4747470000000  0.5121330000000  0.5622900000000 1.0
C      1  0.4766890000000  0.5604780000000  0.5208700000000 1.0
C      1  0.4307440000000  0.5203330000000  0.5222090000000 1.0
C      1  0.4296430000000  0.5282940000000  0.4940400000000 1.0
C      1  0.4302050000000  0.5088020000000  0.4723830000000 1.0
C      1  0.4298320000000  0.4809580000000  0.4796040000000 1.0
C      1  0.4302010000000  0.4730520000000  0.5075110000000 1.0
C      1  0.4318520000000  0.4924760000000  0.5288450000000 1.0
C      1  0.5198260000000  0.5345110000000  0.4554680000000 1.0
C      1  0.5199670000000  0.4790890000000  0.4475300000000 1.0
C      1  0.5224260000000  0.4447200000000  0.4921040000000 1.0
C      1  0.5198740000000  0.4651070000000  0.5447010000000 1.0
C      1  0.5188030000000  0.5205990000000  0.5520520000000 1.0
C      1  0.5214710000000  0.5545860000000  0.5076110000000 1.0
C      1  0.4763870000000  0.4649660000000  0.5688650000000 1.0
C      1  0.4769910000000  0.5435920000000  0.5652440000000 1.0
C      1  0.4786020000000  0.5785060000000  0.4955160000000 1.0
C      1  0.4764840000000  0.5351460000000  0.4306350000000 1.0
C      1  0.4773560000000  0.4570790000000  0.4347950000000 1.0
C      1  0.4789900000000  0.4212890000000  0.5040810000000 1.0
C      1  0.5077440000000  0.4269210000000  0.5134190000000 1.0
C      1  0.5053490000000  0.4749180000000  0.5701160000000 1.0
C      1  0.5062200000000  0.5477860000000  0.5567350000000 1.0
C      1  0.5073530000000  0.5727060000000  0.4864600000000 1.0
C      1  0.5056760000000  0.5251220000000  0.4298620000000 1.0
C      1  0.5067650000000  0.4522520000000  0.4427450000000 1.0
C      1  0.5092820000000  0.4881620000000  0.4738210000000 1.0
C      1  0.5189110000000  0.4735190000000  0.4965060000000 1.0
C      1  0.5079520000000  0.4811450000000  0.5217000000000 1.0
C      1  0.5061410000000  0.5109650000000  0.5261960000000 1.0
C      1  0.5164220000000  0.5259410000000  0.5034960000000 1.0
C      1  0.5075060000000  0.5178730000000  0.4778710000000 1.0
END
