TITL C-3578202-4305-157 -2.76414344776335e-06 125000 -1125.38901576209 0 0 181 (C1) n - 1
REM
REM in /home/bkarasulu/work/CARBON/AIRSS/Generating-Clusters/EDIP-Nigel-Params/with-SteepDescent/Higher-Symm/SD-CG/HFTN-CG
REM
REM
REM
REM
REM
REM ./C.cell (12c818d87b63d06a65506943cc24bca4)
REM
REM compiler GCC version 9.2.1 20190827 (Red Hat 9.2.1-1)
REM options -cpp -mtune=generic -march=x86-64 -g -O0 -fpre-include=/usr/include/finclude/math-vector-fortran.h
REM seed 637075207 212957917 -907278945 1292940180 810996312 246311510 -897014324 1650352097 -254226762 -1869248681 702898475 538312434 1672080810 -942226640 -1661584047 -228440437 53880029 -1128372414 1563393465 1270512204 -1235097603 -1167979176 -1261639886 -596617170 786846816 -120891946 -1290176881 708091705 -495935537 -1573952867 1847764223 1922406055 -673340349
REM
CELL 1.54180   50.00000   50.00000   50.00000   90.00000   90.00000   90.00000
LATT -1
SFAC C  
C      1  0.4754530000000  0.5994070000000  0.4268710000000 1.0
C      1  0.5051150000000  0.5927430000000  0.5248400000000 1.0
C      1  0.5719690000000  0.5582510000000  0.4266720000000 1.0
C      1  0.4932140000000  0.6183570000000  0.4367760000000 1.0
C      1  0.6170580000000  0.4904120000000  0.4863640000000 1.0
C      1  0.4644590000000  0.4884700000000  0.5506500000000 1.0
C      1  0.4540300000000  0.4196410000000  0.4539950000000 1.0
C      1  0.5627650000000  0.5326150000000  0.4172410000000 1.0
C      1  0.5272320000000  0.4133860000000  0.5626940000000 1.0
C      1  0.4242020000000  0.5711560000000  0.5262250000000 1.0
C      1  0.4618130000000  0.5782220000000  0.4436720000000 1.0
C      1  0.5072040000000  0.4745540000000  0.4900580000000 1.0
C      1  0.4368820000000  0.4769790000000  0.4079410000000 1.0
C      1  0.5192050000000  0.4923920000000  0.5108390000000 1.0
C      1  0.4083460000000  0.4546760000000  0.4398560000000 1.0
C      1  0.5193480000000  0.4609900000000  0.5825840000000 1.0
C      1  0.5695400000000  0.4871270000000  0.5033140000000 1.0
C      1  0.5471260000000  0.5023090000000  0.5653960000000 1.0
C      1  0.4636760000000  0.4763310000000  0.3990410000000 1.0
C      1  0.4999430000000  0.6045410000000  0.4821160000000 1.0
C      1  0.5032860000000  0.5292380000000  0.5992100000000 1.0
C      1  0.4851460000000  0.5829370000000  0.4041170000000 1.0
C      1  0.4219690000000  0.4696510000000  0.5746650000000 1.0
C      1  0.4422190000000  0.5366120000000  0.5957900000000 1.0
C      1  0.4721870000000  0.5973190000000  0.4899840000000 1.0
C      1  0.4831420000000  0.4225720000000  0.5749550000000 1.0
C      1  0.5424380000000  0.3957560000000  0.4883120000000 1.0
C      1  0.5765540000000  0.4958270000000  0.5955780000000 1.0
C      1  0.5496220000000  0.5092440000000  0.5070600000000 1.0
C      1  0.4511800000000  0.4374450000000  0.5918700000000 1.0
C      1  0.4056240000000  0.5048320000000  0.4514210000000 1.0
C      1  0.4242250000000  0.5467800000000  0.4686470000000 1.0
C      1  0.4965830000000  0.4482590000000  0.4976670000000 1.0
C      1  0.5113920000000  0.4138960000000  0.4364750000000 1.0
C      1  0.5862450000000  0.4129520000000  0.4589990000000 1.0
C      1  0.4715390000000  0.5351300000000  0.4194960000000 1.0
C      1  0.5615140000000  0.5128600000000  0.4401540000000 1.0
C      1  0.5176990000000  0.5013690000000  0.5584140000000 1.0
C      1  0.4479470000000  0.5328880000000  0.4835820000000 1.0
C      1  0.4884610000000  0.5565120000000  0.4964300000000 1.0
C      1  0.4275380000000  0.5448060000000  0.4370600000000 1.0
C      1  0.5779620000000  0.5213060000000  0.4659990000000 1.0
C      1  0.5459900000000  0.4240480000000  0.5444540000000 1.0
C      1  0.5163110000000  0.6109290000000  0.5045640000000 1.0
C      1  0.5802130000000  0.5780290000000  0.4979400000000 1.0
C      1  0.4155160000000  0.4310390000000  0.5295190000000 1.0
C      1  0.5282820000000  0.4729900000000  0.4719660000000 1.0
C      1  0.4573850000000  0.4211600000000  0.5007370000000 1.0
C      1  0.5104250000000  0.5646760000000  0.5135740000000 1.0
C      1  0.5019700000000  0.4032620000000  0.5625500000000 1.0
C      1  0.5670610000000  0.4173630000000  0.4388080000000 1.0
C      1  0.5848010000000  0.5397080000000  0.5297440000000 1.0
C      1  0.4090850000000  0.5138210000000  0.5650570000000 1.0
C      1  0.5002070000000  0.5010890000000  0.6119990000000 1.0
C      1  0.5728090000000  0.4873360000000  0.4312980000000 1.0
C      1  0.4633510000000  0.5599650000000  0.4027550000000 1.0
C      1  0.4242760000000  0.4418500000000  0.5813470000000 1.0
C      1  0.4176370000000  0.4243370000000  0.5587980000000 1.0
C      1  0.4539620000000  0.5718780000000  0.5295450000000 1.0
C      1  0.4325400000000  0.5267020000000  0.5494460000000 1.0
C      1  0.5989030000000  0.5529280000000  0.4345420000000 1.0
C      1  0.5272120000000  0.5575630000000  0.3945860000000 1.0
C      1  0.5297290000000  0.5099100000000  0.4430610000000 1.0
C      1  0.5184120000000  0.4804960000000  0.4468860000000 1.0
C      1  0.4254900000000  0.5757310000000  0.4778690000000 1.0
C      1  0.5248430000000  0.4681970000000  0.5300570000000 1.0
C      1  0.5296060000000  0.5433190000000  0.5975990000000 1.0
C      1  0.4772110000000  0.4908980000000  0.4194830000000 1.0
C      1  0.5349040000000  0.5668330000000  0.4979000000000 1.0
C      1  0.5261500000000  0.5912960000000  0.5490950000000 1.0
C      1  0.4726050000000  0.4416200000000  0.5152710000000 1.0
C      1  0.4857000000000  0.5731250000000  0.5682140000000 1.0
C      1  0.4937910000000  0.3929930000000  0.5378560000000 1.0
C      1  0.4161980000000  0.5436020000000  0.5317240000000 1.0
C      1  0.4867860000000  0.4775800000000  0.4453670000000 1.0
C      1  0.4631670000000  0.5480780000000  0.5107240000000 1.0
C      1  0.5390890000000  0.4264870000000  0.4468510000000 1.0
C      1  0.4591920000000  0.5673940000000  0.5589710000000 1.0
C      1  0.5383290000000  0.5328410000000  0.4010160000000 1.0
C      1  0.5757190000000  0.4430360000000  0.4284150000000 1.0
C      1  0.4960680000000  0.4446730000000  0.5924430000000 1.0
C      1  0.4824060000000  0.4081900000000  0.4618440000000 1.0
C      1  0.5824950000000  0.4831910000000  0.5326740000000 1.0
C      1  0.4451190000000  0.5194280000000  0.4312220000000 1.0
C      1  0.4471880000000  0.5050710000000  0.5323040000000 1.0
C      1  0.5846400000000  0.5571380000000  0.5537990000000 1.0
C      1  0.5153410000000  0.5783250000000  0.4090160000000 1.0
C      1  0.4785690000000  0.5503940000000  0.4447660000000 1.0
C      1  0.5480040000000  0.5335630000000  0.5751460000000 1.0
C      1  0.5538780000000  0.4804480000000  0.6032910000000 1.0
C      1  0.5530150000000  0.5739630000000  0.5426070000000 1.0
C      1  0.5217700000000  0.3817370000000  0.5006370000000 1.0
C      1  0.5566090000000  0.5781280000000  0.5127310000000 1.0
C      1  0.5074420000000  0.5546950000000  0.4456710000000 1.0
C      1  0.5554960000000  0.4662080000000  0.4810400000000 1.0
C      1  0.4956160000000  0.5304220000000  0.4830520000000 1.0
C      1  0.4470750000000  0.4384910000000  0.4767190000000 1.0
C      1  0.6092380000000  0.5292410000000  0.5193340000000 1.0
C      1  0.3998410000000  0.5282670000000  0.4735000000000 1.0
C      1  0.4012610000000  0.5400680000000  0.4244090000000 1.0
C      1  0.5124820000000  0.4728880000000  0.5556920000000 1.0
C      1  0.5104490000000  0.6045790000000  0.4537770000000 1.0
C      1  0.5895680000000  0.5130720000000  0.5770450000000 1.0
C      1  0.4523430000000  0.4643610000000  0.5166510000000 1.0
C      1  0.4019040000000  0.5119310000000  0.4218860000000 1.0
C      1  0.5687300000000  0.3996700000000  0.5036780000000 1.0
C      1  0.3877890000000  0.4824260000000  0.4773080000000 1.0
C      1  0.5374690000000  0.4428430000000  0.5222960000000 1.0
C      1  0.5343990000000  0.4226380000000  0.4769170000000 1.0
C      1  0.5413820000000  0.5446380000000  0.5464500000000 1.0
C      1  0.4500200000000  0.4095950000000  0.5463020000000 1.0
C      1  0.3957850000000  0.5055950000000  0.4938250000000 1.0
C      1  0.5773750000000  0.5406340000000  0.5775850000000 1.0
C      1  0.5614450000000  0.4781300000000  0.4053770000000 1.0
C      1  0.6220090000000  0.5101330000000  0.5051000000000 1.0
C      1  0.5759830000000  0.4642730000000  0.4508970000000 1.0
C      1  0.4359150000000  0.4960520000000  0.4580130000000 1.0
C      1  0.3851720000000  0.5086440000000  0.5205300000000 1.0
C      1  0.5816910000000  0.5725310000000  0.4704240000000 1.0
C      1  0.5028190000000  0.4313850000000  0.4738410000000 1.0
C      1  0.5956000000000  0.5470410000000  0.4621520000000 1.0
C      1  0.5417010000000  0.5498640000000  0.4745650000000 1.0
C      1  0.4595500000000  0.4843690000000  0.4951800000000 1.0
C      1  0.4963960000000  0.5183080000000  0.5710490000000 1.0
C      1  0.4742310000000  0.5249160000000  0.5270350000000 1.0
C      1  0.4216390000000  0.5154850000000  0.5956470000000 1.0
C      1  0.4592430000000  0.4707290000000  0.4678570000000 1.0
C      1  0.5654140000000  0.4503350000000  0.4033350000000 1.0
C      1  0.4068230000000  0.4636430000000  0.4663720000000 1.0
C      1  0.5680250000000  0.3953630000000  0.5323450000000 1.0
C      1  0.4283150000000  0.5056070000000  0.4095410000000 1.0
C      1  0.4687430000000  0.4330290000000  0.5492480000000 1.0
C      1  0.4716810000000  0.4896450000000  0.6003440000000 1.0
C      1  0.4904300000000  0.5387320000000  0.5504770000000 1.0
C      1  0.5242330000000  0.4865110000000  0.5996330000000 1.0
C      1  0.5625000000000  0.4734860000000  0.5519440000000 1.0
C      1  0.4411910000000  0.5681780000000  0.4239820000000 1.0
C      1  0.4362670000000  0.4111410000000  0.5204710000000 1.0
C      1  0.5953680000000  0.5022290000000  0.5508000000000 1.0
C      1  0.4499550000000  0.5415680000000  0.5684410000000 1.0
C      1  0.4976920000000  0.3916260000000  0.5101960000000 1.0
C      1  0.3902640000000  0.5316020000000  0.5367410000000 1.0
C      1  0.5598700000000  0.5215540000000  0.5336430000000 1.0
C      1  0.5219790000000  0.5108020000000  0.4130240000000 1.0
C      1  0.4715290000000  0.5032350000000  0.5740630000000 1.0
C      1  0.5319050000000  0.4826220000000  0.4043770000000 1.0
C      1  0.5520000000000  0.4530830000000  0.5903230000000 1.0
C      1  0.4919910000000  0.5141620000000  0.4097250000000 1.0
C      1  0.4451820000000  0.5011480000000  0.6098930000000 1.0
C      1  0.4153060000000  0.5825910000000  0.5028090000000 1.0
C      1  0.5229540000000  0.5793900000000  0.4393900000000 1.0
C      1  0.4221340000000  0.4564410000000  0.5137900000000 1.0
C      1  0.4708420000000  0.4588430000000  0.5968970000000 1.0
C      1  0.5119370000000  0.5839430000000  0.5736240000000 1.0
C      1  0.4157010000000  0.4866690000000  0.5275960000000 1.0
C      1  0.5571930000000  0.5280430000000  0.4846420000000 1.0
C      1  0.5758770000000  0.4175950000000  0.5503450000000 1.0
C      1  0.4516800000000  0.5870370000000  0.4706930000000 1.0
C      1  0.4543660000000  0.4610470000000  0.5558090000000 1.0
C      1  0.5978150000000  0.4315340000000  0.4773500000000 1.0
C      1  0.6024330000000  0.4605680000000  0.4669740000000 1.0
C      1  0.4712850000000  0.5298160000000  0.4657130000000 1.0
C      1  0.4854560000000  0.4472740000000  0.4410650000000 1.0
C      1  0.5144320000000  0.5440140000000  0.5345350000000 1.0
C      1  0.5556550000000  0.5694830000000  0.4510080000000 1.0
C      1  0.4958260000000  0.5130600000000  0.5084200000000 1.0
C      1  0.5786740000000  0.4280020000000  0.4999940000000 1.0
C      1  0.4770290000000  0.4002330000000  0.4912850000000 1.0
C      1  0.5704110000000  0.4505920000000  0.5681580000000 1.0
C      1  0.5888640000000  0.4949250000000  0.4802100000000 1.0
C      1  0.4197590000000  0.4471380000000  0.4850790000000 1.0
C      1  0.5265490000000  0.5708740000000  0.5936810000000 1.0
C      1  0.5060100000000  0.4390930000000  0.4212240000000 1.0
C      1  0.4564710000000  0.4397980000000  0.4332090000000 1.0
C      1  0.4349110000000  0.4605190000000  0.4322040000000 1.0
C      1  0.4069310000000  0.4853840000000  0.5564890000000 1.0
C      1  0.4712720000000  0.5950630000000  0.5197470000000 1.0
C      1  0.5514720000000  0.4404520000000  0.4954290000000 1.0
C      1  0.5287090000000  0.4586900000000  0.4267920000000 1.0
C      1  0.4397130000000  0.5047060000000  0.4884910000000 1.0
C      1  0.5189110000000  0.5346510000000  0.4625220000000 1.0
END
