TITL C-3577081-279-619 -6.89769700192168e-06 125000 -1034.29851139456 0 0 168 (C1) n - 1
REM
REM in /home/bkarasulu/work/CARBON/AIRSS/Generating-Clusters/EDIP-Nigel-Params/with-SteepDescent/Higher-Symm/SD-CG/HFTN-CG
REM
REM
REM
REM
REM
REM ./C.cell (12c818d87b63d06a65506943cc24bca4)
REM
REM compiler GCC version 9.2.1 20190827 (Red Hat 9.2.1-1)
REM options -cpp -mtune=generic -march=x86-64 -g -O0 -fpre-include=/usr/include/finclude/math-vector-fortran.h
REM seed 1761707660 -1668941625 15653410 -592803257 -161601013 -1507119746 106045155 -2112068597 -1489366360 628328884 998074403 -1642445917 978520679 15480085 649267426 1058170901 116796742 -56313978 1291503830 637149446 -1414018131 -878518849 -1776353439 -430479592 -559498377 -649621403 -284113910 -1229562108 -1413590575 -1668114451 -617715051 1043453114 988353063
REM
CELL 1.54180   50.00000   50.00000   50.00000   90.00000   90.00000   90.00000
LATT -1
SFAC C  
C      1  0.5431120000000  0.5539300000000  0.4326530000000 1.0
C      1  0.4176120000000  0.5550950000000  0.4937080000000 1.0
C      1  0.5384620000000  0.5526560000000  0.5770110000000 1.0
C      1  0.4534300000000  0.4369990000000  0.4156470000000 1.0
C      1  0.4503120000000  0.4406150000000  0.5811450000000 1.0
C      1  0.5979030000000  0.4376530000000  0.5005270000000 1.0
C      1  0.4130210000000  0.4879510000000  0.4512290000000 1.0
C      1  0.5015230000000  0.4882780000000  0.5998490000000 1.0
C      1  0.5840630000000  0.4892360000000  0.4498560000000 1.0
C      1  0.4635610000000  0.4632760000000  0.5329930000000 1.0
C      1  0.5501880000000  0.4568790000000  0.5166980000000 1.0
C      1  0.4878320000000  0.4564430000000  0.4434080000000 1.0
C      1  0.4102940000000  0.5101570000000  0.5083160000000 1.0
C      1  0.5526160000000  0.5072720000000  0.5752260000000 1.0
C      1  0.5385550000000  0.5076070000000  0.4184140000000 1.0
C      1  0.5439880000000  0.3907300000000  0.5125480000000 1.0
C      1  0.4890650000000  0.3902260000000  0.4563380000000 1.0
C      1  0.4677790000000  0.3938520000000  0.5304590000000 1.0
C      1  0.4646890000000  0.5969480000000  0.5427060000000 1.0
C      1  0.5550870000000  0.5974270000000  0.5173490000000 1.0
C      1  0.4792030000000  0.5918760000000  0.4546320000000 1.0
C      1  0.5668290000000  0.4041390000000  0.4993270000000 1.0
C      1  0.4664030000000  0.4019190000000  0.4412440000000 1.0
C      1  0.4666960000000  0.4072050000000  0.5566020000000 1.0
C      1  0.4275330000000  0.5716560000000  0.5334240000000 1.0
C      1  0.5715360000000  0.5681160000000  0.5518590000000 1.0
C      1  0.5074230000000  0.5654880000000  0.4094850000000 1.0
C      1  0.4589200000000  0.4154870000000  0.5121960000000 1.0
C      1  0.5351590000000  0.4113830000000  0.5318630000000 1.0
C      1  0.5076830000000  0.4134020000000  0.4574040000000 1.0
C      1  0.5062180000000  0.4776680000000  0.5187450000000 1.0
C      1  0.5115860000000  0.4779750000000  0.4902430000000 1.0
C      1  0.4833840000000  0.4792450000000  0.4809180000000 1.0
C      1  0.5202180000000  0.5074790000000  0.4828480000000 1.0
C      1  0.4745000000000  0.5080120000000  0.4871010000000 1.0
C      1  0.5051290000000  0.5054630000000  0.5271380000000 1.0
C      1  0.4981170000000  0.4853730000000  0.4455170000000 1.0
C      1  0.4553040000000  0.4921500000000  0.5268830000000 1.0
C      1  0.5484690000000  0.4852420000000  0.5284170000000 1.0
C      1  0.4958550000000  0.3858460000000  0.5224280000000 1.0
C      1  0.5215130000000  0.3857220000000  0.4927380000000 1.0
C      1  0.4828800000000  0.3837600000000  0.4852620000000 1.0
C      1  0.4608250000000  0.5123790000000  0.3874270000000 1.0
C      1  0.4236040000000  0.5173140000000  0.5877000000000 1.0
C      1  0.6147960000000  0.5144330000000  0.5233470000000 1.0
C      1  0.4626280000000  0.5542070000000  0.4705490000000 1.0
C      1  0.4974590000000  0.5538760000000  0.5429840000000 1.0
C      1  0.5387450000000  0.5571970000000  0.4851720000000 1.0
C      1  0.4930340000000  0.4198210000000  0.5567110000000 1.0
C      1  0.5539190000000  0.4179430000000  0.4769550000000 1.0
C      1  0.4527550000000  0.4150540000000  0.4638690000000 1.0
C      1  0.4129190000000  0.5375220000000  0.4392250000000 1.0
C      1  0.4924350000000  0.5377210000000  0.6044330000000 1.0
C      1  0.5911410000000  0.5391490000000  0.4565860000000 1.0
C      1  0.5416860000000  0.5078320000000  0.4627400000000 1.0
C      1  0.4452980000000  0.5089190000000  0.4805900000000 1.0
C      1  0.5123810000000  0.5067420000000  0.5562600000000 1.0
C      1  0.4819970000000  0.6159410000000  0.5272230000000 1.0
C      1  0.5297300000000  0.6156300000000  0.5071910000000 1.0
C      1  0.4887190000000  0.6126480000000  0.4756460000000 1.0
C      1  0.5048000000000  0.5140160000000  0.6127460000000 1.0
C      1  0.5925280000000  0.5156690000000  0.4411520000000 1.0
C      1  0.4002990000000  0.5135320000000  0.4466990000000 1.0
C      1  0.4743520000000  0.4744100000000  0.6073620000000 1.0
C      1  0.6045670000000  0.4746890000000  0.4681720000000 1.0
C      1  0.4194910000000  0.4724500000000  0.4248060000000 1.0
C      1  0.4510840000000  0.5047360000000  0.4299910000000 1.0
C      1  0.4646820000000  0.5054530000000  0.5761070000000 1.0
C      1  0.5830390000000  0.5052010000000  0.4939330000000 1.0
C      1  0.5676480000000  0.5416310000000  0.5374200000000 1.0
C      1  0.4937090000000  0.5401640000000  0.4172460000000 1.0
C      1  0.4381050000000  0.5440100000000  0.5387940000000 1.0
C      1  0.4448790000000  0.4395790000000  0.5300010000000 1.0
C      1  0.5622490000000  0.4346980000000  0.5376190000000 1.0
C      1  0.5028310000000  0.4328710000000  0.4328740000000 1.0
C      1  0.4994560000000  0.4332430000000  0.4797280000000 1.0
C      1  0.4819860000000  0.4335400000000  0.5057860000000 1.0
C      1  0.5242420000000  0.4375080000000  0.5163990000000 1.0
C      1  0.4419450000000  0.4936030000000  0.4563270000000 1.0
C      1  0.4919190000000  0.4929380000000  0.5714680000000 1.0
C      1  0.5648560000000  0.4933480000000  0.4728660000000 1.0
C      1  0.4724330000000  0.5336130000000  0.5843400000000 1.0
C      1  0.5846490000000  0.5339610000000  0.4839650000000 1.0
C      1  0.4405810000000  0.5335790000000  0.4312330000000 1.0
C      1  0.4763420000000  0.5620880000000  0.4978270000000 1.0
C      1  0.5197330000000  0.5630980000000  0.5264610000000 1.0
C      1  0.5114500000000  0.5721730000000  0.4839220000000 1.0
C      1  0.5104360000000  0.4010660000000  0.5434730000000 1.0
C      1  0.5317980000000  0.4013530000000  0.4689760000000 1.0
C      1  0.4577000000000  0.3998470000000  0.4875850000000 1.0
C      1  0.4955910000000  0.5214930000000  0.4706480000000 1.0
C      1  0.4771580000000  0.5132050000000  0.5175180000000 1.0
C      1  0.5261390000000  0.5183530000000  0.5099570000000 1.0
C      1  0.5534500000000  0.4878530000000  0.5970010000000 1.0
C      1  0.5560250000000  0.4880700000000  0.4063040000000 1.0
C      1  0.3914710000000  0.4896170000000  0.4985340000000 1.0
C      1  0.4025210000000  0.4731340000000  0.4761390000000 1.0
C      1  0.5281570000000  0.4721950000000  0.5985630000000 1.0
C      1  0.5700500000000  0.4728710000000  0.4275430000000 1.0
C      1  0.5395590000000  0.5443730000000  0.5143410000000 1.0
C      1  0.4863230000000  0.5430200000000  0.4515140000000 1.0
C      1  0.4721210000000  0.5431160000000  0.5244510000000 1.0
C      1  0.5677750000000  0.4376860000000  0.4610680000000 1.0
C      1  0.4356400000000  0.4390180000000  0.4618060000000 1.0
C      1  0.5000740000000  0.4383540000000  0.5777920000000 1.0
C      1  0.4199530000000  0.4818320000000  0.5543130000000 1.0
C      1  0.5887520000000  0.4787250000000  0.5454840000000 1.0
C      1  0.4933080000000  0.4782450000000  0.4020760000000 1.0
C      1  0.4757670000000  0.4514320000000  0.4696750000000 1.0
C      1  0.4908400000000  0.4533530000000  0.5285290000000 1.0
C      1  0.5251240000000  0.4501670000000  0.4865340000000 1.0
C      1  0.4221890000000  0.4535680000000  0.4849850000000 1.0
C      1  0.5271150000000  0.4515980000000  0.5778830000000 1.0
C      1  0.5535870000000  0.4518240000000  0.4390820000000 1.0
C      1  0.4976070000000  0.5767820000000  0.5738700000000 1.0
C      1  0.5659210000000  0.5802920000000  0.4711120000000 1.0
C      1  0.4255640000000  0.5844170000000  0.4492910000000 1.0
C      1  0.6103160000000  0.4966860000000  0.5447890000000 1.0
C      1  0.4824630000000  0.4951660000000  0.3825540000000 1.0
C      1  0.4081500000000  0.4988850000000  0.5731410000000 1.0
C      1  0.5385180000000  0.4873440000000  0.5574340000000 1.0
C      1  0.5291160000000  0.4876290000000  0.4396980000000 1.0
C      1  0.4332050000000  0.4912410000000  0.5043980000000 1.0
C      1  0.4514890000000  0.5536470000000  0.4142170000000 1.0
C      1  0.4551710000000  0.5558050000000  0.5779420000000 1.0
C      1  0.5916960000000  0.5548420000000  0.5026430000000 1.0
C      1  0.4126950000000  0.5382980000000  0.5187110000000 1.0
C      1  0.5623210000000  0.5348700000000  0.5698700000000 1.0
C      1  0.5316210000000  0.5355260000000  0.4112540000000 1.0
C      1  0.4700190000000  0.5792290000000  0.5656350000000 1.0
C      1  0.5733170000000  0.5795450000000  0.4992140000000 1.0
C      1  0.4528570000000  0.5792240000000  0.4425160000000 1.0
C      1  0.5546190000000  0.4470000000000  0.5654290000000 1.0
C      1  0.5288380000000  0.4464720000000  0.4230440000000 1.0
C      1  0.4212550000000  0.4500050000000  0.5145070000000 1.0
C      1  0.6103370000000  0.4929210000000  0.4916460000000 1.0
C      1  0.4362430000000  0.4908420000000  0.4077840000000 1.0
C      1  0.4512910000000  0.4931550000000  0.5998720000000 1.0
C      1  0.5109950000000  0.6161210000000  0.5306530000000 1.0
C      1  0.5158680000000  0.6024040000000  0.4837860000000 1.0
C      1  0.4723650000000  0.6195130000000  0.4991510000000 1.0
C      1  0.5911610000000  0.4490830000000  0.4757820000000 1.0
C      1  0.4342640000000  0.4479830000000  0.4332650000000 1.0
C      1  0.4751870000000  0.4495930000000  0.5906470000000 1.0
C      1  0.5222230000000  0.4690640000000  0.4051310000000 1.0
C      1  0.4075790000000  0.4714910000000  0.5288980000000 1.0
C      1  0.5732460000000  0.4690230000000  0.5694700000000 1.0
C      1  0.5011710000000  0.5705520000000  0.4551650000000 1.0
C      1  0.4586900000000  0.5851220000000  0.5069350000000 1.0
C      1  0.5329460000000  0.5862560000000  0.5386020000000 1.0
C      1  0.5770440000000  0.5638220000000  0.4489190000000 1.0
C      1  0.4100750000000  0.5614640000000  0.4564370000000 1.0
C      1  0.5070510000000  0.5618720000000  0.5978400000000 1.0
C      1  0.5831560000000  0.4211210000000  0.5177830000000 1.0
C      1  0.4761210000000  0.4205270000000  0.4198080000000 1.0
C      1  0.4436000000000  0.4260420000000  0.5581240000000 1.0
C      1  0.5213660000000  0.5741950000000  0.4333090000000 1.0
C      1  0.4293320000000  0.5798210000000  0.5058800000000 1.0
C      1  0.5472780000000  0.5780320000000  0.5634370000000 1.0
C      1  0.5116080000000  0.5376410000000  0.5652540000000 1.0
C      1  0.5477060000000  0.5394380000000  0.4605310000000 1.0
C      1  0.4373440000000  0.5389600000000  0.4747670000000 1.0
C      1  0.5966350000000  0.5380940000000  0.5265750000000 1.0
C      1  0.4700110000000  0.5383260000000  0.3982950000000 1.0
C      1  0.4310320000000  0.5406930000000  0.5698230000000 1.0
C      1  0.4826960000000  0.4986610000000  0.4231680000000 1.0
C      1  0.4428760000000  0.5022250000000  0.5518400000000 1.0
C      1  0.5745440000000  0.4997120000000  0.5261790000000 1.0
END
