TITL C-3577079-311-70 0.0542913991534228 125000 -95.4609431514067 0 0 18 (C1) n - 1
REM
REM in /home/bkarasulu/work/CARBON/AIRSS/Generating-Clusters/EDIP-Nigel-Params/with-SteepDescent/Higher-Symm/SD-CG/HFTN-CG
REM
REM
REM
REM
REM
REM ./C.cell (12c818d87b63d06a65506943cc24bca4)
REM
REM compiler GCC version 9.2.1 20190827 (Red Hat 9.2.1-1)
REM options -cpp -mtune=generic -march=x86-64 -g -O0 -fpre-include=/usr/include/finclude/math-vector-fortran.h
REM seed 789214160 -1246317284 1032912489 1627887093 -486131745 1794311095 820699542 89727077 -95271486 553837574 -2009230720 2004398838 711261453 -1226371328 593077639 -1109427040 -2116453807 -728976306 -596751419 -673894586 -568149921 657133283 -1034099773 1770154209 -84044281 418546103 1461286973 805414650 842314439 138547428 -882582 -197779841 -492575831
REM
CELL 1.54180   50.00000   50.00000   50.00000   90.00000   90.00000   90.00000
LATT -1
SFAC C  
C      1  0.4686570000000  0.4105610000000  0.4922190000000 1.0
C      1  0.5737140000000  0.5215880000000  0.5371100000000 1.0
C      1  0.4896700000000  0.5794610000000  0.4989140000000 1.0
C      1  0.4930470000000  0.5543510000000  0.4861100000000 1.0
C      1  0.4700530000000  0.4371940000000  0.5019350000000 1.0
C      1  0.5511170000000  0.5068820000000  0.5282320000000 1.0
C      1  0.4327620000000  0.4625860000000  0.4899230000000 1.0
C      1  0.5576500000000  0.4877600000000  0.4861450000000 1.0
C      1  0.4517260000000  0.5327270000000  0.4818020000000 1.0
C      1  0.4737230000000  0.4832570000000  0.4909530000000 1.0
C      1  0.5158750000000  0.5036360000000  0.4965640000000 1.0
C      1  0.4894600000000  0.5057050000000  0.4893050000000 1.0
C      1  0.4590820000000  0.4600770000000  0.4884750000000 1.0
C      1  0.5430650000000  0.5043230000000  0.5007770000000 1.0
C      1  0.4765950000000  0.5312150000000  0.4908250000000 1.0
C      1  0.4927400000000  0.4226700000000  0.4929930000000 1.0
C      1  0.5491580000000  0.5308140000000  0.5433660000000 1.0
C      1  0.5119070000000  0.5651950000000  0.5043520000000 1.0
END
