TITL C-3577091-527-305 1.65224004306243e-06 125000 -797.997626166395 0 0 131 (C1) n - 1
REM
REM in /home/bkarasulu/work/CARBON/AIRSS/Generating-Clusters/EDIP-Nigel-Params/with-SteepDescent/Higher-Symm/SD-CG/HFTN-CG
REM
REM
REM
REM
REM
REM ./C.cell (12c818d87b63d06a65506943cc24bca4)
REM
REM compiler GCC version 9.2.1 20190827 (Red Hat 9.2.1-1)
REM options -cpp -mtune=generic -march=x86-64 -g -O0 -fpre-include=/usr/include/finclude/math-vector-fortran.h
REM seed 1929559095 -620674003 -485765010 132116502 -1333245877 -2032995383 -1929353834 2080433318 -295673878 647400479 -604528184 -1411144978 -2134953740 -704529948 -87344441 1252096964 -2135935631 1520532503 -894875136 -1412604340 -696392379 -2073606064 1864826872 818122538 -1940568958 1119232711 -961900282 -2130497391 -1874607981 1299526145 1721906138 -1084326770 -374286324
REM
CELL 1.54180   50.00000   50.00000   50.00000   90.00000   90.00000   90.00000
LATT -1
SFAC C  
C      1  0.5274270000000  0.4898720000000  0.5293790000000 1.0
C      1  0.4852960000000  0.4575310000000  0.5301300000000 1.0
C      1  0.4473490000000  0.4920090000000  0.5234550000000 1.0
C      1  0.4902680000000  0.5104100000000  0.5169410000000 1.0
C      1  0.5350540000000  0.5338850000000  0.5193480000000 1.0
C      1  0.5383280000000  0.4759100000000  0.4768820000000 1.0
C      1  0.4897320000000  0.4518010000000  0.4793360000000 1.0
C      1  0.4709940000000  0.4952630000000  0.4726190000000 1.0
C      1  0.4738590000000  0.5471370000000  0.4805270000000 1.0
C      1  0.5121740000000  0.5196990000000  0.4730330000000 1.0
C      1  0.5093590000000  0.4109060000000  0.4783630000000 1.0
C      1  0.4230260000000  0.4715740000000  0.4754910000000 1.0
C      1  0.4403130000000  0.5744600000000  0.4591310000000 1.0
C      1  0.5432710000000  0.5699540000000  0.4754190000000 1.0
C      1  0.5870110000000  0.4827340000000  0.4675900000000 1.0
C      1  0.5077960000000  0.4123850000000  0.5341550000000 1.0
C      1  0.4167440000000  0.4615680000000  0.5339950000000 1.0
C      1  0.4456510000000  0.5675800000000  0.5182590000000 1.0
C      1  0.5421370000000  0.5782610000000  0.5354970000000 1.0
C      1  0.5847710000000  0.4836440000000  0.5253880000000 1.0
C      1  0.5453430000000  0.5646940000000  0.4468020000000 1.0
C      1  0.5803750000000  0.4858870000000  0.4387020000000 1.0
C      1  0.5050970000000  0.4193910000000  0.4495930000000 1.0
C      1  0.4269690000000  0.4814380000000  0.4482030000000 1.0
C      1  0.4488540000000  0.5644390000000  0.4314830000000 1.0
C      1  0.5369200000000  0.5685450000000  0.5631520000000 1.0
C      1  0.5797430000000  0.4786330000000  0.5539460000000 1.0
C      1  0.5131250000000  0.4160680000000  0.5629920000000 1.0
C      1  0.4268510000000  0.4642080000000  0.5613480000000 1.0
C      1  0.4554190000000  0.5604330000000  0.5447240000000 1.0
C      1  0.5604090000000  0.5182060000000  0.4666290000000 1.0
C      1  0.5586590000000  0.4415140000000  0.4422170000000 1.0
C      1  0.4585520000000  0.4400070000000  0.4503500000000 1.0
C      1  0.4260980000000  0.5252500000000  0.4711060000000 1.0
C      1  0.4949270000000  0.5827780000000  0.4355640000000 1.0
C      1  0.5717890000000  0.5325940000000  0.5629210000000 1.0
C      1  0.5572970000000  0.4262070000000  0.5352360000000 1.0
C      1  0.4640530000000  0.4190630000000  0.5634930000000 1.0
C      1  0.4082350000000  0.5106540000000  0.5606240000000 1.0
C      1  0.4981460000000  0.5600830000000  0.5346400000000 1.0
C      1  0.4952470000000  0.5928580000000  0.4785940000000 1.0
C      1  0.5894890000000  0.5476370000000  0.4932750000000 1.0
C      1  0.5601570000000  0.4286360000000  0.4842450000000 1.0
C      1  0.4535850000000  0.4171130000000  0.4880990000000 1.0
C      1  0.4058620000000  0.5159050000000  0.4903220000000 1.0
C      1  0.4855530000000  0.6017650000000  0.5060520000000 1.0
C      1  0.5848610000000  0.5363630000000  0.5209590000000 1.0
C      1  0.5738690000000  0.4337430000000  0.5114180000000 1.0
C      1  0.4526960000000  0.4192160000000  0.5204380000000 1.0
C      1  0.4117130000000  0.5285760000000  0.5155460000000 1.0
C      1  0.5441930000000  0.5082220000000  0.5115290000000 1.0
C      1  0.5137210000000  0.4646430000000  0.5204490000000 1.0
C      1  0.4606590000000  0.4674390000000  0.5149150000000 1.0
C      1  0.4595470000000  0.5170530000000  0.5174010000000 1.0
C      1  0.5058430000000  0.5369840000000  0.5163070000000 1.0
C      1  0.5385650000000  0.5055270000000  0.4816840000000 1.0
C      1  0.5178530000000  0.4578220000000  0.4905130000000 1.0
C      1  0.4653110000000  0.4676590000000  0.4845110000000 1.0
C      1  0.4557690000000  0.5221480000000  0.4839410000000 1.0
C      1  0.5025410000000  0.5454370000000  0.4878680000000 1.0
C      1  0.4227550000000  0.5541530000000  0.5050950000000 1.0
C      1  0.5150360000000  0.5819010000000  0.5208790000000 1.0
C      1  0.5754240000000  0.5089110000000  0.5124170000000 1.0
C      1  0.5295740000000  0.4291360000000  0.5227820000000 1.0
C      1  0.4384460000000  0.4467450000000  0.5173890000000 1.0
C      1  0.4208910000000  0.5557290000000  0.4737510000000 1.0
C      1  0.5160570000000  0.5732690000000  0.4886610000000 1.0
C      1  0.5847510000000  0.5107460000000  0.4818140000000 1.0
C      1  0.5306370000000  0.4290700000000  0.4919400000000 1.0
C      1  0.4335630000000  0.4445410000000  0.4860490000000 1.0
C      1  0.4516760000000  0.4736380000000  0.4322510000000 1.0
C      1  0.4544110000000  0.5347360000000  0.4306140000000 1.0
C      1  0.5202910000000  0.5542510000000  0.4346350000000 1.0
C      1  0.5610850000000  0.5095650000000  0.4381030000000 1.0
C      1  0.5201380000000  0.4456700000000  0.4425720000000 1.0
C      1  0.4563110000000  0.4570330000000  0.5623410000000 1.0
C      1  0.4554590000000  0.5307840000000  0.5497960000000 1.0
C      1  0.5102850000000  0.5537030000000  0.5621980000000 1.0
C      1  0.5588450000000  0.4967660000000  0.5673560000000 1.0
C      1  0.5284910000000  0.4420620000000  0.5652330000000 1.0
C      1  0.4830230000000  0.4273600000000  0.5240030000000 1.0
C      1  0.4176590000000  0.4906160000000  0.5237240000000 1.0
C      1  0.4586540000000  0.5889510000000  0.5029840000000 1.0
C      1  0.5559840000000  0.5551880000000  0.5214110000000 1.0
C      1  0.5735960000000  0.4626250000000  0.5088740000000 1.0
C      1  0.4841020000000  0.4245650000000  0.4895780000000 1.0
C      1  0.4072910000000  0.4873280000000  0.4946150000000 1.0
C      1  0.4657440000000  0.5756610000000  0.4761520000000 1.0
C      1  0.5653880000000  0.5652330000000  0.4938730000000 1.0
C      1  0.5660120000000  0.4638250000000  0.4796050000000 1.0
C      1  0.4831040000000  0.4855240000000  0.3924370000000 1.0
C      1  0.4849640000000  0.5134010000000  0.3976270000000 1.0
C      1  0.5112360000000  0.5206850000000  0.3895640000000 1.0
C      1  0.5266580000000  0.4993700000000  0.4007460000000 1.0
C      1  0.5078100000000  0.4762580000000  0.4036240000000 1.0
C      1  0.4810590000000  0.4831940000000  0.5977500000000 1.0
C      1  0.4798760000000  0.5107840000000  0.6051870000000 1.0
C      1  0.5061080000000  0.5193370000000  0.5983060000000 1.0
C      1  0.5233900000000  0.4992960000000  0.6088030000000 1.0
C      1  0.5098590000000  0.4754300000000  0.6009240000000 1.0
C      1  0.5722930000000  0.5312920000000  0.4226700000000 1.0
C      1  0.5399900000000  0.4396730000000  0.4209580000000 1.0
C      1  0.4549170000000  0.4451080000000  0.4227540000000 1.0
C      1  0.4316520000000  0.5206930000000  0.4223250000000 1.0
C      1  0.5073290000000  0.5703400000000  0.4126430000000 1.0
C      1  0.5670710000000  0.5183170000000  0.5870310000000 1.0
C      1  0.5561230000000  0.4385040000000  0.5720160000000 1.0
C      1  0.4583260000000  0.4374970000000  0.5848130000000 1.0
C      1  0.4323020000000  0.5236450000000  0.5668650000000 1.0
C      1  0.4906500000000  0.5678010000000  0.5782300000000 1.0
C      1  0.5685500000000  0.5548480000000  0.4351780000000 1.0
C      1  0.5718750000000  0.4611350000000  0.4267780000000 1.0
C      1  0.4768430000000  0.4197670000000  0.4422710000000 1.0
C      1  0.4211680000000  0.5097540000000  0.4454560000000 1.0
C      1  0.4708330000000  0.5802620000000  0.4212580000000 1.0
C      1  0.5591220000000  0.5545480000000  0.5751060000000 1.0
C      1  0.5772730000000  0.4501610000000  0.5580170000000 1.0
C      1  0.4883250000000  0.4142670000000  0.5774770000000 1.0
C      1  0.4186770000000  0.4886050000000  0.5744630000000 1.0
C      1  0.4730460000000  0.5774800000000  0.5588720000000 1.0
C      1  0.4821860000000  0.5101200000000  0.5549800000000 1.0
C      1  0.5085250000000  0.5216380000000  0.5683560000000 1.0
C      1  0.5286020000000  0.4946640000000  0.5586750000000 1.0
C      1  0.5140190000000  0.4696640000000  0.5714940000000 1.0
C      1  0.4785850000000  0.4801690000000  0.5674990000000 1.0
C      1  0.4808330000000  0.5181640000000  0.4270880000000 1.0
C      1  0.5104830000000  0.5246570000000  0.4411890000000 1.0
C      1  0.5306210000000  0.5031300000000  0.4302370000000 1.0
C      1  0.5054910000000  0.4733520000000  0.4337440000000 1.0
C      1  0.4771080000000  0.4898930000000  0.4415190000000 1.0
C      1  0.4949200000000  0.5002040000000  0.4876070000000 1.0
END
