TITL C-3578206-1180-299 -1.8071921184996e-06 125000 -458.881483310369 0 0 78 (C3h) n - 1
REM
REM in /home/bkarasulu/work/CARBON/AIRSS/Generating-Clusters/EDIP-Nigel-Params/with-SteepDescent/Higher-Symm/SD-CG/HFTN-CG
REM
REM
REM
REM
REM
REM ./C.cell (12c818d87b63d06a65506943cc24bca4)
REM
REM compiler GCC version 9.2.1 20190827 (Red Hat 9.2.1-1)
REM options -cpp -mtune=generic -march=x86-64 -g -O0 -fpre-include=/usr/include/finclude/math-vector-fortran.h
REM seed 287078163 642995978 -1209795642 -223817211 -895563869 -1847750852 1197664264 -276708853 -1918731601 -1984015127 -2004636844 503242953 -1091080339 -97184109 124839173 -934931946 1724368488 1689839068 864125218 -686629155 -1867607177 1273099401 -633729318 764844513 590592409 -454137044 -1704995311 75457706 784315745 41252985 -26116101 -816482966 -2019687747
REM
CELL 1.54180   50.00000   50.00000   50.00000   90.00000   90.00000   90.00000
LATT -1
SFAC C  
C      1  0.5544930000000  0.5197470000000  0.5039410000000 1.0
C      1  0.5545190000000  0.4867000000000  0.5150260000000 1.0
C      1  0.5544800000000  0.4936240000000  0.4808630000000 1.0
C      1  0.4454980000000  0.5197000000000  0.5040540000000 1.0
C      1  0.4455240000000  0.4866520000000  0.5151390000000 1.0
C      1  0.4454860000000  0.4935770000000  0.4809760000000 1.0
C      1  0.4860340000000  0.5020770000000  0.5784420000000 1.0
C      1  0.4859450000000  0.4310320000000  0.4626050000000 1.0
C      1  0.4858820000000  0.5668720000000  0.4589970000000 1.0
C      1  0.5141270000000  0.5020890000000  0.5784130000000 1.0
C      1  0.5140380000000  0.4310450000000  0.4625760000000 1.0
C      1  0.5139750000000  0.5668850000000  0.4589680000000 1.0
C      1  0.5880020000000  0.5320950000000  0.5301500000000 1.0
C      1  0.5880160000000  0.4578210000000  0.5125500000000 1.0
C      1  0.5879360000000  0.5101990000000  0.4570270000000 1.0
C      1  0.4120330000000  0.5320180000000  0.5303320000000 1.0
C      1  0.4120470000000  0.4577440000000  0.5127330000000 1.0
C      1  0.4119670000000  0.5101230000000  0.4572090000000 1.0
C      1  0.5899290000000  0.5458190000000  0.5033790000000 1.0
C      1  0.5899950000000  0.4741420000000  0.5378180000000 1.0
C      1  0.5899100000000  0.4801560000000  0.4585240000000 1.0
C      1  0.4100390000000  0.5457410000000  0.5035650000000 1.0
C      1  0.4101060000000  0.4740640000000  0.5380040000000 1.0
C      1  0.4100210000000  0.4800780000000  0.4587110000000 1.0
C      1  0.4838650000000  0.4764480000000  0.5499150000000 1.0
C      1  0.4837700000000  0.4685530000000  0.4546770000000 1.0
C      1  0.4837750000000  0.5549780000000  0.4954590000000 1.0
C      1  0.5162590000000  0.4764620000000  0.5498810000000 1.0
C      1  0.5161630000000  0.4685670000000  0.4546430000000 1.0
C      1  0.5161680000000  0.5549930000000  0.4954250000000 1.0
C      1  0.4837780000000  0.5335560000000  0.5379650000000 1.0
C      1  0.4837850000000  0.4503470000000  0.5101100000000 1.0
C      1  0.4836970000000  0.5160750000000  0.4519760000000 1.0
C      1  0.5162710000000  0.5335700000000  0.5379310000000 1.0
C      1  0.5162790000000  0.4503610000000  0.5100760000000 1.0
C      1  0.5161900000000  0.5160890000000  0.4519420000000 1.0
C      1  0.5267660000000  0.5304270000000  0.5094940000000 1.0
C      1  0.5268020000000  0.4765580000000  0.5215520000000 1.0
C      1  0.5267400000000  0.4930500000000  0.4688710000000 1.0
C      1  0.4732270000000  0.5304030000000  0.5095490000000 1.0
C      1  0.4732630000000  0.4765350000000  0.5216070000000 1.0
C      1  0.4732010000000  0.4930270000000  0.4689270000000 1.0
C      1  0.5736970000000  0.4604020000000  0.4868420000000 1.0
C      1  0.5736510000000  0.5311760000000  0.4721440000000 1.0
C      1  0.5737320000000  0.5085180000000  0.5407850000000 1.0
C      1  0.4263110000000  0.4603380000000  0.4869950000000 1.0
C      1  0.4262650000000  0.5311120000000  0.4722970000000 1.0
C      1  0.4263460000000  0.5084540000000  0.5409380000000 1.0
C      1  0.4708990000000  0.5433610000000  0.4549330000000 1.0
C      1  0.4710200000000  0.5173560000000  0.5601410000000 1.0
C      1  0.4709760000000  0.4392460000000  0.4850160000000 1.0
C      1  0.5289700000000  0.5433860000000  0.4548730000000 1.0
C      1  0.5290900000000  0.5173810000000  0.5600810000000 1.0
C      1  0.5290460000000  0.4392710000000  0.4849560000000 1.0
C      1  0.4273420000000  0.4927660000000  0.4406420000000 1.0
C      1  0.4274010000000  0.5550410000000  0.5235550000000 1.0
C      1  0.4274590000000  0.4520990000000  0.5360290000000 1.0
C      1  0.5725410000000  0.4928290000000  0.4404910000000 1.0
C      1  0.5726000000000  0.5551040000000  0.5234040000000 1.0
C      1  0.5726570000000  0.4521620000000  0.5358790000000 1.0
C      1  0.5159090000000  0.5639910000000  0.5438840000000 1.0
C      1  0.5159570000000  0.4299960000000  0.5334450000000 1.0
C      1  0.5158090000000  0.5060340000000  0.4226210000000 1.0
C      1  0.4841260000000  0.5639770000000  0.5439170000000 1.0
C      1  0.4841730000000  0.4299820000000  0.5334780000000 1.0
C      1  0.4840260000000  0.5060200000000  0.4226540000000 1.0
C      1  0.5157410000000  0.4469440000000  0.5590040000000 1.0
C      1  0.5155890000000  0.4754250000000  0.4245200000000 1.0
C      1  0.5156400000000  0.5776510000000  0.5164270000000 1.0
C      1  0.4844280000000  0.4469310000000  0.5590370000000 1.0
C      1  0.4842760000000  0.4754110000000  0.4245520000000 1.0
C      1  0.4843270000000  0.5776380000000  0.5164590000000 1.0
C      1  0.4437220000000  0.4390910000000  0.4819680000000 1.0
C      1  0.4436490000000  0.5460850000000  0.4563760000000 1.0
C      1  0.4437720000000  0.5147510000000  0.5618310000000 1.0
C      1  0.5562940000000  0.4391400000000  0.4818510000000 1.0
C      1  0.5562210000000  0.5461330000000  0.4562600000000 1.0
C      1  0.5563440000000  0.5147990000000  0.5617140000000 1.0
END
