TITL C-3577087-600-374 -4.90330846825316e-06 125000 -890.067422893976 0 0 143 (C1) n - 1
REM
REM in /home/bkarasulu/work/CARBON/AIRSS/Generating-Clusters/EDIP-Nigel-Params/with-SteepDescent/Higher-Symm/SD-CG/HFTN-CG
REM
REM
REM
REM
REM
REM ./C.cell (12c818d87b63d06a65506943cc24bca4)
REM
REM compiler GCC version 9.2.1 20190827 (Red Hat 9.2.1-1)
REM options -cpp -mtune=generic -march=x86-64 -g -O0 -fpre-include=/usr/include/finclude/math-vector-fortran.h
REM seed 84657191 -1797911602 -1330370816 -1346244933 -1190321036 1389539278 1201203700 1115829585 1767821982 2132866347 -1524372805 -7231007 1665093134 -728247304 -1771635237 1322797528 1866899578 732058143 -1622365052 1584484442 -218376596 1340692912 1764714211 -1725830624 -328337722 -948780517 1124676357 -788890886 1057635407 1945764676 -1201123398 983882193 900882682
REM
CELL 1.54180   50.00000   50.00000   50.00000   90.00000   90.00000   90.00000
LATT -1
SFAC C  
C      1  0.5525450000000  0.4174790000000  0.4901730000000 1.0
C      1  0.4389100000000  0.4242750000000  0.4901670000000 1.0
C      1  0.4118220000000  0.5352300000000  0.4914820000000 1.0
C      1  0.5068410000000  0.5977370000000  0.4906930000000 1.0
C      1  0.5938350000000  0.5239700000000  0.4909270000000 1.0
C      1  0.5284520000000  0.4625960000000  0.5421760000000 1.0
C      1  0.4755590000000  0.4586380000000  0.5429210000000 1.0
C      1  0.4581450000000  0.5131390000000  0.5441220000000 1.0
C      1  0.4994250000000  0.5491800000000  0.5438000000000 1.0
C      1  0.5437450000000  0.5159710000000  0.5439830000000 1.0
C      1  0.5469890000000  0.5357840000000  0.4997290000000 1.0
C      1  0.5477650000000  0.4657180000000  0.4996030000000 1.0
C      1  0.4835790000000  0.4423910000000  0.4997410000000 1.0
C      1  0.4455590000000  0.4983800000000  0.4991830000000 1.0
C      1  0.4815210000000  0.5565730000000  0.4996900000000 1.0
C      1  0.4492190000000  0.4564750000000  0.4251920000000 1.0
C      1  0.4433380000000  0.5344950000000  0.4269770000000 1.0
C      1  0.5151380000000  0.5651410000000  0.4266830000000 1.0
C      1  0.5657800000000  0.5061300000000  0.4268720000000 1.0
C      1  0.5256540000000  0.4396910000000  0.4261640000000 1.0
C      1  0.4806050000000  0.5866150000000  0.5015320000000 1.0
C      1  0.5755400000000  0.5454290000000  0.5017850000000 1.0
C      1  0.5667120000000  0.4422920000000  0.5010420000000 1.0
C      1  0.4665450000000  0.4174130000000  0.5009260000000 1.0
C      1  0.4157560000000  0.5063840000000  0.4992310000000 1.0
C      1  0.5502060000000  0.4560040000000  0.4274850000000 1.0
C      1  0.4729060000000  0.4382070000000  0.4257030000000 1.0
C      1  0.4331250000000  0.5065930000000  0.4275490000000 1.0
C      1  0.4856820000000  0.5656770000000  0.4279250000000 1.0
C      1  0.5582010000000  0.5345870000000  0.4273940000000 1.0
C      1  0.5708430000000  0.5729330000000  0.4604410000000 1.0
C      1  0.5905540000000  0.4557970000000  0.4607530000000 1.0
C      1  0.4860520000000  0.4001950000000  0.4591700000000 1.0
C      1  0.4028810000000  0.4837520000000  0.4646530000000 1.0
C      1  0.4530890000000  0.5895030000000  0.4611090000000 1.0
C      1  0.5611850000000  0.4875930000000  0.5145840000000 1.0
C      1  0.5083300000000  0.4345950000000  0.5143550000000 1.0
C      1  0.4441240000000  0.4723530000000  0.5146290000000 1.0
C      1  0.4579420000000  0.5469130000000  0.5151280000000 1.0
C      1  0.5317620000000  0.5568210000000  0.5142150000000 1.0
C      1  0.5547890000000  0.4198440000000  0.4600560000000 1.0
C      1  0.4408800000000  0.4230370000000  0.4599970000000 1.0
C      1  0.4098510000000  0.5328210000000  0.4618060000000 1.0
C      1  0.5035680000000  0.5975060000000  0.4607090000000 1.0
C      1  0.5930400000000  0.5271010000000  0.4608640000000 1.0
C      1  0.4472770000000  0.5618410000000  0.4687670000000 1.0
C      1  0.5427710000000  0.5699940000000  0.4679500000000 1.0
C      1  0.5786890000000  0.4813770000000  0.4683480000000 1.0
C      1  0.5069620000000  0.4186920000000  0.4675020000000 1.0
C      1  0.4268110000000  0.4677280000000  0.4690130000000 1.0
C      1  0.4412250000000  0.4834330000000  0.5723730000000 1.0
C      1  0.4669340000000  0.5530770000000  0.5732160000000 1.0
C      1  0.5385180000000  0.5495240000000  0.5722470000000 1.0
C      1  0.5556050000000  0.4792540000000  0.5726130000000 1.0
C      1  0.4964940000000  0.4355900000000  0.5743460000000 1.0
C      1  0.5193670000000  0.5965470000000  0.5503490000000 1.0
C      1  0.5952260000000  0.5119600000000  0.5505260000000 1.0
C      1  0.5405100000000  0.4124760000000  0.5515080000000 1.0
C      1  0.4292080000000  0.4342290000000  0.5511510000000 1.0
C      1  0.4171530000000  0.5464720000000  0.5496610000000 1.0
C      1  0.5222440000000  0.4133260000000  0.4962260000000 1.0
C      1  0.4272230000000  0.4522810000000  0.4967900000000 1.0
C      1  0.4336320000000  0.5560000000000  0.4972790000000 1.0
C      1  0.5333220000000  0.5825390000000  0.4963420000000 1.0
C      1  0.5869440000000  0.4942890000000  0.4970430000000 1.0
C      1  0.4972200000000  0.4701730000000  0.4528360000000 1.0
C      1  0.4715290000000  0.4904520000000  0.4517260000000 1.0
C      1  0.4857180000000  0.5224550000000  0.4591640000000 1.0
C      1  0.5187470000000  0.5208250000000  0.4561770000000 1.0
C      1  0.5240860000000  0.4883930000000  0.4577770000000 1.0
C      1  0.5493310000000  0.5622730000000  0.5423120000000 1.0
C      1  0.5719610000000  0.4726000000000  0.5424500000000 1.0
C      1  0.4959940000000  0.4194890000000  0.5436920000000 1.0
C      1  0.4263060000000  0.4790800000000  0.5416670000000 1.0
C      1  0.4581680000000  0.5661870000000  0.5428240000000 1.0
C      1  0.4721480000000  0.4644460000000  0.5159710000000 1.0
C      1  0.4654150000000  0.5169900000000  0.5159070000000 1.0
C      1  0.5043590000000  0.5438540000000  0.5156350000000 1.0
C      1  0.5391780000000  0.5102910000000  0.5156110000000 1.0
C      1  0.5230370000000  0.4601940000000  0.5149460000000 1.0
C      1  0.4457900000000  0.6003860000000  0.5111760000000 1.0
C      1  0.5788860000000  0.5829350000000  0.5106810000000 1.0
C      1  0.6025410000000  0.4511370000000  0.5120220000000 1.0
C      1  0.4857730000000  0.3858480000000  0.5116740000000 1.0
C      1  0.3902950000000  0.4791250000000  0.5096220000000 1.0
C      1  0.4283250000000  0.5706420000000  0.5423860000000 1.0
C      1  0.5454580000000  0.5921080000000  0.5421060000000 1.0
C      1  0.5990600000000  0.4857300000000  0.5427430000000 1.0
C      1  0.5178310000000  0.3989030000000  0.5429090000000 1.0
C      1  0.4111240000000  0.4531260000000  0.5421650000000 1.0
C      1  0.5597600000000  0.5317720000000  0.5819410000000 1.0
C      1  0.5422240000000  0.4546460000000  0.5828820000000 1.0
C      1  0.4688400000000  0.4422090000000  0.5829200000000 1.0
C      1  0.4350600000000  0.5106560000000  0.5815270000000 1.0
C      1  0.4903850000000  0.5681010000000  0.5826480000000 1.0
C      1  0.5120180000000  0.4615440000000  0.5766740000000 1.0
C      1  0.4697720000000  0.4738780000000  0.5771810000000 1.0
C      1  0.4703020000000  0.5220500000000  0.5718970000000 1.0
C      1  0.5098080000000  0.5373450000000  0.5710500000000 1.0
C      1  0.5360200000000  0.5034140000000  0.5714390000000 1.0
C      1  0.4510210000000  0.4856950000000  0.4725150000000 1.0
C      1  0.4747810000000  0.5479890000000  0.4718620000000 1.0
C      1  0.5366390000000  0.5397750000000  0.4720550000000 1.0
C      1  0.5480560000000  0.4769790000000  0.4721430000000 1.0
C      1  0.4945150000000  0.4467550000000  0.4720720000000 1.0
C      1  0.4858850000000  0.5212030000000  0.4049790000000 1.0
C      1  0.5150150000000  0.5204370000000  0.4055030000000 1.0
C      1  0.5236570000000  0.4926540000000  0.4047430000000 1.0
C      1  0.4995810000000  0.4755820000000  0.4037560000000 1.0
C      1  0.4758360000000  0.4934740000000  0.4035460000000 1.0
C      1  0.4788340000000  0.5858820000000  0.4489440000000 1.0
C      1  0.5757090000000  0.5477920000000  0.4479410000000 1.0
C      1  0.5683500000000  0.4433300000000  0.4478500000000 1.0
C      1  0.4672650000000  0.4181740000000  0.4474740000000 1.0
C      1  0.4134230000000  0.5060160000000  0.4503750000000 1.0
C      1  0.5257600000000  0.5831250000000  0.4473030000000 1.0
C      1  0.5857610000000  0.5016500000000  0.4477540000000 1.0
C      1  0.5282950000000  0.4187740000000  0.4468370000000 1.0
C      1  0.4308510000000  0.4477500000000  0.4471340000000 1.0
C      1  0.4297300000000  0.5496560000000  0.4481690000000 1.0
C      1  0.5781390000000  0.5602560000000  0.5292690000000 1.0
C      1  0.5797770000000  0.4445910000000  0.5296070000000 1.0
C      1  0.4719560000000  0.4048830000000  0.5295920000000 1.0
C      1  0.4050300000000  0.4973540000000  0.5271180000000 1.0
C      1  0.4677660000000  0.5932620000000  0.5293210000000 1.0
C      1  0.4569840000000  0.4376860000000  0.5550490000000 1.0
C      1  0.4298100000000  0.5217230000000  0.5540870000000 1.0
C      1  0.4992550000000  0.5774340000000  0.5556430000000 1.0
C      1  0.5708210000000  0.5252790000000  0.5548800000000 1.0
C      1  0.5443150000000  0.4403060000000  0.5553670000000 1.0
C      1  0.5467270000000  0.4846630000000  0.4206240000000 1.0
C      1  0.4990420000000  0.4548760000000  0.4256460000000 1.0
C      1  0.4562240000000  0.4864950000000  0.4253070000000 1.0
C      1  0.4716180000000  0.5404760000000  0.4213260000000 1.0
C      1  0.5302700000000  0.5409330000000  0.4193300000000 1.0
C      1  0.6076720000000  0.4797770000000  0.5143290000000 1.0
C      1  0.5147740000000  0.3894210000000  0.5140910000000 1.0
C      1  0.4015450000000  0.4524450000000  0.5133730000000 1.0
C      1  0.4249100000000  0.5801570000000  0.5138810000000 1.0
C      1  0.5537760000000  0.5976850000000  0.5133550000000 1.0
C      1  0.5001960000000  0.4986830000000  0.5763110000000 1.0
C      1  0.4994570000000  0.5027330000000  0.4836140000000 1.0
C      1  0.5040930000000  0.5127740000000  0.5116200000000 1.0
END
