TITL C-3578197-9521-250 -5.78209685207645e-06 125000 -569.009607276566 0 0 91 (C1) n - 1
REM
REM in /home/bkarasulu/work/CARBON/AIRSS/Generating-Clusters/EDIP-Nigel-Params/with-SteepDescent/Higher-Symm/SD-CG/HFTN-CG
REM
REM
REM
REM
REM
REM ./C.cell (12c818d87b63d06a65506943cc24bca4)
REM
REM compiler GCC version 9.2.1 20190827 (Red Hat 9.2.1-1)
REM options -cpp -mtune=generic -march=x86-64 -g -O0 -fpre-include=/usr/include/finclude/math-vector-fortran.h
REM seed -830548179 -72755657 -830007930 -1461164246 -605850275 -374822492 -204839451 -1553938958 -2134520149 914136807 -1804688944 1003650349 1598648249 -806893989 1209404942 -267114101 -449162516 1786339612 -1912942355 1245139685 -1658614408 -1008269279 -1833874588 251010157 -1741768534 -1970287791 389373846 -717915975 -1808456732 1117707958 1715083201 -615385729 -846094184
REM
CELL 1.54180   50.00000   50.00000   50.00000   90.00000   90.00000   90.00000
LATT -1
SFAC C  
C      1  0.5144930000000  0.4655040000000  0.5675620000000 1.0
C      1  0.4840720000000  0.5351670000000  0.5690530000000 1.0
C      1  0.5143950000000  0.5346960000000  0.5674900000000 1.0
C      1  0.4841900000000  0.4651570000000  0.5688840000000 1.0
C      1  0.5161690000000  0.5153820000000  0.4698770000000 1.0
C      1  0.4836730000000  0.4845300000000  0.4696610000000 1.0
C      1  0.5162330000000  0.4846440000000  0.4694540000000 1.0
C      1  0.4829830000000  0.5150980000000  0.4705550000000 1.0
C      1  0.5757750000000  0.4705800000000  0.4987330000000 1.0
C      1  0.4240300000000  0.5296150000000  0.4983290000000 1.0
C      1  0.5757130000000  0.5295960000000  0.4987280000000 1.0
C      1  0.4243490000000  0.4711840000000  0.4984720000000 1.0
C      1  0.4420820000000  0.4696220000000  0.4524740000000 1.0
C      1  0.5577640000000  0.5309800000000  0.4526220000000 1.0
C      1  0.4409630000000  0.5314360000000  0.4524130000000 1.0
C      1  0.5579350000000  0.4690770000000  0.4525550000000 1.0
C      1  0.5494490000000  0.5707780000000  0.5149600000000 1.0
C      1  0.4501460000000  0.4297360000000  0.5147640000000 1.0
C      1  0.5494420000000  0.4294670000000  0.5149670000000 1.0
C      1  0.4502010000000  0.5707510000000  0.5148220000000 1.0
C      1  0.5697220000000  0.5146410000000  0.5233620000000 1.0
C      1  0.4295350000000  0.4856600000000  0.5233560000000 1.0
C      1  0.5697420000000  0.4855500000000  0.5233510000000 1.0
C      1  0.4290750000000  0.5147060000000  0.5232800000000 1.0
C      1  0.5358240000000  0.5146900000000  0.5614790000000 1.0
C      1  0.4625960000000  0.4853460000000  0.5623650000000 1.0
C      1  0.5359180000000  0.4854820000000  0.5615310000000 1.0
C      1  0.4625230000000  0.5149240000000  0.5623180000000 1.0
C      1  0.4774530000000  0.4397170000000  0.5543770000000 1.0
C      1  0.5217590000000  0.5603070000000  0.5541910000000 1.0
C      1  0.4774010000000  0.5606140000000  0.5544150000000 1.0
C      1  0.5218160000000  0.4398960000000  0.5542250000000 1.0
C      1  0.5185500000000  0.4714070000000  0.5236870000000 1.0
C      1  0.4824440000000  0.5280610000000  0.5254910000000 1.0
C      1  0.5185260000000  0.5288020000000  0.5236180000000 1.0
C      1  0.4821100000000  0.4721890000000  0.5253160000000 1.0
C      1  0.5312020000000  0.5189260000000  0.4430820000000 1.0
C      1  0.4685600000000  0.4812000000000  0.4427330000000 1.0
C      1  0.5314080000000  0.4810000000000  0.4427110000000 1.0
C      1  0.4678930000000  0.5190260000000  0.4437590000000 1.0
C      1  0.4846120000000  0.5885780000000  0.4789850000000 1.0
C      1  0.5148910000000  0.4115930000000  0.4789430000000 1.0
C      1  0.4846810000000  0.4119500000000  0.4790640000000 1.0
C      1  0.5148500000000  0.5886300000000  0.4788810000000 1.0
C      1  0.5271830000000  0.5688460000000  0.4600020000000 1.0
C      1  0.4726720000000  0.4318390000000  0.4603460000000 1.0
C      1  0.5273240000000  0.4312630000000  0.4599940000000 1.0
C      1  0.4722710000000  0.5687120000000  0.4603530000000 1.0
C      1  0.4466410000000  0.5571260000000  0.4665680000000 1.0
C      1  0.5527470000000  0.4432630000000  0.4664390000000 1.0
C      1  0.4472260000000  0.4438330000000  0.4664580000000 1.0
C      1  0.5526070000000  0.5568420000000  0.4664400000000 1.0
C      1  0.5715570000000  0.5147410000000  0.4735110000000 1.0
C      1  0.4295890000000  0.4860650000000  0.4737670000000 1.0
C      1  0.5715870000000  0.4853860000000  0.4734990000000 1.0
C      1  0.4251590000000  0.5150470000000  0.4722700000000 1.0
C      1  0.5238330000000  0.5854820000000  0.5083940000000 1.0
C      1  0.4756460000000  0.4149130000000  0.5083610000000 1.0
C      1  0.5238290000000  0.4148100000000  0.5084340000000 1.0
C      1  0.4756890000000  0.5855890000000  0.5083840000000 1.0
C      1  0.5149930000000  0.5495360000000  0.4978210000000 1.0
C      1  0.4849050000000  0.4511300000000  0.4983620000000 1.0
C      1  0.5150550000000  0.4507310000000  0.4977030000000 1.0
C      1  0.4848490000000  0.5494350000000  0.4981770000000 1.0
C      1  0.4517790000000  0.4436180000000  0.5410080000000 1.0
C      1  0.5479130000000  0.5568870000000  0.5413910000000 1.0
C      1  0.4518540000000  0.5566010000000  0.5408890000000 1.0
C      1  0.5479640000000  0.4433130000000  0.5414040000000 1.0
C      1  0.4409230000000  0.4478820000000  0.4941650000000 1.0
C      1  0.5590350000000  0.5529370000000  0.4942180000000 1.0
C      1  0.4407930000000  0.5528180000000  0.4941990000000 1.0
C      1  0.5591110000000  0.4472320000000  0.4942180000000 1.0
C      1  0.4661110000000  0.4839120000000  0.4985030000000 1.0
C      1  0.5341560000000  0.5165920000000  0.4970670000000 1.0
C      1  0.4659520000000  0.5169140000000  0.4991730000000 1.0
C      1  0.5341840000000  0.4835470000000  0.4970510000000 1.0
C      1  0.4848240000000  0.5399410000000  0.4289300000000 1.0
C      1  0.5147190000000  0.4596940000000  0.4282350000000 1.0
C      1  0.4852040000000  0.4598320000000  0.4282070000000 1.0
C      1  0.5143310000000  0.5400660000000  0.4286700000000 1.0
C      1  0.4429690000000  0.5286870000000  0.5450000000000 1.0
C      1  0.5567160000000  0.4715370000000  0.5456200000000 1.0
C      1  0.4429050000000  0.4715410000000  0.5452640000000 1.0
C      1  0.5566590000000  0.5286510000000  0.5456230000000 1.0
C      1  0.5225800000000  0.4325760000000  0.4321710000000 1.0
C      1  0.4770380000000  0.5671340000000  0.4325430000000 1.0
C      1  0.5222680000000  0.5672230000000  0.4322180000000 1.0
C      1  0.4773130000000  0.4327890000000  0.4324920000000 1.0
C      1  0.4997430000000  0.5677520000000  0.5338070000000 1.0
C      1  0.4997520000000  0.4325920000000  0.5338160000000 1.0
C      1  0.5026130000000  0.4998970000000  0.5363390000000 1.0
END
