TITL C-3577090-796-370 -3.15849087763841e-07 125000 -322.465429071514 0 0 50 (D3) n - 1
REM
REM in /home/bkarasulu/work/CARBON/AIRSS/Generating-Clusters/EDIP-Nigel-Params/with-SteepDescent/Higher-Symm/SD-CG/HFTN-CG
REM
REM
REM
REM
REM
REM ./C.cell (12c818d87b63d06a65506943cc24bca4)
REM
REM compiler GCC version 9.2.1 20190827 (Red Hat 9.2.1-1)
REM options -cpp -mtune=generic -march=x86-64 -g -O0 -fpre-include=/usr/include/finclude/math-vector-fortran.h
REM seed -159038533 889025094 -1667773785 -1283215958 -1952774007 1896696602 -1363332582 -1348983732 -1072131614 559599622 -1989945876 -1987212701 -1759612312 228785549 -622724619 1173761414 1223904039 -58645640 1363445661 2027892326 -1615143567 1998984694 -2116766198 699033245 2115080509 -1161346409 1868416230 1351445916 -695039558 943564209 1374592779 184891761 -2095737062
REM
CELL 1.54180   50.00000   50.00000   50.00000   90.00000   90.00000   90.00000
LATT -1
SFAC C  
C      1  0.4707790000000  0.5614830000000  0.5021830000000 1.0
C      1  0.4620800000000  0.4429330000000  0.5027080000000 1.0
C      1  0.5690950000000  0.4946720000000  0.5017170000000 1.0
C      1  0.5303300000000  0.5615220000000  0.4947330000000 1.0
C      1  0.5393010000000  0.4429920000000  0.4951270000000 1.0
C      1  0.4321680000000  0.4944910000000  0.4957180000000 1.0
C      1  0.5268080000000  0.5403960000000  0.5422510000000 1.0
C      1  0.4529090000000  0.5019770000000  0.5429470000000 1.0
C      1  0.5231320000000  0.4571860000000  0.5426020000000 1.0
C      1  0.4743500000000  0.5399970000000  0.4548300000000 1.0
C      1  0.5483370000000  0.5017430000000  0.4544320000000 1.0
C      1  0.4782170000000  0.4567950000000  0.4551250000000 1.0
C      1  0.5172300000000  0.5591540000000  0.5215950000000 1.0
C      1  0.4411560000000  0.4843150000000  0.5224480000000 1.0
C      1  0.5440060000000  0.4558490000000  0.5217990000000 1.0
C      1  0.4838850000000  0.5589370000000  0.4753400000000 1.0
C      1  0.5601310000000  0.4842680000000  0.4750670000000 1.0
C      1  0.4573460000000  0.4555720000000  0.4759380000000 1.0
C      1  0.5124660000000  0.5656990000000  0.4704850000000 1.0
C      1  0.4371310000000  0.4769460000000  0.4713860000000 1.0
C      1  0.5516610000000  0.4560770000000  0.4706210000000 1.0
C      1  0.4886330000000  0.5658890000000  0.5263980000000 1.0
C      1  0.5641720000000  0.4773050000000  0.5261840000000 1.0
C      1  0.4496900000000  0.4561790000000  0.5271120000000 1.0
C      1  0.4974860000000  0.5290800000000  0.4395620000000 1.0
C      1  0.4758840000000  0.4822990000000  0.4399040000000 1.0
C      1  0.5271980000000  0.4869800000000  0.4395070000000 1.0
C      1  0.5036970000000  0.5295450000000  0.5576030000000 1.0
C      1  0.5254060000000  0.4828120000000  0.5576240000000 1.0
C      1  0.4740820000000  0.4873780000000  0.5579860000000 1.0
C      1  0.4494160000000  0.4947250000000  0.4492310000000 1.0
C      1  0.5298040000000  0.4578390000000  0.4487810000000 1.0
C      1  0.5215510000000  0.5459010000000  0.4485000000000 1.0
C      1  0.5518460000000  0.4952260000000  0.5482000000000 1.0
C      1  0.4715420000000  0.4581610000000  0.5489380000000 1.0
C      1  0.4795930000000  0.5462410000000  0.5485360000000 1.0
C      1  0.5606670000000  0.5223020000000  0.5086110000000 1.0
C      1  0.4511660000000  0.5403660000000  0.5093500000000 1.0
C      1  0.4902750000000  0.4365020000000  0.5094650000000 1.0
C      1  0.4405330000000  0.5220860000000  0.4886090000000 1.0
C      1  0.5499920000000  0.5403950000000  0.4877300000000 1.0
C      1  0.5111210000000  0.4364440000000  0.4884210000000 1.0
C      1  0.5438430000000  0.5302020000000  0.4608500000000 1.0
C      1  0.4520450000000  0.5218730000000  0.4615610000000 1.0
C      1  0.5051590000000  0.4465360000000  0.4614610000000 1.0
C      1  0.4573370000000  0.5303950000000  0.5363070000000 1.0
C      1  0.5491540000000  0.5222720000000  0.5356610000000 1.0
C      1  0.4962140000000  0.4468160000000  0.5363450000000 1.0
C      1  0.5001990000000  0.4994580000000  0.4410040000000 1.0
C      1  0.5010520000000  0.4999070000000  0.5563910000000 1.0
END
