TITL C-3578208-4450-270 -5.93364082857309e-07 125000 -685.260627359915 0 0 111 (C1) n - 1
REM
REM in /home/bkarasulu/work/CARBON/AIRSS/Generating-Clusters/EDIP-Nigel-Params/with-SteepDescent/Higher-Symm/SD-CG/HFTN-CG
REM
REM
REM
REM
REM
REM ./C.cell (12c818d87b63d06a65506943cc24bca4)
REM
REM compiler GCC version 9.2.1 20190827 (Red Hat 9.2.1-1)
REM options -cpp -mtune=generic -march=x86-64 -g -O0 -fpre-include=/usr/include/finclude/math-vector-fortran.h
REM seed 980696649 -401968815 -628430444 -547980697 -1673918780 -1895069645 265478727 -2066525592 145421731 458270148 -1058445722 -875095250 -1791607864 747721102 2022303935 692571131 -1607168215 319607561 -1589471689 -812126109 1001497770 -299824782 2131013657 -1473115608 -1381036206 2100767893 2141836349 -505331693 -2054382830 -1983404834 1005508054 1762642529 1480731283
REM
CELL 1.54180   50.00000   50.00000   50.00000   90.00000   90.00000   90.00000
LATT -1
SFAC C  
C      1  0.4419690000000  0.5831490000000  0.5698940000000 1.0
C      1  0.4592420000000  0.5807290000000  0.4187300000000 1.0
C      1  0.5772770000000  0.6023130000000  0.5172650000000 1.0
C      1  0.4352660000000  0.4207980000000  0.5679580000000 1.0
C      1  0.4615750000000  0.4182390000000  0.4135940000000 1.0
C      1  0.5808990000000  0.4034800000000  0.5168460000000 1.0
C      1  0.4359280000000  0.5820150000000  0.4350660000000 1.0
C      1  0.4660440000000  0.5803390000000  0.5847700000000 1.0
C      1  0.5778640000000  0.5988710000000  0.4893340000000 1.0
C      1  0.4376260000000  0.4163130000000  0.4288860000000 1.0
C      1  0.4586550000000  0.4234080000000  0.5840420000000 1.0
C      1  0.5812960000000  0.4014330000000  0.4883510000000 1.0
C      1  0.4756180000000  0.4523770000000  0.5123740000000 1.0
C      1  0.5013670000000  0.4460910000000  0.4712650000000 1.0
C      1  0.5250870000000  0.4538000000000  0.5130920000000 1.0
C      1  0.4766060000000  0.5430980000000  0.5160340000000 1.0
C      1  0.5010470000000  0.5508650000000  0.4739820000000 1.0
C      1  0.5268910000000  0.5469060000000  0.5156260000000 1.0
C      1  0.4759910000000  0.4517390000000  0.4836550000000 1.0
C      1  0.5003260000000  0.4480310000000  0.5261740000000 1.0
C      1  0.5259550000000  0.4525590000000  0.4844430000000 1.0
C      1  0.4763270000000  0.5448700000000  0.4871960000000 1.0
C      1  0.5019120000000  0.5450260000000  0.5296710000000 1.0
C      1  0.5260340000000  0.5463860000000  0.4870680000000 1.0
C      1  0.5099590000000  0.5125360000000  0.5870640000000 1.0
C      1  0.4225100000000  0.5125670000000  0.4595560000000 1.0
C      1  0.5775250000000  0.5101600000000  0.4524930000000 1.0
C      1  0.5041050000000  0.4848370000000  0.5934230000000 1.0
C      1  0.4213770000000  0.4839430000000  0.4558370000000 1.0
C      1  0.5877760000000  0.4835500000000  0.4472610000000 1.0
C      1  0.5056750000000  0.5153800000000  0.4082060000000 1.0
C      1  0.4209860000000  0.5156960000000  0.5451210000000 1.0
C      1  0.5883880000000  0.5190320000000  0.5527910000000 1.0
C      1  0.5078040000000  0.4855940000000  0.4095100000000 1.0
C      1  0.4249850000000  0.4889200000000  0.5358210000000 1.0
C      1  0.5770790000000  0.4927710000000  0.5478580000000 1.0
C      1  0.4271040000000  0.5491900000000  0.5168500000000 1.0
C      1  0.5253330000000  0.5525560000000  0.4298130000000 1.0
C      1  0.5529520000000  0.5549650000000  0.5569350000000 1.0
C      1  0.4258310000000  0.4514500000000  0.5124100000000 1.0
C      1  0.5271270000000  0.4466600000000  0.4280320000000 1.0
C      1  0.5489780000000  0.4540650000000  0.5549490000000 1.0
C      1  0.4268900000000  0.5462250000000  0.4879770000000 1.0
C      1  0.5284910000000  0.5496110000000  0.5716980000000 1.0
C      1  0.5497970000000  0.5488950000000  0.4451690000000 1.0
C      1  0.4259420000000  0.4495490000000  0.4833340000000 1.0
C      1  0.5245780000000  0.4492960000000  0.5701380000000 1.0
C      1  0.5518190000000  0.4476920000000  0.4437840000000 1.0
C      1  0.5512180000000  0.5887190000000  0.5156670000000 1.0
C      1  0.4585840000000  0.5770270000000  0.5463120000000 1.0
C      1  0.4800810000000  0.5770960000000  0.4395130000000 1.0
C      1  0.5539580000000  0.4158500000000  0.5182510000000 1.0
C      1  0.4537270000000  0.4233680000000  0.5450510000000 1.0
C      1  0.4815550000000  0.4210840000000  0.4352920000000 1.0
C      1  0.5522710000000  0.5860660000000  0.4824830000000 1.0
C      1  0.4544030000000  0.5770880000000  0.4575650000000 1.0
C      1  0.4853320000000  0.5751820000000  0.5629470000000 1.0
C      1  0.5545330000000  0.4136920000000  0.4845150000000 1.0
C      1  0.4551160000000  0.4204020000000  0.4523100000000 1.0
C      1  0.4793780000000  0.4249560000000  0.5628760000000 1.0
C      1  0.4632390000000  0.4651260000000  0.4041730000000 1.0
C      1  0.5725980000000  0.4600660000000  0.5128080000000 1.0
C      1  0.4375830000000  0.4655720000000  0.5745380000000 1.0
C      1  0.4602710000000  0.5351090000000  0.4065150000000 1.0
C      1  0.5766960000000  0.5467900000000  0.5148100000000 1.0
C      1  0.4434700000000  0.5377670000000  0.5813620000000 1.0
C      1  0.4572010000000  0.4707280000000  0.5925070000000 1.0
C      1  0.5749030000000  0.4577360000000  0.4851500000000 1.0
C      1  0.4409070000000  0.4606180000000  0.4189830000000 1.0
C      1  0.4678130000000  0.5346000000000  0.5929380000000 1.0
C      1  0.5739010000000  0.5432960000000  0.4869240000000 1.0
C      1  0.4390760000000  0.5384690000000  0.4232150000000 1.0
C      1  0.4063220000000  0.4663600000000  0.4717310000000 1.0
C      1  0.5725590000000  0.4638390000000  0.4342530000000 1.0
C      1  0.5230930000000  0.4640290000000  0.5942650000000 1.0
C      1  0.4076610000000  0.5281830000000  0.4776360000000 1.0
C      1  0.5681400000000  0.5300050000000  0.4352060000000 1.0
C      1  0.5310110000000  0.5303780000000  0.5925810000000 1.0
C      1  0.4077200000000  0.4711660000000  0.5223300000000 1.0
C      1  0.5671070000000  0.4731200000000  0.5650580000000 1.0
C      1  0.5267320000000  0.4647130000000  0.4059950000000 1.0
C      1  0.4068060000000  0.5343540000000  0.5296600000000 1.0
C      1  0.5748840000000  0.5399740000000  0.5658360000000 1.0
C      1  0.5246670000000  0.5361930000000  0.4065730000000 1.0
C      1  0.5822750000000  0.5175090000000  0.4795390000000 1.0
C      1  0.4871870000000  0.5252890000000  0.5735380000000 1.0
C      1  0.4460160000000  0.5266610000000  0.4486970000000 1.0
C      1  0.5948280000000  0.4754460000000  0.4740880000000 1.0
C      1  0.4799370000000  0.4785850000000  0.5778270000000 1.0
C      1  0.4459000000000  0.4711640000000  0.4454330000000 1.0
C      1  0.5957020000000  0.5266610000000  0.5251920000000 1.0
C      1  0.4808670000000  0.5231630000000  0.4217750000000 1.0
C      1  0.4465740000000  0.5272680000000  0.5546300000000 1.0
C      1  0.5822380000000  0.4847350000000  0.5213360000000 1.0
C      1  0.4826050000000  0.4764430000000  0.4214630000000 1.0
C      1  0.4470780000000  0.4746330000000  0.5486720000000 1.0
C      1  0.4510650000000  0.4500010000000  0.5291630000000 1.0
C      1  0.5009410000000  0.4422340000000  0.4425010000000 1.0
C      1  0.5504560000000  0.4455520000000  0.5258800000000 1.0
C      1  0.4526210000000  0.5494000000000  0.5330930000000 1.0
C      1  0.4996110000000  0.5556390000000  0.4452070000000 1.0
C      1  0.5519670000000  0.5593540000000  0.5270570000000 1.0
C      1  0.4513770000000  0.4479260000000  0.4666420000000 1.0
C      1  0.4989520000000  0.4455750000000  0.5551710000000 1.0
C      1  0.5519330000000  0.4423810000000  0.4733990000000 1.0
C      1  0.4514940000000  0.5489770000000  0.4707510000000 1.0
C      1  0.5007860000000  0.5495940000000  0.5588670000000 1.0
C      1  0.5506660000000  0.5567310000000  0.4744050000000 1.0
C      1  0.4714950000000  0.4993620000000  0.4379750000000 1.0
C      1  0.4740200000000  0.5007520000000  0.5569290000000 1.0
C      1  0.5970780000000  0.5021790000000  0.5015960000000 1.0
END
