TITL C-3577089-586-512 1.3792767599733e-06 125000 -1218.31171446283 0 0 194 (C1) n - 1
REM
REM in /home/bkarasulu/work/CARBON/AIRSS/Generating-Clusters/EDIP-Nigel-Params/with-SteepDescent/Higher-Symm/SD-CG/HFTN-CG
REM
REM
REM
REM
REM
REM ./C.cell (12c818d87b63d06a65506943cc24bca4)
REM
REM compiler GCC version 9.2.1 20190827 (Red Hat 9.2.1-1)
REM options -cpp -mtune=generic -march=x86-64 -g -O0 -fpre-include=/usr/include/finclude/math-vector-fortran.h
REM seed 1653869436 -690827492 1526827373 -1533210295 849680146 163165127 -70929566 2036624574 239566893 1799144807 -897652359 -1531115422 -1804401027 -1182687460 -632074903 1844622637 173063407 -14024987 1993121687 -1471918612 -1088585696 -1190860530 334585732 -1460209411 747552892 -1756659439 1976616840 1152699991 1783821364 -1876111939 1822231675 -1826921291 -132031946
REM
CELL 1.54180   50.00000   50.00000   50.00000   90.00000   90.00000   90.00000
LATT -1
SFAC C  
C      1  0.4714220000000  0.4483920000000  0.4436800000000 1.0
C      1  0.5190080000000  0.4625530000000  0.5018540000000 1.0
C      1  0.4871800000000  0.5626370000000  0.4958850000000 1.0
C      1  0.5553200000000  0.5149990000000  0.3868510000000 1.0
C      1  0.5865550000000  0.5076570000000  0.5789100000000 1.0
C      1  0.5372050000000  0.4922580000000  0.3912350000000 1.0
C      1  0.4190100000000  0.4159410000000  0.5162880000000 1.0
C      1  0.5896310000000  0.5627660000000  0.4841590000000 1.0
C      1  0.4445440000000  0.5510820000000  0.4356900000000 1.0
C      1  0.4100670000000  0.5437200000000  0.4712040000000 1.0
C      1  0.6085260000000  0.4535270000000  0.5061970000000 1.0
C      1  0.5571820000000  0.5062240000000  0.4457950000000 1.0
C      1  0.5703830000000  0.5701540000000  0.5467140000000 1.0
C      1  0.6104930000000  0.4987540000000  0.4496150000000 1.0
C      1  0.5486910000000  0.5412210000000  0.5809980000000 1.0
C      1  0.5362680000000  0.4217100000000  0.5225410000000 1.0
C      1  0.5748710000000  0.4905260000000  0.5038540000000 1.0
C      1  0.5516450000000  0.4929760000000  0.5487040000000 1.0
C      1  0.4128400000000  0.5417820000000  0.5529840000000 1.0
C      1  0.4089470000000  0.4301550000000  0.4670860000000 1.0
C      1  0.5446790000000  0.5223720000000  0.5479120000000 1.0
C      1  0.3854440000000  0.5021880000000  0.4514120000000 1.0
C      1  0.4832310000000  0.6097890000000  0.5327220000000 1.0
C      1  0.4214540000000  0.5071380000000  0.5866820000000 1.0
C      1  0.4367910000000  0.4957850000000  0.4034780000000 1.0
C      1  0.5630090000000  0.4605090000000  0.4970500000000 1.0
C      1  0.5835850000000  0.4384710000000  0.5033030000000 1.0
C      1  0.4429400000000  0.4251030000000  0.4334100000000 1.0
C      1  0.4654890000000  0.5806820000000  0.5667890000000 1.0
C      1  0.4615990000000  0.5754140000000  0.4464680000000 1.0
C      1  0.5384500000000  0.4660570000000  0.5458700000000 1.0
C      1  0.5804990000000  0.4805670000000  0.4116070000000 1.0
C      1  0.4947830000000  0.4428930000000  0.5610990000000 1.0
C      1  0.5377700000000  0.4634400000000  0.6040660000000 1.0
C      1  0.5951840000000  0.4925390000000  0.5280220000000 1.0
C      1  0.5780140000000  0.5865980000000  0.5249050000000 1.0
C      1  0.5457680000000  0.5200950000000  0.4676090000000 1.0
C      1  0.4992440000000  0.4897790000000  0.5683980000000 1.0
C      1  0.5392250000000  0.6046220000000  0.5372750000000 1.0
C      1  0.5010090000000  0.4221140000000  0.4085320000000 1.0
C      1  0.4712800000000  0.4632040000000  0.4177950000000 1.0
C      1  0.4998870000000  0.6139590000000  0.5556640000000 1.0
C      1  0.3758390000000  0.4812030000000  0.5278650000000 1.0
C      1  0.4206110000000  0.4205400000000  0.5451600000000 1.0
C      1  0.3799140000000  0.4480150000000  0.5059170000000 1.0
C      1  0.4768650000000  0.3903160000000  0.5443640000000 1.0
C      1  0.5422860000000  0.4812730000000  0.4383670000000 1.0
C      1  0.5321250000000  0.5484550000000  0.4538000000000 1.0
C      1  0.5420470000000  0.4453590000000  0.4057130000000 1.0
C      1  0.4187060000000  0.5216800000000  0.4900970000000 1.0
C      1  0.4897980000000  0.5522610000000  0.5978960000000 1.0
C      1  0.5788050000000  0.4962570000000  0.6030970000000 1.0
C      1  0.5238240000000  0.5021390000000  0.4748860000000 1.0
C      1  0.6094420000000  0.4662970000000  0.5320340000000 1.0
C      1  0.6074170000000  0.5392030000000  0.5370800000000 1.0
C      1  0.5512130000000  0.4733180000000  0.4101950000000 1.0
C      1  0.4291370000000  0.4690420000000  0.5560090000000 1.0
C      1  0.4522540000000  0.4083260000000  0.4791520000000 1.0
C      1  0.4415590000000  0.5751760000000  0.4916050000000 1.0
C      1  0.5199310000000  0.5105620000000  0.6066120000000 1.0
C      1  0.5214260000000  0.4183550000000  0.5755870000000 1.0
C      1  0.3886390000000  0.4553110000000  0.5308050000000 1.0
C      1  0.5135990000000  0.4459630000000  0.4016080000000 1.0
C      1  0.5006480000000  0.5194000000000  0.4724990000000 1.0
C      1  0.5213420000000  0.4113610000000  0.5464000000000 1.0
C      1  0.5616710000000  0.4768190000000  0.6097190000000 1.0
C      1  0.5797990000000  0.4901860000000  0.5551000000000 1.0
C      1  0.5802060000000  0.5097870000000  0.4037400000000 1.0
C      1  0.5138820000000  0.4803290000000  0.6115580000000 1.0
C      1  0.5222350000000  0.4522850000000  0.4736670000000 1.0
C      1  0.4428660000000  0.4578860000000  0.4609620000000 1.0
C      1  0.4024510000000  0.5161390000000  0.4335700000000 1.0
C      1  0.5931890000000  0.5333440000000  0.4789960000000 1.0
C      1  0.4255090000000  0.4461890000000  0.4223420000000 1.0
C      1  0.4259640000000  0.5626650000000  0.5378440000000 1.0
C      1  0.5991880000000  0.5265960000000  0.4484310000000 1.0
C      1  0.5106610000000  0.5457410000000  0.4852690000000 1.0
C      1  0.4751150000000  0.5874140000000  0.3942340000000 1.0
C      1  0.4177720000000  0.4910040000000  0.4831590000000 1.0
C      1  0.5840570000000  0.4160880000000  0.4864370000000 1.0
C      1  0.5258010000000  0.4216980000000  0.4703480000000 1.0
C      1  0.4915220000000  0.5668820000000  0.5254580000000 1.0
C      1  0.4855460000000  0.4973780000000  0.5270950000000 1.0
C      1  0.4813540000000  0.4670010000000  0.5230380000000 1.0
C      1  0.5171400000000  0.5551910000000  0.5354350000000 1.0
C      1  0.4948070000000  0.5418010000000  0.3863270000000 1.0
C      1  0.5336260000000  0.5909520000000  0.4645600000000 1.0
C      1  0.4321750000000  0.4147320000000  0.4584910000000 1.0
C      1  0.4112250000000  0.5049550000000  0.4096120000000 1.0
C      1  0.3970130000000  0.5215160000000  0.5104040000000 1.0
C      1  0.5865060000000  0.4515660000000  0.4519760000000 1.0
C      1  0.6038550000000  0.4737680000000  0.4858640000000 1.0
C      1  0.5110220000000  0.4847690000000  0.4362350000000 1.0
C      1  0.5402800000000  0.4515000000000  0.5184440000000 1.0
C      1  0.5670830000000  0.5200890000000  0.4910590000000 1.0
C      1  0.4975450000000  0.6068450000000  0.5072970000000 1.0
C      1  0.5496300000000  0.4186010000000  0.4511050000000 1.0
C      1  0.4573270000000  0.5185040000000  0.5825450000000 1.0
C      1  0.4835820000000  0.4841590000000  0.4767300000000 1.0
C      1  0.4922370000000  0.5937060000000  0.4141700000000 1.0
C      1  0.5101270000000  0.5367210000000  0.5617790000000 1.0
C      1  0.5503720000000  0.4609580000000  0.4633870000000 1.0
C      1  0.3884940000000  0.4876730000000  0.4756680000000 1.0
C      1  0.4931480000000  0.4125980000000  0.4323100000000 1.0
C      1  0.4081500000000  0.4499980000000  0.4457320000000 1.0
C      1  0.4447370000000  0.4061320000000  0.5078280000000 1.0
C      1  0.4691240000000  0.4126760000000  0.5254100000000 1.0
C      1  0.4688600000000  0.5592420000000  0.5429740000000 1.0
C      1  0.4182370000000  0.4563030000000  0.5315450000000 1.0
C      1  0.4487260000000  0.5250280000000  0.4977580000000 1.0
C      1  0.5427590000000  0.5391600000000  0.3928220000000 1.0
C      1  0.5418020000000  0.5863170000000  0.4920580000000 1.0
C      1  0.4291510000000  0.4715900000000  0.5061100000000 1.0
C      1  0.4366260000000  0.4869160000000  0.4608100000000 1.0
C      1  0.4997710000000  0.4712980000000  0.4104310000000 1.0
C      1  0.5127690000000  0.5090670000000  0.5198850000000 1.0
C      1  0.4384590000000  0.5831320000000  0.5212540000000 1.0
C      1  0.5264470000000  0.4910440000000  0.5014040000000 1.0
C      1  0.5556480000000  0.5389650000000  0.5134290000000 1.0
C      1  0.5476190000000  0.5737520000000  0.4457700000000 1.0
C      1  0.4623160000000  0.5616110000000  0.5901520000000 1.0
C      1  0.5751630000000  0.5775130000000  0.4451840000000 1.0
C      1  0.6136040000000  0.5160500000000  0.5228490000000 1.0
C      1  0.4598380000000  0.5151710000000  0.4086320000000 1.0
C      1  0.4911100000000  0.4130550000000  0.5876780000000 1.0
C      1  0.4163390000000  0.5692420000000  0.4799310000000 1.0
C      1  0.3784230000000  0.4993470000000  0.5021920000000 1.0
C      1  0.4172020000000  0.5392460000000  0.4440390000000 1.0
C      1  0.4986730000000  0.3861960000000  0.4973580000000 1.0
C      1  0.5628950000000  0.4438790000000  0.5655370000000 1.0
C      1  0.4922110000000  0.5925670000000  0.5725860000000 1.0
C      1  0.4724520000000  0.5592130000000  0.3946260000000 1.0
C      1  0.5392020000000  0.4426310000000  0.5823930000000 1.0
C      1  0.4595220000000  0.5512640000000  0.4906250000000 1.0
C      1  0.5751440000000  0.5238870000000  0.4302770000000 1.0
C      1  0.5241960000000  0.5371270000000  0.5118330000000 1.0
C      1  0.4582220000000  0.5916370000000  0.4725280000000 1.0
C      1  0.4468950000000  0.5313690000000  0.5280680000000 1.0
C      1  0.5160130000000  0.3758150000000  0.5164720000000 1.0
C      1  0.4472060000000  0.4546410000000  0.4903910000000 1.0
C      1  0.5087020000000  0.5724900000000  0.5868910000000 1.0
C      1  0.5268510000000  0.6036410000000  0.5104190000000 1.0
C      1  0.5201280000000  0.5091940000000  0.5750450000000 1.0
C      1  0.5068770000000  0.4935640000000  0.3929190000000 1.0
C      1  0.5825120000000  0.5445080000000  0.5481020000000 1.0
C      1  0.5406870000000  0.5758650000000  0.5489800000000 1.0
C      1  0.4780170000000  0.4243590000000  0.4795660000000 1.0
C      1  0.4416290000000  0.4214960000000  0.5668380000000 1.0
C      1  0.4868050000000  0.5907990000000  0.4837710000000 1.0
C      1  0.5854210000000  0.4614100000000  0.5609180000000 1.0
C      1  0.4944590000000  0.5261130000000  0.6119290000000 1.0
C      1  0.6209780000000  0.4949960000000  0.4775630000000 1.0
C      1  0.4095690000000  0.4860910000000  0.5700940000000 1.0
C      1  0.5478110000000  0.4257600000000  0.4243400000000 1.0
C      1  0.5046090000000  0.5911070000000  0.4602560000000 1.0
C      1  0.5183860000000  0.5479770000000  0.4031370000000 1.0
C      1  0.5661640000000  0.5695660000000  0.5025810000000 1.0
C      1  0.4011980000000  0.4304260000000  0.4961560000000 1.0
C      1  0.4054650000000  0.5191120000000  0.5374640000000 1.0
C      1  0.5080050000000  0.4681090000000  0.5513940000000 1.0
C      1  0.4983150000000  0.4165710000000  0.4591690000000 1.0
C      1  0.4856900000000  0.5141350000000  0.3911510000000 1.0
C      1  0.5319120000000  0.4055150000000  0.4978850000000 1.0
C      1  0.4553240000000  0.6015300000000  0.5359860000000 1.0
C      1  0.4789200000000  0.5350650000000  0.5587420000000 1.0
C      1  0.5661650000000  0.6117000000000  0.5307370000000 1.0
C      1  0.4675320000000  0.4585420000000  0.5915780000000 1.0
C      1  0.5761380000000  0.4258200000000  0.4613820000000 1.0
C      1  0.4755870000000  0.4601030000000  0.4943380000000 1.0
C      1  0.4674420000000  0.5189220000000  0.4404980000000 1.0
C      1  0.5768250000000  0.5351110000000  0.5745150000000 1.0
C      1  0.4431990000000  0.4689080000000  0.4127980000000 1.0
C      1  0.4674230000000  0.4023860000000  0.5699380000000 1.0
C      1  0.5952680000000  0.5796840000000  0.4628220000000 1.0
C      1  0.4510890000000  0.5436510000000  0.4075300000000 1.0
C      1  0.4981530000000  0.4662000000000  0.4565860000000 1.0
C      1  0.5365500000000  0.5679910000000  0.5778620000000 1.0
C      1  0.4912930000000  0.5768570000000  0.4375650000000 1.0
C      1  0.4870080000000  0.4820220000000  0.5942820000000 1.0
C      1  0.4653690000000  0.5119980000000  0.5442550000000 1.0
C      1  0.4597320000000  0.5035960000000  0.4674760000000 1.0
C      1  0.6170550000000  0.5205270000000  0.4934730000000 1.0
C      1  0.5908440000000  0.4776630000000  0.4392940000000 1.0
C      1  0.4970830000000  0.5201130000000  0.4425190000000 1.0
C      1  0.4826770000000  0.4370100000000  0.6000500000000 1.0
C      1  0.4713900000000  0.4431170000000  0.5420150000000 1.0
C      1  0.3901370000000  0.4983670000000  0.5504190000000 1.0
C      1  0.4890730000000  0.4125410000000  0.5037710000000 1.0
C      1  0.4511140000000  0.4506250000000  0.5664520000000 1.0
C      1  0.4172060000000  0.5356880000000  0.5815650000000 1.0
C      1  0.5075460000000  0.3854470000000  0.5427570000000 1.0
C      1  0.4362860000000  0.5516880000000  0.5951730000000 1.0
C      1  0.5089930000000  0.5474290000000  0.4327850000000 1.0
C      1  0.4733550000000  0.5066120000000  0.6042760000000 1.0
END
