TITL C-3578197-9521-271 1.34816870762141e-06 125000 -893.548835098291 0 0 144 (C1) n - 1
REM
REM in /home/bkarasulu/work/CARBON/AIRSS/Generating-Clusters/EDIP-Nigel-Params/with-SteepDescent/Higher-Symm/SD-CG/HFTN-CG
REM
REM
REM
REM
REM
REM ./C.cell (12c818d87b63d06a65506943cc24bca4)
REM
REM compiler GCC version 9.2.1 20190827 (Red Hat 9.2.1-1)
REM options -cpp -mtune=generic -march=x86-64 -g -O0 -fpre-include=/usr/include/finclude/math-vector-fortran.h
REM seed 1008915656 -604883183 1349137387 1489730786 548051924 -1968068942 1553746087 -1656252185 1183612128 2042519843 -1950007577 1997524268 -500196626 -201078237 2144318438 -1419608727 398659037 1746359947 -351305767 849410770 909849559 1107886428 -634889915 -1186993166 1988862090 -1978830289 -161517785 -514910972 -1638130767 -886932201 -862722857 -999436362 1711189080
REM
CELL 1.54180   50.00000   50.00000   50.00000   90.00000   90.00000   90.00000
LATT -1
SFAC C  
C      1  0.4948870000000  0.5756240000000  0.4859720000000 1.0
C      1  0.4997850000000  0.4760240000000  0.5800970000000 1.0
C      1  0.5040280000000  0.4516450000000  0.4374230000000 1.0
C      1  0.5561030000000  0.5237730000000  0.4382860000000 1.0
C      1  0.5626810000000  0.5473470000000  0.5618080000000 1.0
C      1  0.5665060000000  0.4263290000000  0.5120540000000 1.0
C      1  0.5257230000000  0.5966460000000  0.4621430000000 1.0
C      1  0.5315210000000  0.4810210000000  0.6104150000000 1.0
C      1  0.5290510000000  0.4148030000000  0.4311020000000 1.0
C      1  0.5169030000000  0.4500410000000  0.4670250000000 1.0
C      1  0.5000240000000  0.5482040000000  0.4722100000000 1.0
C      1  0.5144600000000  0.4977190000000  0.5639220000000 1.0
C      1  0.4355210000000  0.5196870000000  0.5467390000000 1.0
C      1  0.4257620000000  0.4450420000000  0.4778560000000 1.0
C      1  0.4159740000000  0.5530570000000  0.4547180000000 1.0
C      1  0.4016110000000  0.5304540000000  0.4630520000000 1.0
C      1  0.4132600000000  0.5189230000000  0.5297930000000 1.0
C      1  0.4105360000000  0.4631870000000  0.4919220000000 1.0
C      1  0.4592100000000  0.4795820000000  0.4472250000000 1.0
C      1  0.4772380000000  0.5374930000000  0.5156470000000 1.0
C      1  0.4823520000000  0.4713910000000  0.5398250000000 1.0
C      1  0.5555420000000  0.5041790000000  0.5049620000000 1.0
C      1  0.5240370000000  0.4785340000000  0.4766940000000 1.0
C      1  0.5512200000000  0.4876510000000  0.4805380000000 1.0
C      1  0.5922210000000  0.5184030000000  0.5370660000000 1.0
C      1  0.5978350000000  0.4616040000000  0.5004260000000 1.0
C      1  0.5934130000000  0.5205280000000  0.4692780000000 1.0
C      1  0.4495960000000  0.5478430000000  0.4213250000000 1.0
C      1  0.4524670000000  0.5434090000000  0.5873100000000 1.0
C      1  0.4559090000000  0.4205790000000  0.4985150000000 1.0
C      1  0.4926570000000  0.4919320000000  0.5199370000000 1.0
C      1  0.4627210000000  0.4861380000000  0.4768670000000 1.0
C      1  0.4978070000000  0.5277140000000  0.4945120000000 1.0
C      1  0.5572440000000  0.4952170000000  0.4328490000000 1.0
C      1  0.5637120000000  0.5673450000000  0.5380930000000 1.0
C      1  0.5656510000000  0.4374490000000  0.5408460000000 1.0
C      1  0.4772900000000  0.5091090000000  0.6087430000000 1.0
C      1  0.4913790000000  0.4141170000000  0.4629090000000 1.0
C      1  0.4861380000000  0.5772720000000  0.4414420000000 1.0
C      1  0.4780640000000  0.4126320000000  0.5643110000000 1.0
C      1  0.4748240000000  0.4871240000000  0.3864010000000 1.0
C      1  0.4735990000000  0.5998050000000  0.5468160000000 1.0
C      1  0.5330540000000  0.5099950000000  0.6058820000000 1.0
C      1  0.5362880000000  0.4038990000000  0.4577660000000 1.0
C      1  0.5322410000000  0.5753000000000  0.4429820000000 1.0
C      1  0.5412460000000  0.5867310000000  0.5378480000000 1.0
C      1  0.5437870000000  0.4264160000000  0.5570720000000 1.0
C      1  0.5347520000000  0.4869270000000  0.4155830000000 1.0
C      1  0.5590640000000  0.5628530000000  0.4835330000000 1.0
C      1  0.5632890000000  0.4860690000000  0.5673280000000 1.0
C      1  0.5666330000000  0.4477300000000  0.4562830000000 1.0
C      1  0.4385170000000  0.5678080000000  0.4624150000000 1.0
C      1  0.4429280000000  0.5012940000000  0.5675780000000 1.0
C      1  0.4459640000000  0.4394020000000  0.4596920000000 1.0
C      1  0.4582250000000  0.4110820000000  0.5433710000000 1.0
C      1  0.4547560000000  0.5081280000000  0.3930360000000 1.0
C      1  0.4532730000000  0.5819110000000  0.5571730000000 1.0
C      1  0.5090960000000  0.4361660000000  0.5908480000000 1.0
C      1  0.5100400000000  0.4535800000000  0.3942590000000 1.0
C      1  0.5054080000000  0.6093600000000  0.5141290000000 1.0
C      1  0.4698020000000  0.5789240000000  0.5023000000000 1.0
C      1  0.4652030000000  0.4589870000000  0.5786960000000 1.0
C      1  0.4701090000000  0.4479230000000  0.4183070000000 1.0
C      1  0.5322230000000  0.4683420000000  0.5281410000000 1.0
C      1  0.5086940000000  0.4976870000000  0.4581350000000 1.0
C      1  0.5330090000000  0.5451640000000  0.5148260000000 1.0
C      1  0.6023950000000  0.5283680000000  0.4939400000000 1.0
C      1  0.6047530000000  0.4937320000000  0.5353980000000 1.0
C      1  0.6113600000000  0.4760790000000  0.4806470000000 1.0
C      1  0.4826540000000  0.4603200000000  0.3957280000000 1.0
C      1  0.4784600000000  0.6019540000000  0.5188800000000 1.0
C      1  0.4824440000000  0.4352900000000  0.5810580000000 1.0
C      1  0.5315760000000  0.5988750000000  0.5127830000000 1.0
C      1  0.5345070000000  0.4420700000000  0.5799980000000 1.0
C      1  0.5344440000000  0.4593090000000  0.4073320000000 1.0
C      1  0.4457050000000  0.4469800000000  0.4323210000000 1.0
C      1  0.4430720000000  0.5731960000000  0.4912640000000 1.0
C      1  0.4446290000000  0.4721400000000  0.5627040000000 1.0
C      1  0.4569710000000  0.4776820000000  0.5206540000000 1.0
C      1  0.4447990000000  0.5099220000000  0.4844510000000 1.0
C      1  0.4541660000000  0.5120330000000  0.5140100000000 1.0
C      1  0.4021270000000  0.4939320000000  0.5266470000000 1.0
C      1  0.4023960000000  0.4833740000000  0.4745920000000 1.0
C      1  0.3916380000000  0.5345880000000  0.4887800000000 1.0
C      1  0.5096800000000  0.4578100000000  0.5471950000000 1.0
C      1  0.4913680000000  0.4814300000000  0.4385460000000 1.0
C      1  0.5076020000000  0.5626200000000  0.5176210000000 1.0
C      1  0.4642320000000  0.4209910000000  0.4715510000000 1.0
C      1  0.4581290000000  0.5672860000000  0.4406720000000 1.0
C      1  0.4573390000000  0.5161090000000  0.5886530000000 1.0
C      1  0.5293790000000  0.5506640000000  0.4615040000000 1.0
C      1  0.5381210000000  0.5086540000000  0.5761680000000 1.0
C      1  0.5412420000000  0.4316660000000  0.4706290000000 1.0
C      1  0.4491750000000  0.5261430000000  0.4539780000000 1.0
C      1  0.4886220000000  0.5330560000000  0.5431100000000 1.0
C      1  0.4636570000000  0.4583800000000  0.4954420000000 1.0
C      1  0.5788400000000  0.5250300000000  0.5112070000000 1.0
C      1  0.5862420000000  0.4773040000000  0.5220290000000 1.0
C      1  0.5953380000000  0.4915460000000  0.4634240000000 1.0
C      1  0.4110130000000  0.5030500000000  0.4564220000000 1.0
C      1  0.4090250000000  0.5398130000000  0.5102680000000 1.0
C      1  0.4138450000000  0.4694990000000  0.5206930000000 1.0
C      1  0.4943860000000  0.4481980000000  0.4981410000000 1.0
C      1  0.4801000000000  0.5302060000000  0.4493870000000 1.0
C      1  0.5072940000000  0.5104480000000  0.5379560000000 1.0
C      1  0.5098140000000  0.5283410000000  0.6057130000000 1.0
C      1  0.5121700000000  0.3968830000000  0.4751410000000 1.0
C      1  0.5098460000000  0.5699950000000  0.4243670000000 1.0
C      1  0.4938550000000  0.5558310000000  0.5632240000000 1.0
C      1  0.4985110000000  0.4215370000000  0.5167000000000 1.0
C      1  0.4896530000000  0.5253060000000  0.4199610000000 1.0
C      1  0.4882160000000  0.5045400000000  0.4779010000000 1.0
C      1  0.5296040000000  0.5168490000000  0.5160030000000 1.0
C      1  0.5121130000000  0.4734460000000  0.5051680000000 1.0
C      1  0.5360990000000  0.5366410000000  0.5668150000000 1.0
C      1  0.5404580000000  0.4258610000000  0.4996490000000 1.0
C      1  0.5279920000000  0.5275450000000  0.4424650000000 1.0
C      1  0.4666860000000  0.5335260000000  0.4028870000000 1.0
C      1  0.4673600000000  0.5638420000000  0.5756430000000 1.0
C      1  0.4717740000000  0.4082370000000  0.5177740000000 1.0
C      1  0.4991600000000  0.4966330000000  0.4142000000000 1.0
C      1  0.5048360000000  0.5784520000000  0.5449050000000 1.0
C      1  0.5077730000000  0.4276140000000  0.5458560000000 1.0
C      1  0.4279860000000  0.4559090000000  0.5437340000000 1.0
C      1  0.4375100000000  0.5009450000000  0.4396380000000 1.0
C      1  0.4246360000000  0.5648970000000  0.5128710000000 1.0
C      1  0.5811800000000  0.4408430000000  0.4906640000000 1.0
C      1  0.5701150000000  0.5354990000000  0.4611870000000 1.0
C      1  0.5773100000000  0.5215650000000  0.5603460000000 1.0
C      1  0.4956550000000  0.5954800000000  0.4628790000000 1.0
C      1  0.4954040000000  0.4864800000000  0.6078560000000 1.0
C      1  0.4999440000000  0.4208480000000  0.4357590000000 1.0
C      1  0.5148720000000  0.5481610000000  0.5837830000000 1.0
C      1  0.5198080000000  0.4050980000000  0.5033890000000 1.0
C      1  0.5141520000000  0.5410210000000  0.4181100000000 1.0
C      1  0.5474770000000  0.4670430000000  0.5891180000000 1.0
C      1  0.5447800000000  0.4400580000000  0.4271140000000 1.0
C      1  0.5380530000000  0.5859590000000  0.4869170000000 1.0
C      1  0.4342020000000  0.5021360000000  0.4111130000000 1.0
C      1  0.4354370000000  0.5702530000000  0.5384120000000 1.0
C      1  0.4365580000000  0.4292490000000  0.5422550000000 1.0
C      1  0.5617400000000  0.5514430000000  0.5120890000000 1.0
C      1  0.5621970000000  0.4679330000000  0.5389960000000 1.0
C      1  0.5682680000000  0.4801000000000  0.4573620000000 1.0
END
