TITL C-3578198-8939-33 -5.08657860022278e-06 125000 -1248.24140363673 0 0 195 (C1) n - 1
REM
REM in /home/bkarasulu/work/CARBON/AIRSS/Generating-Clusters/EDIP-Nigel-Params/with-SteepDescent/Higher-Symm/SD-CG/HFTN-CG
REM
REM
REM
REM
REM
REM ./C.cell (12c818d87b63d06a65506943cc24bca4)
REM
REM compiler GCC version 9.2.1 20190827 (Red Hat 9.2.1-1)
REM options -cpp -mtune=generic -march=x86-64 -g -O0 -fpre-include=/usr/include/finclude/math-vector-fortran.h
REM seed 1876280787 196024871 -801158503 717266187 -2005655189 -1294484839 1116437656 1814634987 1605746852 1142846795 560404635 -1402122628 -1870240341 -994426117 1127124145 -1630316576 1628529051 -1122083555 1964813587 665907461 -95060468 1760249968 1027960571 -593529964 -1539309902 -1068569608 -1102347401 492710259 1247329452 -1379001440 -1583242840 -2086426789 820030416
REM
CELL 1.54180   50.00000   50.00000   50.00000   90.00000   90.00000   90.00000
LATT -1
SFAC C  
C      1  0.4981440000000  0.5898030000000  0.5450340000000 1.0
C      1  0.4641260000000  0.4060850000000  0.5386860000000 1.0
C      1  0.4506710000000  0.5972010000000  0.4964550000000 1.0
C      1  0.4666250000000  0.4097780000000  0.4662960000000 1.0
C      1  0.4995860000000  0.6074180000000  0.4436680000000 1.0
C      1  0.5375040000000  0.4034090000000  0.4651190000000 1.0
C      1  0.5490570000000  0.6020130000000  0.4968360000000 1.0
C      1  0.5366220000000  0.4020570000000  0.5386750000000 1.0
C      1  0.4168580000000  0.5674470000000  0.5142890000000 1.0
C      1  0.4274960000000  0.4347130000000  0.4567160000000 1.0
C      1  0.4805420000000  0.5735960000000  0.4135790000000 1.0
C      1  0.5414020000000  0.4357840000000  0.4301980000000 1.0
C      1  0.5777680000000  0.5691110000000  0.4773510000000 1.0
C      1  0.5758990000000  0.4268900000000  0.5522490000000 1.0
C      1  0.5208780000000  0.5605250000000  0.5748700000000 1.0
C      1  0.4565720000000  0.4303900000000  0.5774640000000 1.0
C      1  0.5177290000000  0.4509350000000  0.4766030000000 1.0
C      1  0.5235110000000  0.5452770000000  0.4888130000000 1.0
C      1  0.5203350000000  0.4613320000000  0.5064220000000 1.0
C      1  0.5053840000000  0.5331480000000  0.5289080000000 1.0
C      1  0.4944510000000  0.4495550000000  0.5226210000000 1.0
C      1  0.4798600000000  0.5398510000000  0.5118500000000 1.0
C      1  0.4857200000000  0.4446110000000  0.4845770000000 1.0
C      1  0.4931040000000  0.5429350000000  0.4849080000000 1.0
C      1  0.5387680000000  0.5262690000000  0.3966930000000 1.0
C      1  0.6029060000000  0.4765570000000  0.4523560000000 1.0
C      1  0.5973580000000  0.5255790000000  0.5345150000000 1.0
C      1  0.5467480000000  0.4731240000000  0.6043640000000 1.0
C      1  0.4628980000000  0.5226080000000  0.6073440000000 1.0
C      1  0.3998550000000  0.4744960000000  0.5497170000000 1.0
C      1  0.3956930000000  0.5235700000000  0.4584180000000 1.0
C      1  0.4545590000000  0.4765960000000  0.3977130000000 1.0
C      1  0.5735340000000  0.4424330000000  0.4677010000000 1.0
C      1  0.5812470000000  0.5715930000000  0.5262030000000 1.0
C      1  0.5365490000000  0.4329110000000  0.5796920000000 1.0
C      1  0.4737040000000  0.5549390000000  0.5750640000000 1.0
C      1  0.4241000000000  0.4390060000000  0.5372890000000 1.0
C      1  0.4226280000000  0.5633060000000  0.4685330000000 1.0
C      1  0.4601430000000  0.4343840000000  0.4204080000000 1.0
C      1  0.5291870000000  0.5732870000000  0.4136090000000 1.0
C      1  0.5182850000000  0.4702190000000  0.6119980000000 1.0
C      1  0.4406650000000  0.5253000000000  0.5881340000000 1.0
C      1  0.3948950000000  0.4727830000000  0.5190940000000 1.0
C      1  0.4168510000000  0.5280340000000  0.4377990000000 1.0
C      1  0.4835550000000  0.4727130000000  0.4026170000000 1.0
C      1  0.5564510000000  0.5297420000000  0.4202800000000 1.0
C      1  0.6093740000000  0.4740160000000  0.4819070000000 1.0
C      1  0.5812430000000  0.5250560000000  0.5592620000000 1.0
C      1  0.5655230000000  0.4707180000000  0.4753440000000 1.0
C      1  0.5536360000000  0.5214520000000  0.5321400000000 1.0
C      1  0.5277970000000  0.4551910000000  0.5621750000000 1.0
C      1  0.4737570000000  0.5270270000000  0.5589200000000 1.0
C      1  0.4338160000000  0.4657710000000  0.5233870000000 1.0
C      1  0.4401940000000  0.5390940000000  0.4740980000000 1.0
C      1  0.4839650000000  0.4686960000000  0.4360990000000 1.0
C      1  0.5337040000000  0.5304200000000  0.4439700000000 1.0
C      1  0.4768110000000  0.5590910000000  0.4589630000000 1.0
C      1  0.4917670000000  0.4420690000000  0.4502590000000 1.0
C      1  0.5319870000000  0.5551250000000  0.4616480000000 1.0
C      1  0.5495780000000  0.4596270000000  0.5189340000000 1.0
C      1  0.5333490000000  0.5448420000000  0.5267360000000 1.0
C      1  0.4982380000000  0.4529330000000  0.5582490000000 1.0
C      1  0.4446970000000  0.5517260000000  0.5255510000000 1.0
C      1  0.4390820000000  0.4641570000000  0.4934050000000 1.0
C      1  0.4953700000000  0.5053190000000  0.5647620000000 1.0
C      1  0.4522410000000  0.4828830000000  0.5396880000000 1.0
C      1  0.4351870000000  0.5166750000000  0.4929730000000 1.0
C      1  0.4665580000000  0.4844450000000  0.4561760000000 1.0
C      1  0.5026630000000  0.5144110000000  0.4381640000000 1.0
C      1  0.5478310000000  0.4854760000000  0.4568960000000 1.0
C      1  0.5620520000000  0.5102800000000  0.5045570000000 1.0
C      1  0.5481110000000  0.4723500000000  0.5465880000000 1.0
C      1  0.4397740000000  0.4540950000000  0.5838140000000 1.0
C      1  0.3958390000000  0.5474900000000  0.5030150000000 1.0
C      1  0.4183120000000  0.4591010000000  0.4421520000000 1.0
C      1  0.4898290000000  0.5478740000000  0.3978430000000 1.0
C      1  0.5636130000000  0.4554270000000  0.4206110000000 1.0
C      1  0.5983040000000  0.5479850000000  0.4868700000000 1.0
C      1  0.5804230000000  0.4488730000000  0.5733210000000 1.0
C      1  0.5127830000000  0.5416560000000  0.5981530000000 1.0
C      1  0.5735200000000  0.5543120000000  0.4196500000000 1.0
C      1  0.6103290000000  0.4488430000000  0.4988850000000 1.0
C      1  0.5778080000000  0.5510230000000  0.5726550000000 1.0
C      1  0.5037500000000  0.4447160000000  0.6161790000000 1.0
C      1  0.4280030000000  0.5504450000000  0.5781870000000 1.0
C      1  0.3876760000000  0.4472420000000  0.5049570000000 1.0
C      1  0.4216520000000  0.5532970000000  0.4224690000000 1.0
C      1  0.4958050000000  0.4482740000000  0.3903890000000 1.0
C      1  0.3891360000000  0.4976120000000  0.5030750000000 1.0
C      1  0.4284650000000  0.5040790000000  0.4272830000000 1.0
C      1  0.4983030000000  0.4979000000000  0.3944260000000 1.0
C      1  0.5739890000000  0.5051570000000  0.4230160000000 1.0
C      1  0.6114030000000  0.5002390000000  0.4956590000000 1.0
C      1  0.5783510000000  0.4996700000000  0.5757540000000 1.0
C      1  0.5031660000000  0.4950370000000  0.6122490000000 1.0
C      1  0.4312160000000  0.4998240000000  0.5787540000000 1.0
C      1  0.4778880000000  0.4757070000000  0.5268710000000 1.0
C      1  0.4620160000000  0.5143500000000  0.5096370000000 1.0
C      1  0.4682050000000  0.4701520000000  0.4837400000000 1.0
C      1  0.4812360000000  0.5138430000000  0.4605650000000 1.0
C      1  0.5210820000000  0.4764820000000  0.4619450000000 1.0
C      1  0.5351580000000  0.5160680000000  0.4900730000000 1.0
C      1  0.5123830000000  0.4920270000000  0.5026110000000 1.0
C      1  0.5096610000000  0.5046170000000  0.5368970000000 1.0
C      1  0.5091700000000  0.4096100000000  0.5335650000000 1.0
C      1  0.4832520000000  0.6073070000000  0.5277530000000 1.0
C      1  0.4703770000000  0.4149190000000  0.5124020000000 1.0
C      1  0.4680510000000  0.6117310000000  0.4788270000000 1.0
C      1  0.4919450000000  0.3964180000000  0.4692520000000 1.0
C      1  0.5154180000000  0.6121630000000  0.4670850000000 1.0
C      1  0.5334820000000  0.3999650000000  0.4928430000000 1.0
C      1  0.5245620000000  0.6024360000000  0.5115090000000 1.0
C      1  0.4631000000000  0.5785180000000  0.4399380000000 1.0
C      1  0.5104080000000  0.4239240000000  0.4319140000000 1.0
C      1  0.5530360000000  0.5763210000000  0.4579160000000 1.0
C      1  0.5676920000000  0.4314720000000  0.5187870000000 1.0
C      1  0.5376740000000  0.5671880000000  0.5486030000000 1.0
C      1  0.4876400000000  0.4277280000000  0.5735250000000 1.0
C      1  0.4422810000000  0.5784330000000  0.5416870000000 1.0
C      1  0.4300970000000  0.4347010000000  0.4870270000000 1.0
C      1  0.5541240000000  0.4838780000000  0.4267010000000 1.0
C      1  0.5896610000000  0.5184550000000  0.4850410000000 1.0
C      1  0.5782260000000  0.4747850000000  0.5587880000000 1.0
C      1  0.5149440000000  0.5119660000000  0.5903900000000 1.0
C      1  0.4524930000000  0.4786480000000  0.5707410000000 1.0
C      1  0.4062120000000  0.5212210000000  0.5115130000000 1.0
C      1  0.4357820000000  0.4845730000000  0.4485010000000 1.0
C      1  0.4872090000000  0.5195220000000  0.4111680000000 1.0
C      1  0.4095220000000  0.4286410000000  0.5105290000000 1.0
C      1  0.4312770000000  0.5741220000000  0.4409110000000 1.0
C      1  0.4875090000000  0.4273860000000  0.4089860000000 1.0
C      1  0.5560740000000  0.5763840000000  0.4271110000000 1.0
C      1  0.5870960000000  0.4316960000000  0.4936160000000 1.0
C      1  0.5674290000000  0.5707540000000  0.5530090000000 1.0
C      1  0.5101530000000  0.4248160000000  0.5951480000000 1.0
C      1  0.4478810000000  0.5707300000000  0.5715140000000 1.0
C      1  0.4137990000000  0.4992660000000  0.5556760000000 1.0
C      1  0.3966420000000  0.4952210000000  0.4736030000000 1.0
C      1  0.4467870000000  0.5041540000000  0.4049320000000 1.0
C      1  0.5274090000000  0.4984130000000  0.3952430000000 1.0
C      1  0.5941220000000  0.5043490000000  0.4440450000000 1.0
C      1  0.6073020000000  0.5006350000000  0.5246350000000 1.0
C      1  0.5566680000000  0.4996230000000  0.5952090000000 1.0
C      1  0.4736840000000  0.4945670000000  0.6104030000000 1.0
C      1  0.5374780000000  0.5002290000000  0.5441790000000 1.0
C      1  0.4837240000000  0.4779410000000  0.5706280000000 1.0
C      1  0.4507180000000  0.5179970000000  0.5399870000000 1.0
C      1  0.4264960000000  0.4908660000000  0.4774650000000 1.0
C      1  0.4618310000000  0.5351610000000  0.4556860000000 1.0
C      1  0.5073460000000  0.4848040000000  0.4385880000000 1.0
C      1  0.5459480000000  0.5130730000000  0.4633920000000 1.0
C      1  0.5636550000000  0.4797370000000  0.5029180000000 1.0
C      1  0.4554330000000  0.5300370000000  0.3915770000000 1.0
C      1  0.5421170000000  0.4718030000000  0.3920340000000 1.0
C      1  0.6059430000000  0.5309600000000  0.4523080000000 1.0
C      1  0.6011380000000  0.4759160000000  0.5385920000000 1.0
C      1  0.5476630000000  0.5260200000000  0.6061490000000 1.0
C      1  0.4585760000000  0.4688140000000  0.6135960000000 1.0
C      1  0.4071890000000  0.5229990000000  0.5415140000000 1.0
C      1  0.3920980000000  0.4685240000000  0.4579940000000 1.0
C      1  0.5233950000000  0.4510900000000  0.3872670000000 1.0
C      1  0.5961730000000  0.5515860000000  0.4356380000000 1.0
C      1  0.6124320000000  0.4534270000000  0.5265480000000 1.0
C      1  0.5625990000000  0.5476800000000  0.5957450000000 1.0
C      1  0.4761060000000  0.4483620000000  0.6203110000000 1.0
C      1  0.4122330000000  0.5464540000000  0.5554060000000 1.0
C      1  0.3833240000000  0.4505290000000  0.4774160000000 1.0
C      1  0.4382730000000  0.5504920000000  0.4001990000000 1.0
C      1  0.5050430000000  0.5869790000000  0.4229580000000 1.0
C      1  0.5495250000000  0.4280230000000  0.4568190000000 1.0
C      1  0.5677920000000  0.5805710000000  0.5018210000000 1.0
C      1  0.5513530000000  0.4129460000000  0.5618720000000 1.0
C      1  0.4959350000000  0.5729550000000  0.5681620000000 1.0
C      1  0.4444660000000  0.4214990000000  0.5524590000000 1.0
C      1  0.4260460000000  0.5832260000000  0.4906800000000 1.0
C      1  0.4519230000000  0.4234440000000  0.4456280000000 1.0
C      1  0.4711980000000  0.6060500000000  0.4506330000000 1.0
C      1  0.5127050000000  0.3991260000000  0.4496740000000 1.0
C      1  0.5426700000000  0.6032830000000  0.4685940000000 1.0
C      1  0.5511890000000  0.4064880000000  0.5143420000000 1.0
C      1  0.5251440000000  0.5923090000000  0.5382230000000 1.0
C      1  0.4893400000000  0.4054950000000  0.5538650000000 1.0
C      1  0.4554280000000  0.6004840000000  0.5247380000000 1.0
C      1  0.4527040000000  0.4153500000000  0.4903880000000 1.0
C      1  0.4815820000000  0.5458930000000  0.6031990000000 1.0
C      1  0.4126230000000  0.4508460000000  0.5632230000000 1.0
C      1  0.3949600000000  0.5498750000000  0.4730970000000 1.0
C      1  0.4409630000000  0.4552520000000  0.4121460000000 1.0
C      1  0.5208330000000  0.5502890000000  0.3965230000000 1.0
C      1  0.5880750000000  0.4519280000000  0.4419870000000 1.0
C      1  0.5988730000000  0.5497390000000  0.5179660000000 1.0
C      1  0.5584420000000  0.4473590000000  0.5944840000000 1.0
C      1  0.4986210000000  0.6150190000000  0.5021240000000 1.0
C      1  0.4981000000000  0.4085500000000  0.5056890000000 1.0
C      1  0.4804480000000  0.4903400000000  0.5029180000000 1.0
END
