TITL C-3577088-510-417 8.41855202106914e-07 125000 -1178.6324393936 0 0 188 (C1) n - 1
REM
REM in /home/bkarasulu/work/CARBON/AIRSS/Generating-Clusters/EDIP-Nigel-Params/with-SteepDescent/Higher-Symm/SD-CG/HFTN-CG
REM
REM
REM
REM
REM
REM ./C.cell (12c818d87b63d06a65506943cc24bca4)
REM
REM compiler GCC version 9.2.1 20190827 (Red Hat 9.2.1-1)
REM options -cpp -mtune=generic -march=x86-64 -g -O0 -fpre-include=/usr/include/finclude/math-vector-fortran.h
REM seed -1323448994 -1574763453 -1964890896 397487959 1044339184 612339977 324077997 -692342073 -1107211636 -272864171 2038343459 -1692795002 331275423 -726864797 -493074860 -202357891 -1079874557 -1656866212 166998737 564112713 510229680 1764305028 -1951914494 1005728541 -1770001093 -1509781181 1273558171 -1071626856 68912340 1450884238 1192569015 -580880999 -63372519
REM
CELL 1.54180   50.00000   50.00000   50.00000   90.00000   90.00000   90.00000
LATT -1
SFAC C  
C      1  0.5564730000000  0.5155190000000  0.5377970000000 1.0
C      1  0.4955330000000  0.5774160000000  0.5463800000000 1.0
C      1  0.4451640000000  0.5181720000000  0.5380340000000 1.0
C      1  0.4530980000000  0.4442920000000  0.5487310000000 1.0
C      1  0.5482410000000  0.4299750000000  0.5386010000000 1.0
C      1  0.5579670000000  0.5173620000000  0.4581080000000 1.0
C      1  0.5055880000000  0.5527040000000  0.4680940000000 1.0
C      1  0.4408440000000  0.5223090000000  0.4581750000000 1.0
C      1  0.4463260000000  0.4497980000000  0.4548050000000 1.0
C      1  0.5477200000000  0.4309480000000  0.4602430000000 1.0
C      1  0.4520750000000  0.4681440000000  0.5963790000000 1.0
C      1  0.5281640000000  0.4473670000000  0.6046060000000 1.0
C      1  0.5634770000000  0.5050690000000  0.6097840000000 1.0
C      1  0.5279940000000  0.5514120000000  0.5992420000000 1.0
C      1  0.4514450000000  0.5289150000000  0.6086860000000 1.0
C      1  0.4510120000000  0.4540880000000  0.3983360000000 1.0
C      1  0.5281310000000  0.4361660000000  0.3965520000000 1.0
C      1  0.5602420000000  0.5052500000000  0.3870760000000 1.0
C      1  0.5213980000000  0.5516390000000  0.3960580000000 1.0
C      1  0.4605740000000  0.5411240000000  0.3969500000000 1.0
C      1  0.4720610000000  0.4649280000000  0.4484830000000 1.0
C      1  0.5285480000000  0.4555130000000  0.4476010000000 1.0
C      1  0.5509570000000  0.5118950000000  0.4304580000000 1.0
C      1  0.5033710000000  0.5451820000000  0.4388970000000 1.0
C      1  0.4512500000000  0.5114210000000  0.4324130000000 1.0
C      1  0.4753090000000  0.4646020000000  0.5474590000000 1.0
C      1  0.5297400000000  0.4558660000000  0.5427910000000 1.0
C      1  0.5521060000000  0.5115850000000  0.5660660000000 1.0
C      1  0.4933830000000  0.5559330000000  0.5691600000000 1.0
C      1  0.4536070000000  0.5161660000000  0.5659510000000 1.0
C      1  0.5888230000000  0.5504360000000  0.5550320000000 1.0
C      1  0.4532040000000  0.5889740000000  0.5652620000000 1.0
C      1  0.4005350000000  0.5076400000000  0.5567040000000 1.0
C      1  0.4669070000000  0.4233040000000  0.5782960000000 1.0
C      1  0.5723580000000  0.4551280000000  0.5673360000000 1.0
C      1  0.5837500000000  0.5536330000000  0.4406440000000 1.0
C      1  0.4851040000000  0.5921480000000  0.4478850000000 1.0
C      1  0.4072690000000  0.5109980000000  0.4336690000000 1.0
C      1  0.4662060000000  0.4169990000000  0.4327080000000 1.0
C      1  0.5728120000000  0.4517640000000  0.4304100000000 1.0
C      1  0.5022590000000  0.5181120000000  0.4279010000000 1.0
C      1  0.4774250000000  0.5033460000000  0.4209810000000 1.0
C      1  0.4852530000000  0.4744400000000  0.4235810000000 1.0
C      1  0.5160540000000  0.4726540000000  0.4245380000000 1.0
C      1  0.5259270000000  0.5009770000000  0.4210770000000 1.0
C      1  0.5031830000000  0.5263930000000  0.5724120000000 1.0
C      1  0.4797910000000  0.5079750000000  0.5751510000000 1.0
C      1  0.4870720000000  0.4775250000000  0.5716550000000 1.0
C      1  0.5173540000000  0.4742560000000  0.5712520000000 1.0
C      1  0.5263150000000  0.5038730000000  0.5747270000000 1.0
C      1  0.5305470000000  0.5253950000000  0.5239410000000 1.0
C      1  0.4884310000000  0.5394060000000  0.5128880000000 1.0
C      1  0.4575350000000  0.4965620000000  0.5225930000000 1.0
C      1  0.4860080000000  0.4641220000000  0.5195850000000 1.0
C      1  0.5325120000000  0.4750310000000  0.5215880000000 1.0
C      1  0.5344850000000  0.5202740000000  0.4951470000000 1.0
C      1  0.4868430000000  0.5362880000000  0.4826640000000 1.0
C      1  0.4576760000000  0.5049510000000  0.4942140000000 1.0
C      1  0.4845050000000  0.4636220000000  0.4746430000000 1.0
C      1  0.5307360000000  0.4691060000000  0.4739800000000 1.0
C      1  0.5469550000000  0.5999940000000  0.5286000000000 1.0
C      1  0.4114880000000  0.5607300000000  0.5326220000000 1.0
C      1  0.4052160000000  0.4467170000000  0.5274830000000 1.0
C      1  0.5143710000000  0.3963390000000  0.5340270000000 1.0
C      1  0.6074680000000  0.5009140000000  0.5282650000000 1.0
C      1  0.5401510000000  0.5971650000000  0.4698280000000 1.0
C      1  0.4162740000000  0.5654810000000  0.4722390000000 1.0
C      1  0.4038280000000  0.4490890000000  0.4671970000000 1.0
C      1  0.5188110000000  0.3929760000000  0.4719220000000 1.0
C      1  0.6062340000000  0.5019000000000  0.4660550000000 1.0
C      1  0.5301220000000  0.5001500000000  0.3905020000000 1.0
C      1  0.5116470000000  0.5247950000000  0.3861520000000 1.0
C      1  0.4819430000000  0.5189830000000  0.3942510000000 1.0
C      1  0.4790350000000  0.4610230000000  0.3981970000000 1.0
C      1  0.5176210000000  0.4635220000000  0.3950410000000 1.0
C      1  0.5325760000000  0.5008160000000  0.6131820000000 1.0
C      1  0.5139580000000  0.5259710000000  0.6097830000000 1.0
C      1  0.4782900000000  0.5123670000000  0.6056150000000 1.0
C      1  0.4774220000000  0.4801440000000  0.6095430000000 1.0
C      1  0.5151720000000  0.4742320000000  0.6051180000000 1.0
C      1  0.5466070000000  0.5856690000000  0.5548640000000 1.0
C      1  0.4214270000000  0.5530500000000  0.5601260000000 1.0
C      1  0.4109670000000  0.4539870000000  0.5567640000000 1.0
C      1  0.5126300000000  0.4104690000000  0.5612580000000 1.0
C      1  0.5970900000000  0.5001250000000  0.5575370000000 1.0
C      1  0.5361030000000  0.5833030000000  0.4440870000000 1.0
C      1  0.4327740000000  0.5637360000000  0.4463740000000 1.0
C      1  0.4065730000000  0.4552920000000  0.4380800000000 1.0
C      1  0.5182850000000  0.4023770000000  0.4431190000000 1.0
C      1  0.5936090000000  0.5017570000000  0.4378760000000 1.0
C      1  0.5804350000000  0.4621540000000  0.4803450000000 1.0
C      1  0.5595990000000  0.5584190000000  0.4849080000000 1.0
C      1  0.4669410000000  0.5778540000000  0.4906760000000 1.0
C      1  0.4141850000000  0.4894730000000  0.4832480000000 1.0
C      1  0.4782520000000  0.4157420000000  0.4806250000000 1.0
C      1  0.5800980000000  0.4640760000000  0.5179650000000 1.0
C      1  0.5603760000000  0.5600460000000  0.5160100000000 1.0
C      1  0.4550500000000  0.5754310000000  0.5193540000000 1.0
C      1  0.4150560000000  0.4874410000000  0.5145400000000 1.0
C      1  0.4771720000000  0.4185990000000  0.5115900000000 1.0
C      1  0.5327430000000  0.5457100000000  0.4797750000000 1.0
C      1  0.4609190000000  0.5499880000000  0.4767530000000 1.0
C      1  0.4438340000000  0.4826650000000  0.4771590000000 1.0
C      1  0.4970880000000  0.4372270000000  0.4727660000000 1.0
C      1  0.5584050000000  0.4824560000000  0.4745040000000 1.0
C      1  0.5325440000000  0.5540850000000  0.5271260000000 1.0
C      1  0.4584000000000  0.5440780000000  0.5225100000000 1.0
C      1  0.4412630000000  0.4712060000000  0.5218850000000 1.0
C      1  0.4991730000000  0.4382940000000  0.5169030000000 1.0
C      1  0.5593610000000  0.4881520000000  0.5210250000000 1.0
C      1  0.5770490000000  0.4840100000000  0.3947020000000 1.0
C      1  0.5503930000000  0.5526810000000  0.4048360000000 1.0
C      1  0.4717420000000  0.5657000000000  0.4101020000000 1.0
C      1  0.4317230000000  0.4748220000000  0.4035130000000 1.0
C      1  0.5064230000000  0.4183310000000  0.4011360000000 1.0
C      1  0.5807770000000  0.4840570000000  0.6028150000000 1.0
C      1  0.5567200000000  0.5518210000000  0.5913840000000 1.0
C      1  0.4489810000000  0.5561770000000  0.6005840000000 1.0
C      1  0.4284520000000  0.4858380000000  0.5918690000000 1.0
C      1  0.5080400000000  0.4278710000000  0.6049900000000 1.0
C      1  0.3904520000000  0.4695930000000  0.4827400000000 1.0
C      1  0.4919910000000  0.3886020000000  0.4823370000000 1.0
C      1  0.6080310000000  0.4757740000000  0.4810410000000 1.0
C      1  0.5652380000000  0.5883370000000  0.4822820000000 1.0
C      1  0.4182310000000  0.5856240000000  0.4916070000000 1.0
C      1  0.3861360000000  0.4621840000000  0.5114400000000 1.0
C      1  0.4893430000000  0.3914310000000  0.5183290000000 1.0
C      1  0.6080630000000  0.4751860000000  0.5130460000000 1.0
C      1  0.5692320000000  0.5970270000000  0.5103500000000 1.0
C      1  0.4259730000000  0.5822870000000  0.5184010000000 1.0
C      1  0.5762000000000  0.4433420000000  0.5400100000000 1.0
C      1  0.5774130000000  0.5383270000000  0.5298150000000 1.0
C      1  0.4687260000000  0.5892130000000  0.5421880000000 1.0
C      1  0.4145390000000  0.5134030000000  0.5306620000000 1.0
C      1  0.4507700000000  0.4265090000000  0.5248850000000 1.0
C      1  0.5765100000000  0.4416060000000  0.4587360000000 1.0
C      1  0.5770530000000  0.5402110000000  0.4670830000000 1.0
C      1  0.4936530000000  0.5815290000000  0.4748380000000 1.0
C      1  0.4110510000000  0.5157760000000  0.4664470000000 1.0
C      1  0.4543430000000  0.4173860000000  0.4614790000000 1.0
C      1  0.5911910000000  0.5290450000000  0.4232850000000 1.0
C      1  0.5100990000000  0.5885610000000  0.4304630000000 1.0
C      1  0.4199360000000  0.5458800000000  0.4272870000000 1.0
C      1  0.4200990000000  0.4334130000000  0.4263070000000 1.0
C      1  0.5450520000000  0.4072930000000  0.4314350000000 1.0
C      1  0.5943790000000  0.5262190000000  0.5722790000000 1.0
C      1  0.5224760000000  0.5915760000000  0.5694930000000 1.0
C      1  0.4109280000000  0.5293110000000  0.5743760000000 1.0
C      1  0.4228970000000  0.4361090000000  0.5757500000000 1.0
C      1  0.5404080000000  0.4195370000000  0.5657880000000 1.0
C      1  0.5472840000000  0.4434660000000  0.5817910000000 1.0
C      1  0.5679290000000  0.5245300000000  0.5871320000000 1.0
C      1  0.5102420000000  0.5717770000000  0.5873780000000 1.0
C      1  0.4343140000000  0.5150740000000  0.5877510000000 1.0
C      1  0.4465780000000  0.4393150000000  0.5916650000000 1.0
C      1  0.5506220000000  0.4326460000000  0.4164370000000 1.0
C      1  0.5645340000000  0.5261470000000  0.4084960000000 1.0
C      1  0.5017000000000  0.5639040000000  0.4162660000000 1.0
C      1  0.4365340000000  0.5270360000000  0.4121600000000 1.0
C      1  0.4458020000000  0.4302420000000  0.4151190000000 1.0
C      1  0.4244300000000  0.4315440000000  0.4815120000000 1.0
C      1  0.5351870000000  0.4134200000000  0.4885480000000 1.0
C      1  0.5975800000000  0.5246830000000  0.4827750000000 1.0
C      1  0.5167800000000  0.5960920000000  0.4880990000000 1.0
C      1  0.4042010000000  0.5406010000000  0.4835810000000 1.0
C      1  0.4252890000000  0.4315290000000  0.5114130000000 1.0
C      1  0.5384640000000  0.4072080000000  0.5186750000000 1.0
C      1  0.5963710000000  0.5230140000000  0.5123060000000 1.0
C      1  0.5207550000000  0.6021210000000  0.5159150000000 1.0
C      1  0.4052760000000  0.5378650000000  0.5144420000000 1.0
C      1  0.4949930000000  0.4101780000000  0.4255650000000 1.0
C      1  0.5858760000000  0.4771850000000  0.4206360000000 1.0
C      1  0.5584460000000  0.5686700000000  0.4288820000000 1.0
C      1  0.4599210000000  0.5766590000000  0.4356900000000 1.0
C      1  0.4141020000000  0.4813000000000  0.4250400000000 1.0
C      1  0.4943620000000  0.4159040000000  0.5837620000000 1.0
C      1  0.5891410000000  0.4772810000000  0.5765760000000 1.0
C      1  0.5672680000000  0.5681910000000  0.5687070000000 1.0
C      1  0.4380690000000  0.5694130000000  0.5779320000000 1.0
C      1  0.4096000000000  0.4811300000000  0.5689550000000 1.0
C      1  0.4448960000000  0.5329110000000  0.4960860000000 1.0
C      1  0.4553780000000  0.4594320000000  0.4957880000000 1.0
C      1  0.5183080000000  0.4383640000000  0.4930520000000 1.0
C      1  0.5603640000000  0.5043180000000  0.4947730000000 1.0
C      1  0.5068220000000  0.5664570000000  0.5196850000000 1.0
C      1  0.5024000000000  0.5146320000000  0.5254490000000 1.0
C      1  0.5059210000000  0.4846040000000  0.4817720000000 1.0
C      1  0.5062120000000  0.4864750000000  0.5121730000000 1.0
END
