TITL C-3578207-9274-355 2.28743361769073e-07 125000 -43.3743738286545 0 0 8 (D3h) n - 1
REM
REM in /home/bkarasulu/work/CARBON/AIRSS/Generating-Clusters/EDIP-Nigel-Params/with-SteepDescent/Higher-Symm/SD-CG/HFTN-CG
REM
REM
REM
REM
REM
REM ./C.cell (12c818d87b63d06a65506943cc24bca4)
REM
REM compiler GCC version 9.2.1 20190827 (Red Hat 9.2.1-1)
REM options -cpp -mtune=generic -march=x86-64 -g -O0 -fpre-include=/usr/include/finclude/math-vector-fortran.h
REM seed -82127812 -431785950 -1749610939 -1534842896 1652247654 1744454319 1780722857 -1629754024 863556011 1644870107 857472401 -1085732758 -854453969 107399307 1695338147 1442357267 1529972084 -1083920380 -573707769 -186333106 -1685774961 -1626119816 -1479237891 844396306 -1614550746 1503851608 -545331624 877471682 -1563002656 -105653509 1187227349 1180722595 -1332576782
REM
CELL 1.54180   50.00000   50.00000   50.00000   90.00000   90.00000   90.00000
LATT -1
SFAC C  
C      1  0.5006700000000  0.5271980000000  0.4873220000000 1.0
C      1  0.5006700000000  0.5268350000000  0.5147560000000 1.0
C      1  0.4769610000000  0.4861330000000  0.4873220000000 1.0
C      1  0.5243790000000  0.4861330000000  0.4873220000000 1.0
C      1  0.4772750000000  0.4863140000000  0.5147560000000 1.0
C      1  0.5240650000000  0.4863140000000  0.5147560000000 1.0
C      1  0.5006700000000  0.4998210000000  0.5237470000000 1.0
C      1  0.5006700000000  0.4998210000000  0.4792540000000 1.0
END
