TITL C-3578202-4305-427 -1.83969097306568e-06 125000 -913.068076262583 0 0 147 (C1) n - 1
REM
REM in /home/bkarasulu/work/CARBON/AIRSS/Generating-Clusters/EDIP-Nigel-Params/with-SteepDescent/Higher-Symm/SD-CG/HFTN-CG
REM
REM
REM
REM
REM
REM ./C.cell (12c818d87b63d06a65506943cc24bca4)
REM
REM compiler GCC version 9.2.1 20190827 (Red Hat 9.2.1-1)
REM options -cpp -mtune=generic -march=x86-64 -g -O0 -fpre-include=/usr/include/finclude/math-vector-fortran.h
REM seed -1154117884 -332000372 1872925971 1998975855 1994655050 2085239734 -532762255 1395055159 -606399552 -695621636 -1068678817 364111267 -912266406 -2060618505 -60743726 2063158505 611327172 -950109709 -2135704229 -1049079384 12093298 333417707 1926354319 890011704 -719003019 -1997894760 527207232 -1478585093 1518717190 -1006097084 -254292914 -1498519153 -814986281
REM
CELL 1.54180   50.00000   50.00000   50.00000   90.00000   90.00000   90.00000
LATT -1
SFAC C  
C      1  0.4836890000000  0.4873220000000  0.4674330000000 1.0
C      1  0.4642300000000  0.5135030000000  0.5444120000000 1.0
C      1  0.5241680000000  0.4810210000000  0.4493390000000 1.0
C      1  0.5198830000000  0.5194790000000  0.5462130000000 1.0
C      1  0.4745060000000  0.5142930000000  0.4691720000000 1.0
C      1  0.4678280000000  0.4838340000000  0.5462410000000 1.0
C      1  0.5341080000000  0.5077700000000  0.4580680000000 1.0
C      1  0.5276430000000  0.4916090000000  0.5435250000000 1.0
C      1  0.4823110000000  0.4014810000000  0.4693460000000 1.0
C      1  0.4820390000000  0.6043640000000  0.5300770000000 1.0
C      1  0.5195250000000  0.4122900000000  0.4638900000000 1.0
C      1  0.5138880000000  0.6023110000000  0.5305430000000 1.0
C      1  0.4834160000000  0.5970990000000  0.4708250000000 1.0
C      1  0.4720950000000  0.4111050000000  0.5308950000000 1.0
C      1  0.5141930000000  0.6024470000000  0.4716700000000 1.0
C      1  0.5086350000000  0.4045780000000  0.5225630000000 1.0
C      1  0.5153070000000  0.5986450000000  0.4405070000000 1.0
C      1  0.5098730000000  0.4014520000000  0.5511500000000 1.0
C      1  0.4840110000000  0.5962270000000  0.4402230000000 1.0
C      1  0.4815840000000  0.3993490000000  0.5591620000000 1.0
C      1  0.5151460000000  0.3986620000000  0.4365910000000 1.0
C      1  0.5132190000000  0.6015160000000  0.5610850000000 1.0
C      1  0.4855180000000  0.3967440000000  0.4407800000000 1.0
C      1  0.4822510000000  0.6040670000000  0.5611170000000 1.0
C      1  0.5639100000000  0.5915460000000  0.5277600000000 1.0
C      1  0.5641580000000  0.4128200000000  0.4716610000000 1.0
C      1  0.4311270000000  0.5974830000000  0.5251530000000 1.0
C      1  0.4400850000000  0.4278620000000  0.4757590000000 1.0
C      1  0.5557280000000  0.4186400000000  0.5254130000000 1.0
C      1  0.5626210000000  0.5908790000000  0.4746540000000 1.0
C      1  0.4273940000000  0.3975590000000  0.5184690000000 1.0
C      1  0.4342320000000  0.5922690000000  0.4724240000000 1.0
C      1  0.4556890000000  0.5632720000000  0.5641030000000 1.0
C      1  0.4715280000000  0.4448770000000  0.4361500000000 1.0
C      1  0.5374290000000  0.5577470000000  0.5659250000000 1.0
C      1  0.5349750000000  0.4414430000000  0.4261570000000 1.0
C      1  0.4664420000000  0.4427300000000  0.5686340000000 1.0
C      1  0.4623650000000  0.5527220000000  0.4414570000000 1.0
C      1  0.5287990000000  0.4490130000000  0.5545940000000 1.0
C      1  0.5377750000000  0.5532100000000  0.4418770000000 1.0
C      1  0.5180610000000  0.4250150000000  0.5664900000000 1.0
C      1  0.5191030000000  0.5712920000000  0.4299590000000 1.0
C      1  0.4820660000000  0.4212590000000  0.5790860000000 1.0
C      1  0.4806870000000  0.5701800000000  0.4283760000000 1.0
C      1  0.5161990000000  0.5755050000000  0.5737180000000 1.0
C      1  0.5163760000000  0.4208100000000  0.4170140000000 1.0
C      1  0.4777410000000  0.5784540000000  0.5741980000000 1.0
C      1  0.4787900000000  0.4198800000000  0.4239580000000 1.0
C      1  0.4681730000000  0.4666170000000  0.4807420000000 1.0
C      1  0.4711520000000  0.5513250000000  0.5167020000000 1.0
C      1  0.5328170000000  0.4612790000000  0.4725860000000 1.0
C      1  0.5313390000000  0.5361000000000  0.5187770000000 1.0
C      1  0.4811940000000  0.5577710000000  0.4895490000000 1.0
C      1  0.4875190000000  0.4550980000000  0.5024060000000 1.0
C      1  0.5192370000000  0.5497430000000  0.4917650000000 1.0
C      1  0.5171990000000  0.4575320000000  0.5001640000000 1.0
C      1  0.5647730000000  0.4832350000000  0.4179950000000 1.0
C      1  0.5596470000000  0.5157660000000  0.5804660000000 1.0
C      1  0.4414290000000  0.4817470000000  0.4232090000000 1.0
C      1  0.4265650000000  0.5293050000000  0.5825480000000 1.0
C      1  0.5654580000000  0.5152960000000  0.4215660000000 1.0
C      1  0.5605040000000  0.4858340000000  0.5770150000000 1.0
C      1  0.4421770000000  0.5100090000000  0.4313510000000 1.0
C      1  0.4378330000000  0.4768460000000  0.5842040000000 1.0
C      1  0.3969510000000  0.4792080000000  0.4742180000000 1.0
C      1  0.3944040000000  0.5036510000000  0.5227240000000 1.0
C      1  0.6168980000000  0.4798930000000  0.4758540000000 1.0
C      1  0.6020900000000  0.5011540000000  0.5149450000000 1.0
C      1  0.3909500000000  0.5070880000000  0.4746030000000 1.0
C      1  0.4014450000000  0.4766620000000  0.5205660000000 1.0
C      1  0.6056020000000  0.5044670000000  0.4865950000000 1.0
C      1  0.6130830000000  0.4772110000000  0.5263520000000 1.0
C      1  0.4184710000000  0.4843960000000  0.5658630000000 1.0
C      1  0.4314860000000  0.5069940000000  0.4584270000000 1.0
C      1  0.5821540000000  0.4858260000000  0.5575410000000 1.0
C      1  0.5882520000000  0.5118440000000  0.4416350000000 1.0
C      1  0.4157350000000  0.5131000000000  0.5625510000000 1.0
C      1  0.4308400000000  0.4693720000000  0.4479700000000 1.0
C      1  0.5901060000000  0.5136260000000  0.5585280000000 1.0
C      1  0.5875540000000  0.4815070000000  0.4392010000000 1.0
C      1  0.6011860000000  0.4663460000000  0.5494610000000 1.0
C      1  0.5828980000000  0.5174160000000  0.4703970000000 1.0
C      1  0.4159980000000  0.4668720000000  0.5429170000000 1.0
C      1  0.4104390000000  0.5255100000000  0.4654770000000 1.0
C      1  0.5959290000000  0.5238050000000  0.5322830000000 1.0
C      1  0.6107210000000  0.4690040000000  0.4503600000000 1.0
C      1  0.4043480000000  0.5246150000000  0.5382930000000 1.0
C      1  0.4020960000000  0.4656670000000  0.4500680000000 1.0
C      1  0.4571700000000  0.6038550000000  0.5137850000000 1.0
C      1  0.4573840000000  0.4051550000000  0.4833750000000 1.0
C      1  0.5384180000000  0.5972350000000  0.5158760000000 1.0
C      1  0.5396160000000  0.4014790000000  0.4828580000000 1.0
C      1  0.4544260000000  0.3954820000000  0.5114290000000 1.0
C      1  0.4584090000000  0.6009070000000  0.4850460000000 1.0
C      1  0.5335750000000  0.4108370000000  0.5097330000000 1.0
C      1  0.5379660000000  0.5966980000000  0.4874240000000 1.0
C      1  0.4511780000000  0.5662600000000  0.5350010000000 1.0
C      1  0.4525130000000  0.4497480000000  0.4596280000000 1.0
C      1  0.5451920000000  0.5592370000000  0.5367470000000 1.0
C      1  0.5375810000000  0.4362400000000  0.4557470000000 1.0
C      1  0.4570290000000  0.4378410000000  0.5408390000000 1.0
C      1  0.4546460000000  0.5598970000000  0.4698720000000 1.0
C      1  0.5369590000000  0.4525010000000  0.5244560000000 1.0
C      1  0.5436060000000  0.5574000000000  0.4705990000000 1.0
C      1  0.5392500000000  0.5244170000000  0.4337860000000 1.0
C      1  0.5322880000000  0.4766520000000  0.5689300000000 1.0
C      1  0.4677040000000  0.5236080000000  0.4388230000000 1.0
C      1  0.4645700000000  0.4724090000000  0.5737490000000 1.0
C      1  0.5365290000000  0.4723320000000  0.4221130000000 1.0
C      1  0.5341390000000  0.5286670000000  0.5725040000000 1.0
C      1  0.4672630000000  0.4681880000000  0.4171240000000 1.0
C      1  0.4526500000000  0.5351070000000  0.5723060000000 1.0
C      1  0.4262250000000  0.4389430000000  0.5418530000000 1.0
C      1  0.4267830000000  0.5452940000000  0.4802930000000 1.0
C      1  0.5769400000000  0.4650030000000  0.5192680000000 1.0
C      1  0.5716000000000  0.5455800000000  0.4776060000000 1.0
C      1  0.4210570000000  0.5456360000000  0.5241690000000 1.0
C      1  0.4152330000000  0.4687800000000  0.4956920000000 1.0
C      1  0.5750530000000  0.5418100000000  0.5213990000000 1.0
C      1  0.5845610000000  0.4590200000000  0.4771720000000 1.0
C      1  0.4658670000000  0.4629820000000  0.5248180000000 1.0
C      1  0.4515190000000  0.5104290000000  0.4912770000000 1.0
C      1  0.5516450000000  0.4881870000000  0.5257640000000 1.0
C      1  0.5565040000000  0.5034090000000  0.4784240000000 1.0
C      1  0.4545950000000  0.5266860000000  0.5179880000000 1.0
C      1  0.4459160000000  0.4805380000000  0.4976660000000 1.0
C      1  0.5518280000000  0.5134030000000  0.5078750000000 1.0
C      1  0.5588860000000  0.4737200000000  0.4801650000000 1.0
C      1  0.5821350000000  0.5719870000000  0.4858910000000 1.0
C      1  0.5759290000000  0.4351260000000  0.5137170000000 1.0
C      1  0.4159200000000  0.5727330000000  0.4850110000000 1.0
C      1  0.4155960000000  0.4231410000000  0.5192090000000 1.0
C      1  0.5825350000000  0.4301370000000  0.4856720000000 1.0
C      1  0.5820960000000  0.5714850000000  0.5158480000000 1.0
C      1  0.4192960000000  0.4383800000000  0.4941320000000 1.0
C      1  0.4138570000000  0.5753060000000  0.5147810000000 1.0
C      1  0.4888020000000  0.5160250000000  0.4176450000000 1.0
C      1  0.4837140000000  0.4884670000000  0.5911540000000 1.0
C      1  0.5191130000000  0.5180030000000  0.4123280000000 1.0
C      1  0.5142950000000  0.4869620000000  0.5924410000000 1.0
C      1  0.4879540000000  0.4881190000000  0.4046090000000 1.0
C      1  0.4863820000000  0.5196060000000  0.5840200000000 1.0
C      1  0.5192760000000  0.4875990000000  0.4020940000000 1.0
C      1  0.5155220000000  0.5190920000000  0.5941830000000 1.0
C      1  0.4909970000000  0.5237840000000  0.5538300000000 1.0
C      1  0.4945810000000  0.4802440000000  0.4423370000000 1.0
C      1  0.4958590000000  0.5331160000000  0.4795570000000 1.0
END
