TITL C-3577087-600-680 1.51732124412551e-06 125000 -1053.56324832458 0 0 172 (C1) n - 1
REM
REM in /home/bkarasulu/work/CARBON/AIRSS/Generating-Clusters/EDIP-Nigel-Params/with-SteepDescent/Higher-Symm/SD-CG/HFTN-CG
REM
REM
REM
REM
REM
REM ./C.cell (12c818d87b63d06a65506943cc24bca4)
REM
REM compiler GCC version 9.2.1 20190827 (Red Hat 9.2.1-1)
REM options -cpp -mtune=generic -march=x86-64 -g -O0 -fpre-include=/usr/include/finclude/math-vector-fortran.h
REM seed -82978976 1842838799 1546664098 1225337211 -234720747 -2060333775 -968193787 1363399033 573068912 830791531 -1374195993 -1585221322 26423400 1318907840 796167297 -1699148774 -724960380 1471131581 -1508855276 -50562486 74318617 1043355180 -1946764752 676056694 -1338798105 2124542664 -687415061 -1705070677 657934325 1458038774 959528374 1853516942 549088451
REM
CELL 1.54180   50.00000   50.00000   50.00000   90.00000   90.00000   90.00000
LATT -1
SFAC C  
C      1  0.3999280000000  0.4709400000000  0.5031810000000 1.0
C      1  0.5520100000000  0.4711960000000  0.5844080000000 1.0
C      1  0.5481110000000  0.4706850000000  0.4128520000000 1.0
C      1  0.4984880000000  0.5528820000000  0.4010430000000 1.0
C      1  0.4146990000000  0.5544810000000  0.5510380000000 1.0
C      1  0.5871370000000  0.5541790000000  0.5485170000000 1.0
C      1  0.4253630000000  0.5125490000000  0.4341910000000 1.0
C      1  0.4786260000000  0.5126560000000  0.5976760000000 1.0
C      1  0.5968750000000  0.5132310000000  0.4687910000000 1.0
C      1  0.4737130000000  0.5558200000000  0.5753470000000 1.0
C      1  0.5793240000000  0.5559860000000  0.4849640000000 1.0
C      1  0.4470500000000  0.5556160000000  0.4395860000000 1.0
C      1  0.5357140000000  0.5924060000000  0.5340730000000 1.0
C      1  0.5118480000000  0.5923720000000  0.4516780000000 1.0
C      1  0.4524530000000  0.5931110000000  0.5137170000000 1.0
C      1  0.4292810000000  0.5097990000000  0.4849120000000 1.0
C      1  0.5202000000000  0.5099260000000  0.5687850000000 1.0
C      1  0.5506490000000  0.5097060000000  0.4473550000000 1.0
C      1  0.4501270000000  0.5047160000000  0.5047490000000 1.0
C      1  0.5265380000000  0.5041180000000  0.5410750000000 1.0
C      1  0.5223510000000  0.5057870000000  0.4539800000000 1.0
C      1  0.5707260000000  0.5570000000000  0.5746100000000 1.0
C      1  0.5293360000000  0.5565840000000  0.4014640000000 1.0
C      1  0.3998040000000  0.5574810000000  0.5241130000000 1.0
C      1  0.4539750000000  0.5483860000000  0.5313730000000 1.0
C      1  0.5508390000000  0.5475370000000  0.5240130000000 1.0
C      1  0.4956000000000  0.5473870000000  0.4449290000000 1.0
C      1  0.5429760000000  0.4425230000000  0.5097100000000 1.0
C      1  0.4863280000000  0.4426660000000  0.4537440000000 1.0
C      1  0.4680270000000  0.4404530000000  0.5332780000000 1.0
C      1  0.5038860000000  0.4049520000000  0.5515160000000 1.0
C      1  0.5418940000000  0.4063470000000  0.4710260000000 1.0
C      1  0.4527050000000  0.4047310000000  0.4772900000000 1.0
C      1  0.5800920000000  0.4406840000000  0.4362500000000 1.0
C      1  0.4041840000000  0.4403490000000  0.4631970000000 1.0
C      1  0.5154990000000  0.4413340000000  0.6004160000000 1.0
C      1  0.4447850000000  0.5761720000000  0.5395250000000 1.0
C      1  0.5619780000000  0.5755910000000  0.5280300000000 1.0
C      1  0.4932950000000  0.5750970000000  0.4325180000000 1.0
C      1  0.5869140000000  0.5172860000000  0.5606960000000 1.0
C      1  0.5099630000000  0.5163650000000  0.3950410000000 1.0
C      1  0.4039880000000  0.5175410000000  0.5448260000000 1.0
C      1  0.5273560000000  0.5475320000000  0.5744420000000 1.0
C      1  0.5516770000000  0.5475840000000  0.4387500000000 1.0
C      1  0.4213490000000  0.5475050000000  0.4865940000000 1.0
C      1  0.5701520000000  0.4452450000000  0.4630860000000 1.0
C      1  0.4323190000000  0.4445020000000  0.4573550000000 1.0
C      1  0.4969370000000  0.4449040000000  0.5784090000000 1.0
C      1  0.4754770000000  0.4772590000000  0.3951240000000 1.0
C      1  0.4220400000000  0.4785300000000  0.5746500000000 1.0
C      1  0.6045380000000  0.4778900000000  0.5305590000000 1.0
C      1  0.5905520000000  0.4852820000000  0.4312620000000 1.0
C      1  0.3949210000000  0.4858020000000  0.4579640000000 1.0
C      1  0.5146070000000  0.4854630000000  0.6114920000000 1.0
C      1  0.5635110000000  0.5195200000000  0.4073040000000 1.0
C      1  0.3877120000000  0.5199460000000  0.4925800000000 1.0
C      1  0.5488280000000  0.5193880000000  0.6003320000000 1.0
C      1  0.4875080000000  0.4008950000000  0.5270740000000 1.0
C      1  0.5286020000000  0.4024570000000  0.4971210000000 1.0
C      1  0.4819420000000  0.3999770000000  0.4760580000000 1.0
C      1  0.3968390000000  0.5293210000000  0.5191600000000 1.0
C      1  0.5675500000000  0.5288040000000  0.5792560000000 1.0
C      1  0.5356030000000  0.5285010000000  0.4018390000000 1.0
C      1  0.5243440000000  0.5869820000000  0.5072680000000 1.0
C      1  0.4943270000000  0.5876700000000  0.4751350000000 1.0
C      1  0.4814880000000  0.5879340000000  0.5172290000000 1.0
C      1  0.6009380000000  0.4850430000000  0.4574280000000 1.0
C      1  0.4117080000000  0.4856130000000  0.4355390000000 1.0
C      1  0.4867870000000  0.4850030000000  0.6073240000000 1.0
C      1  0.5336140000000  0.4259880000000  0.4251830000000 1.0
C      1  0.4179610000000  0.4258150000000  0.5087760000000 1.0
C      1  0.5485150000000  0.4258680000000  0.5662400000000 1.0
C      1  0.4450370000000  0.4176550000000  0.4503960000000 1.0
C      1  0.4849430000000  0.4177730000000  0.5721780000000 1.0
C      1  0.5694350000000  0.4185150000000  0.4772290000000 1.0
C      1  0.5317280000000  0.4908470000000  0.4999410000000 1.0
C      1  0.4865660000000  0.4847510000000  0.4744410000000 1.0
C      1  0.4852200000000  0.4804640000000  0.5186330000000 1.0
C      1  0.5314460000000  0.4756630000000  0.5362920000000 1.0
C      1  0.5125470000000  0.4785220000000  0.4541970000000 1.0
C      1  0.4553890000000  0.4767120000000  0.5105410000000 1.0
C      1  0.4767270000000  0.4661190000000  0.5856630000000 1.0
C      1  0.5874070000000  0.4659260000000  0.4769620000000 1.0
C      1  0.4348880000000  0.4659370000000  0.4359420000000 1.0
C      1  0.5422590000000  0.5708740000000  0.4227040000000 1.0
C      1  0.4121180000000  0.5712020000000  0.5021800000000 1.0
C      1  0.5457250000000  0.5710530000000  0.5749100000000 1.0
C      1  0.5034160000000  0.5560720000000  0.5574080000000 1.0
C      1  0.5486580000000  0.5557940000000  0.4681310000000 1.0
C      1  0.4480480000000  0.5560630000000  0.4742590000000 1.0
C      1  0.4663040000000  0.5956340000000  0.4660560000000 1.0
C      1  0.4877200000000  0.5959590000000  0.5459750000000 1.0
C      1  0.5459860000000  0.5955170000000  0.4875840000000 1.0
C      1  0.4750450000000  0.4179460000000  0.4426750000000 1.0
C      1  0.4624850000000  0.4176850000000  0.5512580000000 1.0
C      1  0.5618910000000  0.4196780000000  0.5068890000000 1.0
C      1  0.5117120000000  0.4393830000000  0.4093870000000 1.0
C      1  0.4162390000000  0.4398080000000  0.5356330000000 1.0
C      1  0.5725340000000  0.4399450000000  0.5543970000000 1.0
C      1  0.5776580000000  0.4774320000000  0.5048280000000 1.0
C      1  0.4629520000000  0.4789780000000  0.4304210000000 1.0
C      1  0.4576970000000  0.4779060000000  0.5631980000000 1.0
C      1  0.5989870000000  0.5558080000000  0.5182320000000 1.0
C      1  0.4666030000000  0.5536790000000  0.4063130000000 1.0
C      1  0.4351070000000  0.5552070000000  0.5759820000000 1.0
C      1  0.5641170000000  0.4941890000000  0.4232170000000 1.0
C      1  0.4013830000000  0.4946330000000  0.4847430000000 1.0
C      1  0.5345690000000  0.4945160000000  0.5924580000000 1.0
C      1  0.4931840000000  0.4543510000000  0.5295060000000 1.0
C      1  0.5315350000000  0.4610970000000  0.4898810000000 1.0
C      1  0.4760550000000  0.4566630000000  0.4769670000000 1.0
C      1  0.4978690000000  0.5557330000000  0.4729880000000 1.0
C      1  0.4776700000000  0.5562920000000  0.5155400000000 1.0
C      1  0.5250820000000  0.5552750000000  0.5114810000000 1.0
C      1  0.4553660000000  0.5255140000000  0.5499880000000 1.0
C      1  0.5672470000000  0.5252660000000  0.5134170000000 1.0
C      1  0.4777830000000  0.5248910000000  0.4382750000000 1.0
C      1  0.4640980000000  0.5828230000000  0.4389650000000 1.0
C      1  0.4652000000000  0.5835190000000  0.5614690000000 1.0
C      1  0.5707750000000  0.5833380000000  0.4994070000000 1.0
C      1  0.4687200000000  0.5000720000000  0.4520900000000 1.0
C      1  0.4725200000000  0.5011650000000  0.5493990000000 1.0
C      1  0.5600990000000  0.5010230000000  0.4983540000000 1.0
C      1  0.5023800000000  0.4881810000000  0.3976530000000 1.0
C      1  0.4088000000000  0.4891420000000  0.5508160000000 1.0
C      1  0.5899360000000  0.4888690000000  0.5536000000000 1.0
C      1  0.4482280000000  0.4618060000000  0.5371840000000 1.0
C      1  0.5578900000000  0.4618120000000  0.5257480000000 1.0
C      1  0.4925820000000  0.4635150000000  0.4335380000000 1.0
C      1  0.4653420000000  0.5261240000000  0.4126670000000 1.0
C      1  0.4403450000000  0.5272950000000  0.5744780000000 1.0
C      1  0.5959050000000  0.5278250000000  0.5142470000000 1.0
C      1  0.4439980000000  0.5859460000000  0.4851890000000 1.0
C      1  0.5151970000000  0.5858310000000  0.5556380000000 1.0
C      1  0.5407980000000  0.5856380000000  0.4587780000000 1.0
C      1  0.5569410000000  0.4441260000000  0.4205870000000 1.0
C      1  0.4031350000000  0.4445870000000  0.4910420000000 1.0
C      1  0.5404520000000  0.4447450000000  0.5879360000000 1.0
C      1  0.4499900000000  0.5138350000000  0.5968650000000 1.0
C      1  0.6102420000000  0.5149260000000  0.4941250000000 1.0
C      1  0.4412410000000  0.5125960000000  0.4102840000000 1.0
C      1  0.5237610000000  0.5438660000000  0.4837530000000 1.0
C      1  0.4742570000000  0.5446810000000  0.4878710000000 1.0
C      1  0.5022230000000  0.5443940000000  0.5280530000000 1.0
C      1  0.4161560000000  0.5413310000000  0.4395170000000 1.0
C      1  0.4888450000000  0.5412400000000  0.6019580000000 1.0
C      1  0.5949390000000  0.5420320000000  0.4580870000000 1.0
C      1  0.5740240000000  0.4682330000000  0.5659310000000 1.0
C      1  0.5217570000000  0.4673430000000  0.4014030000000 1.0
C      1  0.4055360000000  0.4681620000000  0.5312680000000 1.0
C      1  0.4478850000000  0.4519790000000  0.4843720000000 1.0
C      1  0.5128440000000  0.4518530000000  0.5508580000000 1.0
C      1  0.5389490000000  0.4539580000000  0.4619960000000 1.0
C      1  0.5038180000000  0.5134560000000  0.5234230000000 1.0
C      1  0.5186760000000  0.5135920000000  0.4822040000000 1.0
C      1  0.4763150000000  0.5144290000000  0.4935340000000 1.0
C      1  0.5674240000000  0.5100050000000  0.4717750000000 1.0
C      1  0.4418390000000  0.5085600000000  0.4585700000000 1.0
C      1  0.4909800000000  0.5095310000000  0.5707900000000 1.0
C      1  0.5856580000000  0.4282870000000  0.5280990000000 1.0
C      1  0.4820950000000  0.4269500000000  0.4120360000000 1.0
C      1  0.4325310000000  0.4281830000000  0.5603910000000 1.0
C      1  0.4267410000000  0.4505510000000  0.5772580000000 1.0
C      1  0.6044380000000  0.4497720000000  0.5254240000000 1.0
C      1  0.4702580000000  0.4495470000000  0.3988880000000 1.0
C      1  0.5184310000000  0.5417340000000  0.6020810000000 1.0
C      1  0.5800820000000  0.5422740000000  0.4325070000000 1.0
C      1  0.4015440000000  0.5420870000000  0.4652340000000 1.0
C      1  0.5261650000000  0.4248340000000  0.5465400000000 1.0
C      1  0.5274760000000  0.4267170000000  0.4543470000000 1.0
C      1  0.4459320000000  0.4250290000000  0.4984150000000 1.0
C      1  0.4992900000000  0.4010420000000  0.4999830000000 1.0
END
