TITL C-3578202-4305-521 -1.27388715447005e-06 125000 -686.440114776861 0 0 111 (C1) n - 1
REM
REM in /home/bkarasulu/work/CARBON/AIRSS/Generating-Clusters/EDIP-Nigel-Params/with-SteepDescent/Higher-Symm/SD-CG/HFTN-CG
REM
REM
REM
REM
REM
REM ./C.cell (12c818d87b63d06a65506943cc24bca4)
REM
REM compiler GCC version 9.2.1 20190827 (Red Hat 9.2.1-1)
REM options -cpp -mtune=generic -march=x86-64 -g -O0 -fpre-include=/usr/include/finclude/math-vector-fortran.h
REM seed 181813460 -860710501 -103255857 -1340946621 -1652505148 1582102767 1299933661 -178828093 1132380433 -782508602 -699747817 -2058731413 492420854 1719677967 -1340992170 -1408937819 -437110471 536336573 -1147918337 -1260164929 -425413700 -1740029913 688720960 -1564163836 1102104733 1479127771 -2056784620 1645260961 1093951435 466326795 1455207849 -749634591 -384563909
REM
CELL 1.54180   50.00000   50.00000   50.00000   90.00000   90.00000   90.00000
LATT -1
SFAC C  
C      1  0.5587870000000  0.4261340000000  0.5454730000000 1.0
C      1  0.5331500000000  0.5875690000000  0.5450720000000 1.0
C      1  0.4053290000000  0.4857760000000  0.5449210000000 1.0
C      1  0.5597040000000  0.4254640000000  0.4558070000000 1.0
C      1  0.5337260000000  0.5868360000000  0.4570600000000 1.0
C      1  0.4087020000000  0.4860090000000  0.4566160000000 1.0
C      1  0.5573400000000  0.5726890000000  0.5437880000000 1.0
C      1  0.5336580000000  0.4125680000000  0.5460790000000 1.0
C      1  0.4053190000000  0.5142110000000  0.5455220000000 1.0
C      1  0.5590230000000  0.5736240000000  0.4552670000000 1.0
C      1  0.5346960000000  0.4120300000000  0.4564000000000 1.0
C      1  0.4087160000000  0.5145770000000  0.4573650000000 1.0
C      1  0.4840680000000  0.4311510000000  0.4751790000000 1.0
C      1  0.5708110000000  0.5186030000000  0.4684650000000 1.0
C      1  0.4517320000000  0.5480630000000  0.4810040000000 1.0
C      1  0.4778120000000  0.4313260000000  0.5264480000000 1.0
C      1  0.5648260000000  0.5182920000000  0.5240660000000 1.0
C      1  0.4480170000000  0.5490720000000  0.5317700000000 1.0
C      1  0.4826050000000  0.5674490000000  0.4796950000000 1.0
C      1  0.5744990000000  0.4804770000000  0.4720200000000 1.0
C      1  0.4515560000000  0.4495640000000  0.4728820000000 1.0
C      1  0.4780060000000  0.5721500000000  0.5276460000000 1.0
C      1  0.5696730000000  0.4805380000000  0.5234720000000 1.0
C      1  0.4467860000000  0.4542310000000  0.5313570000000 1.0
C      1  0.5287930000000  0.4848360000000  0.4324570000000 1.0
C      1  0.5024400000000  0.5280530000000  0.4357400000000 1.0
C      1  0.4770950000000  0.4840400000000  0.4339700000000 1.0
C      1  0.5232310000000  0.4859760000000  0.5684620000000 1.0
C      1  0.4978840000000  0.5299420000000  0.5694350000000 1.0
C      1  0.4722400000000  0.4860010000000  0.5674040000000 1.0
C      1  0.5299710000000  0.5147170000000  0.4387390000000 1.0
C      1  0.5028150000000  0.4701160000000  0.4323140000000 1.0
C      1  0.4773870000000  0.5132090000000  0.4340750000000 1.0
C      1  0.5232080000000  0.5149720000000  0.5688370000000 1.0
C      1  0.4977480000000  0.4715820000000  0.5688630000000 1.0
C      1  0.4724030000000  0.5156400000000  0.5674850000000 1.0
C      1  0.5234590000000  0.4035430000000  0.4818700000000 1.0
C      1  0.5730700000000  0.5689440000000  0.4796150000000 1.0
C      1  0.4060390000000  0.5291660000000  0.4824480000000 1.0
C      1  0.5233030000000  0.4062540000000  0.5203280000000 1.0
C      1  0.5695630000000  0.5672100000000  0.5180100000000 1.0
C      1  0.4033360000000  0.5285980000000  0.5208610000000 1.0
C      1  0.5222430000000  0.5964100000000  0.4821200000000 1.0
C      1  0.5725970000000  0.4296770000000  0.4808040000000 1.0
C      1  0.4054630000000  0.4715870000000  0.4811600000000 1.0
C      1  0.5222820000000  0.5974080000000  0.5205740000000 1.0
C      1  0.5702730000000  0.4311840000000  0.5192920000000 1.0
C      1  0.4032330000000  0.4715230000000  0.5196730000000 1.0
C      1  0.5719130000000  0.4855530000000  0.5539540000000 1.0
C      1  0.4736300000000  0.5733090000000  0.5587480000000 1.0
C      1  0.4474800000000  0.4429010000000  0.5603700000000 1.0
C      1  0.5791750000000  0.4851880000000  0.4411530000000 1.0
C      1  0.4776430000000  0.5686550000000  0.4489030000000 1.0
C      1  0.4512430000000  0.4419760000000  0.4427420000000 1.0
C      1  0.5710860000000  0.5148240000000  0.5540190000000 1.0
C      1  0.4735640000000  0.4289960000000  0.5570170000000 1.0
C      1  0.4475960000000  0.5585970000000  0.5611450000000 1.0
C      1  0.5788710000000  0.5158130000000  0.4388180000000 1.0
C      1  0.4778050000000  0.4282840000000  0.4443950000000 1.0
C      1  0.4529600000000  0.5533860000000  0.4499790000000 1.0
C      1  0.4255510000000  0.5216240000000  0.4360070000000 1.0
C      1  0.5206670000000  0.4227310000000  0.4346440000000 1.0
C      1  0.5588060000000  0.5551150000000  0.4339500000000 1.0
C      1  0.4222830000000  0.5223610000000  0.5663370000000 1.0
C      1  0.5175090000000  0.4246670000000  0.5656060000000 1.0
C      1  0.5553330000000  0.5546800000000  0.5652380000000 1.0
C      1  0.4260120000000  0.4777910000000  0.4359540000000 1.0
C      1  0.5192940000000  0.5761680000000  0.4356790000000 1.0
C      1  0.5595020000000  0.4447080000000  0.4354160000000 1.0
C      1  0.4218740000000  0.4784910000000  0.5664510000000 1.0
C      1  0.5174610000000  0.5772160000000  0.5658650000000 1.0
C      1  0.5561470000000  0.4457050000000  0.5653760000000 1.0
C      1  0.4991120000000  0.5571520000000  0.4328110000000 1.0
C      1  0.4518610000000  0.4683150000000  0.4294900000000 1.0
C      1  0.5554220000000  0.4717240000000  0.4291730000000 1.0
C      1  0.4964440000000  0.5596120000000  0.5717110000000 1.0
C      1  0.4478900000000  0.4697260000000  0.5728570000000 1.0
C      1  0.5498650000000  0.4728010000000  0.5685740000000 1.0
C      1  0.5000090000000  0.4408450000000  0.4294000000000 1.0
C      1  0.4525230000000  0.5293000000000  0.4336030000000 1.0
C      1  0.5547480000000  0.5282490000000  0.4264200000000 1.0
C      1  0.4962030000000  0.4420790000000  0.5706630000000 1.0
C      1  0.4480410000000  0.5316060000000  0.5725370000000 1.0
C      1  0.5500050000000  0.5275740000000  0.5702610000000 1.0
C      1  0.4934750000000  0.4603990000000  0.4893310000000 1.0
C      1  0.5392870000000  0.5143160000000  0.4684150000000 1.0
C      1  0.4626660000000  0.5213180000000  0.4937170000000 1.0
C      1  0.4867650000000  0.4600240000000  0.5180260000000 1.0
C      1  0.5342540000000  0.5158330000000  0.5154020000000 1.0
C      1  0.4674740000000  0.5234720000000  0.5241830000000 1.0
C      1  0.5004160000000  0.5443940000000  0.4923310000000 1.0
C      1  0.5430860000000  0.4838760000000  0.4737260000000 1.0
C      1  0.4686820000000  0.4754220000000  0.4765450000000 1.0
C      1  0.4898690000000  0.5446360000000  0.5198400000000 1.0
C      1  0.5392310000000  0.4851180000000  0.5124860000000 1.0
C      1  0.4650880000000  0.4831560000000  0.5237950000000 1.0
C      1  0.5808090000000  0.5411140000000  0.5129610000000 1.0
C      1  0.4208840000000  0.5514090000000  0.5178920000000 1.0
C      1  0.4947750000000  0.4079800000000  0.5155000000000 1.0
C      1  0.5831670000000  0.5420950000000  0.4839520000000 1.0
C      1  0.4229580000000  0.5520380000000  0.4889480000000 1.0
C      1  0.4950400000000  0.4061800000000  0.4865500000000 1.0
C      1  0.5840450000000  0.4559810000000  0.5142850000000 1.0
C      1  0.4215370000000  0.4495750000000  0.5159860000000 1.0
C      1  0.4935890000000  0.5962000000000  0.5162010000000 1.0
C      1  0.5857740000000  0.4550750000000  0.4851760000000 1.0
C      1  0.4235110000000  0.4495690000000  0.4866720000000 1.0
C      1  0.4936020000000  0.5945840000000  0.4871810000000 1.0
C      1  0.5238880000000  0.4673700000000  0.4906310000000 1.0
C      1  0.5258030000000  0.5292680000000  0.4909210000000 1.0
C      1  0.4561740000000  0.4928890000000  0.4961380000000 1.0
END
