TITL C-3578203-1966-54 2.82001436618399e-07 125000 -264.49688377401 0 0 44 (C1) n - 1
REM
REM in /home/bkarasulu/work/CARBON/AIRSS/Generating-Clusters/EDIP-Nigel-Params/with-SteepDescent/Higher-Symm/SD-CG/HFTN-CG
REM
REM
REM
REM
REM
REM ./C.cell (12c818d87b63d06a65506943cc24bca4)
REM
REM compiler GCC version 9.2.1 20190827 (Red Hat 9.2.1-1)
REM options -cpp -mtune=generic -march=x86-64 -g -O0 -fpre-include=/usr/include/finclude/math-vector-fortran.h
REM seed 948799497 275936341 -299965635 638456145 -1625939595 -1527469463 -875859058 513302268 706794236 1592192471 1076010106 1207413865 -1077996009 166676825 1736425002 912347172 -68329961 1177595060 958137091 1961707761 737072925 -1162906325 -898488868 274467324 -1078242011 -388586258 -86835086 1179356653 -1485479274 1054529117 579617967 1705762565 1014017677
REM
CELL 1.54180   50.00000   50.00000   50.00000   90.00000   90.00000   90.00000
LATT -1
SFAC C  
C      1  0.4772780000000  0.5374970000000  0.5499800000000 1.0
C      1  0.5365100000000  0.5216270000000  0.5467550000000 1.0
C      1  0.5224860000000  0.4699720000000  0.5377060000000 1.0
C      1  0.4526030000000  0.4832570000000  0.5465470000000 1.0
C      1  0.4928360000000  0.5382360000000  0.4590090000000 1.0
C      1  0.5427860000000  0.5192510000000  0.4549520000000 1.0
C      1  0.5173900000000  0.4601400000000  0.4535010000000 1.0
C      1  0.4596410000000  0.4779970000000  0.4557360000000 1.0
C      1  0.4530680000000  0.5414670000000  0.4830360000000 1.0
C      1  0.5417810000000  0.5492900000000  0.4957150000000 1.0
C      1  0.5476220000000  0.4607320000000  0.4913010000000 1.0
C      1  0.4497340000000  0.4468540000000  0.4888450000000 1.0
C      1  0.4497750000000  0.5397940000000  0.5105380000000 1.0
C      1  0.5586740000000  0.5525860000000  0.5185290000000 1.0
C      1  0.5554280000000  0.4461050000000  0.5143520000000 1.0
C      1  0.4545590000000  0.4484040000000  0.5160550000000 1.0
C      1  0.5254260000000  0.4468490000000  0.4768150000000 1.0
C      1  0.4403050000000  0.4686890000000  0.4737000000000 1.0
C      1  0.4742550000000  0.5553590000000  0.4706860000000 1.0
C      1  0.5572460000000  0.5342400000000  0.4742810000000 1.0
C      1  0.5320560000000  0.4448440000000  0.5300440000000 1.0
C      1  0.4374790000000  0.4658210000000  0.5309380000000 1.0
C      1  0.4706160000000  0.5517050000000  0.5267460000000 1.0
C      1  0.5583990000000  0.5263380000000  0.5295980000000 1.0
C      1  0.4182740000000  0.4786480000000  0.5149850000000 1.0
C      1  0.4938380000000  0.5609330000000  0.5102240000000 1.0
C      1  0.5634100000000  0.5061460000000  0.5077920000000 1.0
C      1  0.5115660000000  0.4287410000000  0.5195700000000 1.0
C      1  0.4330030000000  0.4894560000000  0.4934160000000 1.0
C      1  0.4852930000000  0.5752410000000  0.4872870000000 1.0
C      1  0.5778410000000  0.5189650000000  0.4867040000000 1.0
C      1  0.5031170000000  0.4428220000000  0.4964000000000 1.0
C      1  0.4890630000000  0.5139310000000  0.5410340000000 1.0
C      1  0.5149470000000  0.5166920000000  0.5278770000000 1.0
C      1  0.5181740000000  0.4892930000000  0.5179340000000 1.0
C      1  0.4720260000000  0.4931500000000  0.5274460000000 1.0
C      1  0.5037310000000  0.5234030000000  0.4802340000000 1.0
C      1  0.5244830000000  0.5041760000000  0.4718250000000 1.0
C      1  0.5069050000000  0.4853300000000  0.4576640000000 1.0
C      1  0.4810170000000  0.4859970000000  0.4734940000000 1.0
C      1  0.4588420000000  0.5044120000000  0.5002390000000 1.0
C      1  0.5136810000000  0.5382950000000  0.5037580000000 1.0
C      1  0.5390550000000  0.4898130000000  0.4970670000000 1.0
C      1  0.4837830000000  0.4675010000000  0.5003180000000 1.0
END
