TITL C-3577079-311-179 4.97931714581181e-07 125000 -81.8346842020518 0 0 15 (C5) n - 1
REM
REM in /home/bkarasulu/work/CARBON/AIRSS/Generating-Clusters/EDIP-Nigel-Params/with-SteepDescent/Higher-Symm/SD-CG/HFTN-CG
REM
REM
REM
REM
REM
REM ./C.cell (12c818d87b63d06a65506943cc24bca4)
REM
REM compiler GCC version 9.2.1 20190827 (Red Hat 9.2.1-1)
REM options -cpp -mtune=generic -march=x86-64 -g -O0 -fpre-include=/usr/include/finclude/math-vector-fortran.h
REM seed -789321968 1298551013 -1004185415 -1064444389 -271351154 -1923968538 -1387872010 -28255717 1742582479 1679993205 138515478 -213702364 -1981590068 1374726161 -1477082097 1518257634 1168945106 2001653008 -1119868452 -67818412 -836046640 -1803523866 83676601 -1561307057 -2009760589 -1919145380 318503106 1125614914 2079909065 -922661937 -1976813327 -1304660785 2053626206
REM
CELL 1.54180   50.00000   50.00000   50.00000   90.00000   90.00000   90.00000
LATT -1
SFAC C  
C      1  0.4745630000000  0.5001820000000  0.5283870000000 1.0
C      1  0.4923120000000  0.5242480000000  0.5283870000000 1.0
C      1  0.5206860000000  0.5148050000000  0.5283870000000 1.0
C      1  0.5204720000000  0.4849010000000  0.5283870000000 1.0
C      1  0.4919670000000  0.4758640000000  0.5283870000000 1.0
C      1  0.4745630000000  0.5001820000000  0.4685370000000 1.0
C      1  0.4923120000000  0.5242480000000  0.4685370000000 1.0
C      1  0.5206860000000  0.5148050000000  0.4685370000000 1.0
C      1  0.5204720000000  0.4849010000000  0.4685370000000 1.0
C      1  0.4919670000000  0.4758640000000  0.4685370000000 1.0
C      1  0.4932570000000  0.4674280000000  0.4984620000000 1.0
C      1  0.4669390000000  0.4963470000000  0.4984620000000 1.0
C      1  0.5246000000000  0.5223880000000  0.4984620000000 1.0
C      1  0.5288940000000  0.4835220000000  0.4984620000000 1.0
C      1  0.4863100000000  0.5303140000000  0.4984620000000 1.0
END
