TITL C-3578200-9634-407 -2.467911143549e-06 125000 -616.570555336302 0 0 101 (C1) n - 1
REM
REM in /home/bkarasulu/work/CARBON/AIRSS/Generating-Clusters/EDIP-Nigel-Params/with-SteepDescent/Higher-Symm/SD-CG/HFTN-CG
REM
REM
REM
REM
REM
REM ./C.cell (12c818d87b63d06a65506943cc24bca4)
REM
REM compiler GCC version 9.2.1 20190827 (Red Hat 9.2.1-1)
REM options -cpp -mtune=generic -march=x86-64 -g -O0 -fpre-include=/usr/include/finclude/math-vector-fortran.h
REM seed 2131410508 -1762205002 -250660980 911030259 -1557097827 1028146676 -992524391 347730686 719451615 1559031080 1862247730 1377554677 -1664254192 -1351061707 -599178046 -1366171556 -456296899 -287420954 1105147219 -1007427408 2004489114 1019896932 1003921444 1313129693 488977631 -942868431 1754251360 -1487297773 1591847971 1396675446 -1646092871 -2112982233 1562696077
REM
CELL 1.54180   50.00000   50.00000   50.00000   90.00000   90.00000   90.00000
LATT -1
SFAC C  
C      1  0.5220890000000  0.4100980000000  0.5337230000000 1.0
C      1  0.5203100000000  0.4218290000000  0.4357530000000 1.0
C      1  0.5211410000000  0.5491810000000  0.4245000000000 1.0
C      1  0.5299710000000  0.5900780000000  0.5230880000000 1.0
C      1  0.5164640000000  0.5223460000000  0.6013670000000 1.0
C      1  0.4720880000000  0.4240500000000  0.5253810000000 1.0
C      1  0.4653410000000  0.4428230000000  0.4311670000000 1.0
C      1  0.4638580000000  0.5469230000000  0.4267390000000 1.0
C      1  0.4768160000000  0.6034320000000  0.5068660000000 1.0
C      1  0.4679920000000  0.5009360000000  0.5854100000000 1.0
C      1  0.4816360000000  0.5682830000000  0.4308640000000 1.0
C      1  0.4833570000000  0.5983860000000  0.5333430000000 1.0
C      1  0.4875180000000  0.4824740000000  0.5924950000000 1.0
C      1  0.4806420000000  0.4017640000000  0.5098940000000 1.0
C      1  0.4865770000000  0.4533640000000  0.4164200000000 1.0
C      1  0.5049350000000  0.5686180000000  0.4150020000000 1.0
C      1  0.5101970000000  0.5929130000000  0.5429040000000 1.0
C      1  0.5130840000000  0.4948950000000  0.5978950000000 1.0
C      1  0.5099330000000  0.3951580000000  0.5134650000000 1.0
C      1  0.5132460000000  0.4429980000000  0.4196060000000 1.0
C      1  0.4828800000000  0.5325470000000  0.4813270000000 1.0
C      1  0.4862220000000  0.5400500000000  0.5299680000000 1.0
C      1  0.5003860000000  0.4856870000000  0.5355450000000 1.0
C      1  0.4977930000000  0.4561440000000  0.4986830000000 1.0
C      1  0.4987810000000  0.4823540000000  0.4843890000000 1.0
C      1  0.5167620000000  0.5353310000000  0.4727880000000 1.0
C      1  0.5163100000000  0.5429180000000  0.5280880000000 1.0
C      1  0.5258810000000  0.4816290000000  0.5467730000000 1.0
C      1  0.5269510000000  0.4492110000000  0.5048680000000 1.0
C      1  0.5211580000000  0.4831670000000  0.4627600000000 1.0
C      1  0.4792160000000  0.5202850000000  0.5095040000000 1.0
C      1  0.4554190000000  0.5023930000000  0.5151110000000 1.0
C      1  0.4553880000000  0.4769840000000  0.4987370000000 1.0
C      1  0.4708770000000  0.4833050000000  0.4721560000000 1.0
C      1  0.4687020000000  0.5132720000000  0.4634320000000 1.0
C      1  0.5267300000000  0.5163740000000  0.5148600000000 1.0
C      1  0.5435520000000  0.4945710000000  0.5282640000000 1.0
C      1  0.5461330000000  0.4743330000000  0.5050650000000 1.0
C      1  0.5441640000000  0.4909810000000  0.4793370000000 1.0
C      1  0.5371250000000  0.5190750000000  0.4883200000000 1.0
C      1  0.4267180000000  0.4852620000000  0.5443360000000 1.0
C      1  0.4207510000000  0.4531840000000  0.4985860000000 1.0
C      1  0.4223450000000  0.4908110000000  0.4574590000000 1.0
C      1  0.4212980000000  0.5409520000000  0.4789590000000 1.0
C      1  0.4200540000000  0.5370920000000  0.5331630000000 1.0
C      1  0.5785100000000  0.4720910000000  0.5424010000000 1.0
C      1  0.5794670000000  0.4524090000000  0.4870930000000 1.0
C      1  0.5761970000000  0.4979040000000  0.4507320000000 1.0
C      1  0.5742690000000  0.5423800000000  0.4823960000000 1.0
C      1  0.5703430000000  0.5284430000000  0.5364440000000 1.0
C      1  0.4412040000000  0.4849400000000  0.4371290000000 1.0
C      1  0.4423220000000  0.5573270000000  0.4710720000000 1.0
C      1  0.4416840000000  0.5511200000000  0.5447170000000 1.0
C      1  0.4554710000000  0.4927530000000  0.5438650000000 1.0
C      1  0.4436530000000  0.4366960000000  0.4936400000000 1.0
C      1  0.5552680000000  0.4980270000000  0.4319410000000 1.0
C      1  0.5557560000000  0.5623120000000  0.4747730000000 1.0
C      1  0.5560510000000  0.5466210000000  0.5527860000000 1.0
C      1  0.5624230000000  0.4563520000000  0.5602930000000 1.0
C      1  0.5641380000000  0.4287120000000  0.4832960000000 1.0
C      1  0.5269710000000  0.5010110000000  0.4374370000000 1.0
C      1  0.5273290000000  0.5631810000000  0.4805780000000 1.0
C      1  0.5271150000000  0.5472310000000  0.5564400000000 1.0
C      1  0.5336540000000  0.4543400000000  0.5545270000000 1.0
C      1  0.5349940000000  0.4298730000000  0.4820780000000 1.0
C      1  0.4613010000000  0.4972420000000  0.4209760000000 1.0
C      1  0.4696590000000  0.5611710000000  0.4790540000000 1.0
C      1  0.4688270000000  0.5461080000000  0.5539960000000 1.0
C      1  0.4778000000000  0.4707100000000  0.5457870000000 1.0
C      1  0.4699330000000  0.4365670000000  0.4800400000000 1.0
C      1  0.5239100000000  0.5661040000000  0.5103490000000 1.0
C      1  0.5196800000000  0.5242540000000  0.5739010000000 1.0
C      1  0.5298390000000  0.4363470000000  0.5312270000000 1.0
C      1  0.5277280000000  0.4401950000000  0.4552070000000 1.0
C      1  0.5223890000000  0.5295970000000  0.4441660000000 1.0
C      1  0.4697530000000  0.5766870000000  0.5045090000000 1.0
C      1  0.4665460000000  0.5241640000000  0.5720700000000 1.0
C      1  0.4747300000000  0.4527380000000  0.5207080000000 1.0
C      1  0.4678970000000  0.4549460000000  0.4565680000000 1.0
C      1  0.4699350000000  0.5208100000000  0.4354930000000 1.0
C      1  0.4827130000000  0.5673580000000  0.5684480000000 1.0
C      1  0.4884990000000  0.4596870000000  0.5738380000000 1.0
C      1  0.4841390000000  0.4090880000000  0.4803540000000 1.0
C      1  0.4856800000000  0.4819300000000  0.4128270000000 1.0
C      1  0.4859160000000  0.5758560000000  0.4586380000000 1.0
C      1  0.5104730000000  0.5724980000000  0.5641760000000 1.0
C      1  0.5143000000000  0.4471610000000  0.5750540000000 1.0
C      1  0.5171800000000  0.4043280000000  0.4851630000000 1.0
C      1  0.5108190000000  0.4942280000000  0.4144090000000 1.0
C      1  0.5121440000000  0.5830440000000  0.4658980000000 1.0
C      1  0.5771650000000  0.5016240000000  0.5461290000000 1.0
C      1  0.5817190000000  0.4621670000000  0.5146780000000 1.0
C      1  0.5768920000000  0.4738670000000  0.4671560000000 1.0
C      1  0.5806670000000  0.5223330000000  0.4638400000000 1.0
C      1  0.5731180000000  0.5341560000000  0.5091650000000 1.0
C      1  0.4146520000000  0.5108260000000  0.5420160000000 1.0
C      1  0.4217230000000  0.4663710000000  0.5237530000000 1.0
C      1  0.4187200000000  0.4721670000000  0.4778890000000 1.0
C      1  0.4176060000000  0.5173430000000  0.4646640000000 1.0
C      1  0.4153830000000  0.5413070000000  0.5060750000000 1.0
C      1  0.5013420000000  0.5009020000000  0.5101810000000 1.0
END
