TITL C-3578199-7832-78 -3.13963397936963e-06 125000 -691.079633809368 0 0 110 (C1) n - 1
REM
REM in /home/bkarasulu/work/CARBON/AIRSS/Generating-Clusters/EDIP-Nigel-Params/with-SteepDescent/Higher-Symm/SD-CG/HFTN-CG
REM
REM
REM
REM
REM
REM ./C.cell (12c818d87b63d06a65506943cc24bca4)
REM
REM compiler GCC version 9.2.1 20190827 (Red Hat 9.2.1-1)
REM options -cpp -mtune=generic -march=x86-64 -g -O0 -fpre-include=/usr/include/finclude/math-vector-fortran.h
REM seed 106408162 -1009360746 -464823168 -873185232 1345393911 -1289049328 1977082336 -949733036 -1796565098 -691452550 1806179513 1547807925 -2076508664 3504188 2073793064 1735814208 100525074 1363682894 1899211353 741504381 436800350 197667773 133234937 1478759285 -58989692 303101228 90890917 1471113082 -1346247668 -1382171475 1439853406 516000750 -1332664948
REM
CELL 1.54180   50.00000   50.00000   50.00000   90.00000   90.00000   90.00000
LATT -1
SFAC C  
C      1  0.4795140000000  0.5853030000000  0.4622930000000 1.0
C      1  0.4779400000000  0.5500620000000  0.4243980000000 1.0
C      1  0.4819360000000  0.5017290000000  0.4098060000000 1.0
C      1  0.4827050000000  0.4511260000000  0.4203870000000 1.0
C      1  0.4799280000000  0.4196290000000  0.4601730000000 1.0
C      1  0.4799180000000  0.4162040000000  0.5101730000000 1.0
C      1  0.4843770000000  0.4284520000000  0.5581630000000 1.0
C      1  0.4838990000000  0.4706230000000  0.5863310000000 1.0
C      1  0.4788340000000  0.5210850000000  0.5817790000000 1.0
C      1  0.4813470000000  0.5658490000000  0.5579590000000 1.0
C      1  0.4833140000000  0.5883220000000  0.5119850000000 1.0
C      1  0.4226090000000  0.5227050000000  0.5385130000000 1.0
C      1  0.4095780000000  0.5309100000000  0.5151520000000 1.0
C      1  0.4171770000000  0.5455290000000  0.4925040000000 1.0
C      1  0.4109830000000  0.5345120000000  0.4680510000000 1.0
C      1  0.4204630000000  0.5134720000000  0.4530960000000 1.0
C      1  0.4105620000000  0.4881650000000  0.4600680000000 1.0
C      1  0.4176310000000  0.4611120000000  0.4639370000000 1.0
C      1  0.4165280000000  0.4500590000000  0.4912060000000 1.0
C      1  0.4256820000000  0.4578660000000  0.5173790000000 1.0
C      1  0.4094570000000  0.4767480000000  0.5304290000000 1.0
C      1  0.4229750000000  0.4951690000000  0.5464940000000 1.0
C      1  0.4424300000000  0.4841180000000  0.5654170000000 1.0
C      1  0.4449240000000  0.5394480000000  0.5445300000000 1.0
C      1  0.4473190000000  0.5609730000000  0.5255080000000 1.0
C      1  0.4447520000000  0.5575600000000  0.4947430000000 1.0
C      1  0.4636600000000  0.5420080000000  0.4702630000000 1.0
C      1  0.4502850000000  0.5142700000000  0.4489530000000 1.0
C      1  0.4561500000000  0.4835710000000  0.4450710000000 1.0
C      1  0.4466440000000  0.4571460000000  0.4560410000000 1.0
C      1  0.4548170000000  0.4527630000000  0.4856780000000 1.0
C      1  0.4422830000000  0.4421700000000  0.5366730000000 1.0
C      1  0.4441540000000  0.4546020000000  0.5638520000000 1.0
C      1  0.5228250000000  0.5287370000000  0.4076040000000 1.0
C      1  0.5281700000000  0.4766860000000  0.4148530000000 1.0
C      1  0.5252740000000  0.4291460000000  0.4389670000000 1.0
C      1  0.5224130000000  0.4068650000000  0.4843350000000 1.0
C      1  0.5251370000000  0.4142740000000  0.5338770000000 1.0
C      1  0.5288380000000  0.4460700000000  0.5756090000000 1.0
C      1  0.5258410000000  0.4986270000000  0.5925560000000 1.0
C      1  0.5213480000000  0.5502140000000  0.5830710000000 1.0
C      1  0.5251270000000  0.5842170000000  0.5409470000000 1.0
C      1  0.5254910000000  0.5848960000000  0.4878700000000 1.0
C      1  0.5199500000000  0.5715010000000  0.4385330000000 1.0
C      1  0.5693190000000  0.5599950000000  0.5443120000000 1.0
C      1  0.5674170000000  0.5559290000000  0.4753730000000 1.0
C      1  0.5669040000000  0.5568240000000  0.4456560000000 1.0
C      1  0.5597670000000  0.5299010000000  0.4362490000000 1.0
C      1  0.5700230000000  0.4729820000000  0.4473890000000 1.0
C      1  0.5708530000000  0.4448460000000  0.4582430000000 1.0
C      1  0.5593330000000  0.4403790000000  0.4877360000000 1.0
C      1  0.5693800000000  0.4364520000000  0.5178710000000 1.0
C      1  0.5648990000000  0.4580720000000  0.5377910000000 1.0
C      1  0.5658250000000  0.5154740000000  0.5634260000000 1.0
C      1  0.5696930000000  0.5444360000000  0.5690250000000 1.0
C      1  0.4863060000000  0.4749990000000  0.5375120000000 1.0
C      1  0.4991210000000  0.4950620000000  0.5522870000000 1.0
C      1  0.4908850000000  0.5181720000000  0.5392830000000 1.0
C      1  0.5024150000000  0.5411460000000  0.5281740000000 1.0
C      1  0.5073040000000  0.5345980000000  0.4988830000000 1.0
C      1  0.4967350000000  0.5444590000000  0.4738850000000 1.0
C      1  0.5105320000000  0.5273760000000  0.4531090000000 1.0
C      1  0.4945470000000  0.5038460000000  0.4524180000000 1.0
C      1  0.4952090000000  0.4789190000000  0.4656020000000 1.0
C      1  0.4780860000000  0.4734780000000  0.4896040000000 1.0
C      1  0.4948420000000  0.4676720000000  0.5123270000000 1.0
C      1  0.4645220000000  0.5634000000000  0.4480470000000 1.0
C      1  0.4639220000000  0.5240530000000  0.4213140000000 1.0
C      1  0.4683990000000  0.4773310000000  0.4192080000000 1.0
C      1  0.4653710000000  0.4361620000000  0.4401150000000 1.0
C      1  0.4658620000000  0.4239510000000  0.4857270000000 1.0
C      1  0.4674200000000  0.4261390000000  0.5344580000000 1.0
C      1  0.4698760000000  0.4462570000000  0.5768640000000 1.0
C      1  0.4659980000000  0.4939810000000  0.5816430000000 1.0
C      1  0.4648800000000  0.5428450000000  0.5665620000000 1.0
C      1  0.4689480000000  0.5774720000000  0.5342230000000 1.0
C      1  0.4666960000000  0.5875570000000  0.4879950000000 1.0
C      1  0.5217300000000  0.4652370000000  0.4618660000000 1.0
C      1  0.5344270000000  0.4571920000000  0.4874740000000 1.0
C      1  0.5231100000000  0.4687230000000  0.5105810000000 1.0
C      1  0.5351300000000  0.4658190000000  0.5376400000000 1.0
C      1  0.5296290000000  0.4921370000000  0.5523680000000 1.0
C      1  0.5468300000000  0.5144500000000  0.5410750000000 1.0
C      1  0.5375160000000  0.5423070000000  0.5345800000000 1.0
C      1  0.5348200000000  0.5445560000000  0.5028100000000 1.0
C      1  0.5535650000000  0.5303790000000  0.4836000000000 1.0
C      1  0.5416850000000  0.5185080000000  0.4578780000000 1.0
C      1  0.5430780000000  0.4864300000000  0.4551880000000 1.0
C      1  0.5499470000000  0.4125470000000  0.4858400000000 1.0
C      1  0.5527880000000  0.4160840000000  0.5287420000000 1.0
C      1  0.5568910000000  0.4492930000000  0.5656910000000 1.0
C      1  0.5535790000000  0.5014610000000  0.5851710000000 1.0
C      1  0.5489520000000  0.5516790000000  0.5865740000000 1.0
C      1  0.5528220000000  0.5820730000000  0.5422000000000 1.0
C      1  0.5530660000000  0.5784420000000  0.4862090000000 1.0
C      1  0.5474850000000  0.5752480000000  0.4368690000000 1.0
C      1  0.5505890000000  0.5296750000000  0.4097300000000 1.0
C      1  0.5570500000000  0.4763890000000  0.4203380000000 1.0
C      1  0.5532560000000  0.4299170000000  0.4418810000000 1.0
C      1  0.5134160000000  0.4313970000000  0.5547560000000 1.0
C      1  0.5136200000000  0.4709730000000  0.5869190000000 1.0
C      1  0.5081390000000  0.5241240000000  0.5892450000000 1.0
C      1  0.5105830000000  0.5662300000000  0.5602410000000 1.0
C      1  0.5124540000000  0.5878920000000  0.5140130000000 1.0
C      1  0.5069730000000  0.5735050000000  0.4659250000000 1.0
C      1  0.5080140000000  0.5455890000000  0.4283300000000 1.0
C      1  0.5118610000000  0.5019010000000  0.4115540000000 1.0
C      1  0.5126780000000  0.4529140000000  0.4258690000000 1.0
C      1  0.5092740000000  0.4189310000000  0.4613000000000 1.0
C      1  0.5085670000000  0.4093440000000  0.5100040000000 1.0
END
