TITL C-3578200-9634-638 -7.36871493300698e-06 125000 -749.317485484169 0 0 124 (T23) n - 1
REM
REM in /home/bkarasulu/work/CARBON/AIRSS/Generating-Clusters/EDIP-Nigel-Params/with-SteepDescent/Higher-Symm/SD-CG/HFTN-CG
REM
REM
REM
REM
REM
REM ./C.cell (12c818d87b63d06a65506943cc24bca4)
REM
REM compiler GCC version 9.2.1 20190827 (Red Hat 9.2.1-1)
REM options -cpp -mtune=generic -march=x86-64 -g -O0 -fpre-include=/usr/include/finclude/math-vector-fortran.h
REM seed -2065615420 1833711488 2074659791 -359368412 1626126637 -551884041 -1433403135 1435499738 1130754355 347811834 838528684 -1285814198 -2065133180 1534204374 -2013583100 267735161 -1375649310 -79196866 -2098022492 -8688752 320907629 -335307812 2095307570 -765909413 -692217469 -1942637363 -2110665896 1901797464 -82464784 -986843188 -1237835357 1574905643 1668831765
REM
CELL 1.54180   50.00000   50.00000   50.00000   90.00000   90.00000   90.00000
LATT -1
SFAC C  
C      1  0.5450560000000  0.4587630000000  0.4187400000000 1.0
C      1  0.4586680000000  0.4189240000000  0.5449480000000 1.0
C      1  0.4188400000000  0.5451440000000  0.4585710000000 1.0
C      1  0.4545870000000  0.5410410000000  0.4187310000000 1.0
C      1  0.5450450000000  0.5410350000000  0.5807000000000 1.0
C      1  0.4545660000000  0.4587680000000  0.5806910000000 1.0
C      1  0.5409500000000  0.5808790000000  0.5449570000000 1.0
C      1  0.4586860000000  0.5808840000000  0.4544740000000 1.0
C      1  0.5409500000000  0.4189200000000  0.4544820000000 1.0
C      1  0.5807950000000  0.4546600000000  0.4585870000000 1.0
C      1  0.4188270000000  0.4546690000000  0.5408440000000 1.0
C      1  0.5807920000000  0.5451340000000  0.5408590000000 1.0
C      1  0.4674490000000  0.5914040000000  0.5039940000000 1.0
C      1  0.5913180000000  0.5041780000000  0.4673550000000 1.0
C      1  0.5040840000000  0.4675320000000  0.5912160000000 1.0
C      1  0.5321770000000  0.4083990000000  0.5040000000000 1.0
C      1  0.4674400000000  0.4084030000000  0.4954300000000 1.0
C      1  0.5321880000000  0.5914010000000  0.4954370000000 1.0
C      1  0.4083160000000  0.4956260000000  0.4673370000000 1.0
C      1  0.5913110000000  0.4956150000000  0.5320930000000 1.0
C      1  0.4083100000000  0.5041880000000  0.5320750000000 1.0
C      1  0.4955250000000  0.5322710000000  0.5912160000000 1.0
C      1  0.5041060000000  0.5322710000000  0.4082150000000 1.0
C      1  0.4955390000000  0.4675330000000  0.4082140000000 1.0
C      1  0.5267630000000  0.4881280000000  0.5819790000000 1.0
C      1  0.4880440000000  0.5821630000000  0.5266720000000 1.0
C      1  0.5820770000000  0.5268550000000  0.4879510000000 1.0
C      1  0.4728480000000  0.5116750000000  0.5819730000000 1.0
C      1  0.5267800000000  0.5116720000000  0.4174570000000 1.0
C      1  0.4728630000000  0.4881320000000  0.4174520000000 1.0
C      1  0.5115780000000  0.4176400000000  0.5266740000000 1.0
C      1  0.4880400000000  0.4176420000000  0.4727560000000 1.0
C      1  0.5115930000000  0.5821620000000  0.4727580000000 1.0
C      1  0.4175520000000  0.4729480000000  0.4879350000000 1.0
C      1  0.5820720000000  0.4729390000000  0.5114950000000 1.0
C      1  0.4175530000000  0.5268650000000  0.5114790000000 1.0
C      1  0.5050750000000  0.4421970000000  0.5124010000000 1.0
C      1  0.4421100000000  0.5125910000000  0.5049750000000 1.0
C      1  0.5125050000000  0.5051670000000  0.4420130000000 1.0
C      1  0.4945500000000  0.5576060000000  0.5124010000000 1.0
C      1  0.5050840000000  0.5576050000000  0.4870300000000 1.0
C      1  0.4945460000000  0.4421980000000  0.4870290000000 1.0
C      1  0.5575160000000  0.4872120000000  0.5049860000000 1.0
C      1  0.4421100000000  0.4872190000000  0.4944440000000 1.0
C      1  0.5575190000000  0.5125840000000  0.4944550000000 1.0
C      1  0.4871330000000  0.4946370000000  0.4420100000000 1.0
C      1  0.5124930000000  0.4946350000000  0.5574200000000 1.0
C      1  0.4871220000000  0.5051680000000  0.5574180000000 1.0
C      1  0.5671820000000  0.5709780000000  0.5312290000000 1.0
C      1  0.5708890000000  0.5314050000000  0.5670890000000 1.0
C      1  0.5313180000000  0.5672670000000  0.5707990000000 1.0
C      1  0.4324390000000  0.4288250000000  0.5312160000000 1.0
C      1  0.5671800000000  0.4288180000000  0.4682140000000 1.0
C      1  0.4324530000000  0.5709860000000  0.4682020000000 1.0
C      1  0.4287250000000  0.4683980000000  0.5670760000000 1.0
C      1  0.5708980000000  0.4683900000000  0.4323550000000 1.0
C      1  0.4287420000000  0.5314130000000  0.4323410000000 1.0
C      1  0.4682960000000  0.4325360000000  0.5707920000000 1.0
C      1  0.5313240000000  0.4325330000000  0.4286380000000 1.0
C      1  0.4683170000000  0.5672710000000  0.4286320000000 1.0
C      1  0.5373840000000  0.5482790000000  0.5158650000000 1.0
C      1  0.5481910000000  0.5160450000000  0.5372890000000 1.0
C      1  0.5159570000000  0.5374700000000  0.5480970000000 1.0
C      1  0.4622400000000  0.4515240000000  0.5158570000000 1.0
C      1  0.5373810000000  0.4515200000000  0.4835730000000 1.0
C      1  0.4622490000000  0.5482840000000  0.4835660000000 1.0
C      1  0.4514290000000  0.4837580000000  0.5372800000000 1.0
C      1  0.5481960000000  0.4837530000000  0.4621510000000 1.0
C      1  0.4514380000000  0.5160510000000  0.4621410000000 1.0
C      1  0.4836610000000  0.4623330000000  0.5480930000000 1.0
C      1  0.5159620000000  0.4623320000000  0.4513370000000 1.0
C      1  0.4836740000000  0.5374720000000  0.4513340000000 1.0
C      1  0.4990960000000  0.4450420000000  0.4297510000000 1.0
C      1  0.4449500000000  0.4299410000000  0.4989890000000 1.0
C      1  0.4298550000000  0.4991850000000  0.4448490000000 1.0
C      1  0.5005440000000  0.5547610000000  0.4297520000000 1.0
C      1  0.4990890000000  0.5547610000000  0.5696790000000 1.0
C      1  0.5005250000000  0.4450420000000  0.5696790000000 1.0
C      1  0.5546770000000  0.5698620000000  0.4990000000000 1.0
C      1  0.4449580000000  0.5698690000000  0.5004310000000 1.0
C      1  0.5546690000000  0.4299350000000  0.5004410000000 1.0
C      1  0.5697830000000  0.5006190000000  0.4448620000000 1.0
C      1  0.4298450000000  0.5006270000000  0.5545680000000 1.0
C      1  0.5697720000000  0.4991770000000  0.5545820000000 1.0
C      1  0.4335460000000  0.4478140000000  0.4757980000000 1.0
C      1  0.4477270000000  0.4759940000000  0.4334430000000 1.0
C      1  0.4759040000000  0.4336360000000  0.4476210000000 1.0
C      1  0.5660860000000  0.5519890000000  0.4758110000000 1.0
C      1  0.4335470000000  0.5519970000000  0.5236200000000 1.0
C      1  0.5660750000000  0.4478060000000  0.5236320000000 1.0
C      1  0.5519130000000  0.5238090000000  0.4334530000000 1.0
C      1  0.4477170000000  0.5238150000000  0.5659770000000 1.0
C      1  0.5518970000000  0.4759880000000  0.5659870000000 1.0
C      1  0.5237330000000  0.5661670000000  0.4476260000000 1.0
C      1  0.4759020000000  0.5661700000000  0.5518040000000 1.0
C      1  0.5237150000000  0.4336330000000  0.5518090000000 1.0
C      1  0.4791820000000  0.4083330000000  0.5243270000000 1.0
C      1  0.4082480000000  0.5245210000000  0.4790820000000 1.0
C      1  0.5244360000000  0.4792760000000  0.4081480000000 1.0
C      1  0.5204410000000  0.5914700000000  0.5243320000000 1.0
C      1  0.4791970000000  0.5914720000000  0.4750990000000 1.0
C      1  0.5204350000000  0.4083310000000  0.4751030000000 1.0
C      1  0.5913840000000  0.4752820000000  0.4791000000000 1.0
C      1  0.4082410000000  0.4752930000000  0.5203300000000 1.0
C      1  0.5913820000000  0.5245110000000  0.5203480000000 1.0
C      1  0.4752090000000  0.5205270000000  0.4081430000000 1.0
C      1  0.5244200000000  0.5205240000000  0.5912870000000 1.0
C      1  0.4751890000000  0.4792790000000  0.5912820000000 1.0
C      1  0.4750800000000  0.4981500000000  0.4675550000000 1.0
C      1  0.4980610000000  0.4677440000000  0.4749780000000 1.0
C      1  0.4676550000000  0.4751670000000  0.4979590000000 1.0
C      1  0.5245540000000  0.5016540000000  0.4675600000000 1.0
C      1  0.4750740000000  0.5016570000000  0.5318700000000 1.0
C      1  0.5245470000000  0.4981470000000  0.5318750000000 1.0
C      1  0.5015710000000  0.5320590000000  0.4749790000000 1.0
C      1  0.4980600000000  0.5320590000000  0.5244520000000 1.0
C      1  0.5015630000000  0.4677440000000  0.5244520000000 1.0
C      1  0.5319730000000  0.5246370000000  0.4979650000000 1.0
C      1  0.4676570000000  0.5246400000000  0.5014660000000 1.0
C      1  0.5319700000000  0.4751630000000  0.5014720000000 1.0
C      1  0.4527470000000  0.5469690000000  0.5467760000000 1.0
C      1  0.5468860000000  0.5469640000000  0.4526550000000 1.0
C      1  0.5468710000000  0.4528340000000  0.5467840000000 1.0
C      1  0.4527510000000  0.4528400000000  0.4526460000000 1.0
END
