TITL C-3577086-586-241 -5.46082642772875e-06 125000 -592.069529562159 0 0 96 (C1) n - 1
REM
REM in /home/bkarasulu/work/CARBON/AIRSS/Generating-Clusters/EDIP-Nigel-Params/with-SteepDescent/Higher-Symm/SD-CG/HFTN-CG
REM
REM
REM
REM
REM
REM ./C.cell (12c818d87b63d06a65506943cc24bca4)
REM
REM compiler GCC version 9.2.1 20190827 (Red Hat 9.2.1-1)
REM options -cpp -mtune=generic -march=x86-64 -g -O0 -fpre-include=/usr/include/finclude/math-vector-fortran.h
REM seed 336339020 -1014520119 -1922799551 -478454089 -642837818 -354635843 2078451479 -560528003 -801648833 -356721770 2093418963 586844795 151950022 -1957323819 -1006576823 175270182 -600230499 -2116012648 -1926213006 1618204348 1274047008 -595176199 25090586 -402771681 -1357718731 810931779 1309515936 810107079 297747759 -389681070 883035498 1506499618 -704445725
REM
CELL 1.54180   50.00000   50.00000   50.00000   90.00000   90.00000   90.00000
LATT -1
SFAC C  
C      1  0.4572770000000  0.4356470000000  0.5228280000000 1.0
C      1  0.4601360000000  0.5629890000000  0.4779270000000 1.0
C      1  0.4590190000000  0.5674550000000  0.5260190000000 1.0
C      1  0.4507160000000  0.4325670000000  0.4726460000000 1.0
C      1  0.5147600000000  0.5255270000000  0.5601800000000 1.0
C      1  0.5062000000000  0.4799870000000  0.4291180000000 1.0
C      1  0.5169670000000  0.4792150000000  0.5659490000000 1.0
C      1  0.5089520000000  0.5232070000000  0.4347410000000 1.0
C      1  0.5568310000000  0.5167490000000  0.5785220000000 1.0
C      1  0.5549670000000  0.4813080000000  0.4273370000000 1.0
C      1  0.5580620000000  0.4862890000000  0.5816430000000 1.0
C      1  0.5549140000000  0.5110440000000  0.4297560000000 1.0
C      1  0.4867190000000  0.5761000000000  0.5670260000000 1.0
C      1  0.4840130000000  0.4297090000000  0.4365880000000 1.0
C      1  0.4862130000000  0.4280990000000  0.5678300000000 1.0
C      1  0.4893030000000  0.5695880000000  0.4384920000000 1.0
C      1  0.5313430000000  0.5313580000000  0.5843650000000 1.0
C      1  0.5307300000000  0.4683440000000  0.4152760000000 1.0
C      1  0.5328190000000  0.4720880000000  0.5906450000000 1.0
C      1  0.5326420000000  0.5256720000000  0.4158760000000 1.0
C      1  0.4401050000000  0.5163020000000  0.5503840000000 1.0
C      1  0.4354490000000  0.4854870000000  0.4508010000000 1.0
C      1  0.4443340000000  0.4885810000000  0.5445950000000 1.0
C      1  0.4386500000000  0.5143130000000  0.4527310000000 1.0
C      1  0.4602910000000  0.5296310000000  0.4399250000000 1.0
C      1  0.4629450000000  0.4725220000000  0.5608480000000 1.0
C      1  0.4540820000000  0.4688590000000  0.4339530000000 1.0
C      1  0.4634640000000  0.5318030000000  0.5607340000000 1.0
C      1  0.5177090000000  0.4543220000000  0.5479270000000 1.0
C      1  0.5219300000000  0.5490970000000  0.4656500000000 1.0
C      1  0.5150980000000  0.5508720000000  0.5418790000000 1.0
C      1  0.5221110000000  0.4557290000000  0.4610710000000 1.0
C      1  0.5736790000000  0.4668080000000  0.4431100000000 1.0
C      1  0.5664720000000  0.5250670000000  0.5535480000000 1.0
C      1  0.5673530000000  0.5226290000000  0.4542740000000 1.0
C      1  0.5697500000000  0.4745220000000  0.5586830000000 1.0
C      1  0.4841340000000  0.4668100000000  0.4588050000000 1.0
C      1  0.4776570000000  0.5173430000000  0.5275960000000 1.0
C      1  0.4952130000000  0.5365150000000  0.4803730000000 1.0
C      1  0.4934500000000  0.4640180000000  0.5309010000000 1.0
C      1  0.5410040000000  0.5567410000000  0.5271040000000 1.0
C      1  0.5464160000000  0.4452960000000  0.4762200000000 1.0
C      1  0.5425700000000  0.4499890000000  0.5301700000000 1.0
C      1  0.5553010000000  0.5619700000000  0.4804940000000 1.0
C      1  0.5617350000000  0.4718420000000  0.5319840000000 1.0
C      1  0.5607200000000  0.5341240000000  0.4800920000000 1.0
C      1  0.5635280000000  0.5381280000000  0.5292430000000 1.0
C      1  0.5630000000000  0.4691940000000  0.4691800000000 1.0
C      1  0.4674670000000  0.4434790000000  0.5517940000000 1.0
C      1  0.4685970000000  0.5557790000000  0.4509460000000 1.0
C      1  0.4670680000000  0.5611840000000  0.5537830000000 1.0
C      1  0.4576240000000  0.4378050000000  0.4423660000000 1.0
C      1  0.5309180000000  0.5540450000000  0.4200020000000 1.0
C      1  0.5288100000000  0.4433790000000  0.5908860000000 1.0
C      1  0.5274690000000  0.4402720000000  0.4167850000000 1.0
C      1  0.5294300000000  0.5600030000000  0.5856720000000 1.0
C      1  0.4383030000000  0.5480180000000  0.4886720000000 1.0
C      1  0.4351630000000  0.4514100000000  0.5129460000000 1.0
C      1  0.4287770000000  0.4486290000000  0.4846010000000 1.0
C      1  0.4369990000000  0.5510360000000  0.5167060000000 1.0
C      1  0.5136300000000  0.5707120000000  0.5644030000000 1.0
C      1  0.5109780000000  0.4370740000000  0.4394580000000 1.0
C      1  0.5137120000000  0.4333660000000  0.5685680000000 1.0
C      1  0.5166030000000  0.5658750000000  0.4415960000000 1.0
C      1  0.4278340000000  0.4773330000000  0.5232760000000 1.0
C      1  0.4278600000000  0.5234380000000  0.4781230000000 1.0
C      1  0.4251060000000  0.5304070000000  0.5315760000000 1.0
C      1  0.4208870000000  0.4750130000000  0.4746120000000 1.0
C      1  0.4873330000000  0.5169620000000  0.5706240000000 1.0
C      1  0.4772140000000  0.4857170000000  0.4195300000000 1.0
C      1  0.4867960000000  0.4871400000000  0.5731710000000 1.0
C      1  0.4804420000000  0.5160020000000  0.4228050000000 1.0
C      1  0.5364680000000  0.4379250000000  0.5038050000000 1.0
C      1  0.5379400000000  0.5701500000000  0.5012500000000 1.0
C      1  0.4944990000000  0.4519320000000  0.5044390000000 1.0
C      1  0.4936640000000  0.5416820000000  0.5173900000000 1.0
C      1  0.5119960000000  0.4707720000000  0.4878790000000 1.0
C      1  0.5210740000000  0.5295900000000  0.4993160000000 1.0
C      1  0.5454450000000  0.4946880000000  0.4694170000000 1.0
C      1  0.5481860000000  0.4974360000000  0.5245470000000 1.0
C      1  0.4914120000000  0.4114230000000  0.4967050000000 1.0
C      1  0.4938760000000  0.5939900000000  0.4996900000000 1.0
C      1  0.5143310000000  0.4988620000000  0.4537060000000 1.0
C      1  0.5228150000000  0.5008890000000  0.5444050000000 1.0
C      1  0.4648260000000  0.4202660000000  0.4980360000000 1.0
C      1  0.4725680000000  0.5764780000000  0.5010960000000 1.0
C      1  0.4983510000000  0.4945070000000  0.5273430000000 1.0
C      1  0.4922200000000  0.5073240000000  0.4742110000000 1.0
C      1  0.5203520000000  0.5913790000000  0.4984520000000 1.0
C      1  0.5168610000000  0.4174310000000  0.5043600000000 1.0
C      1  0.4515110000000  0.5103910000000  0.5070990000000 1.0
C      1  0.4701260000000  0.4631660000000  0.4883830000000 1.0
C      1  0.5690820000000  0.5228420000000  0.5054600000000 1.0
C      1  0.5309900000000  0.4989750000000  0.4976970000000 1.0
C      1  0.4176980000000  0.4927700000000  0.4992370000000 1.0
C      1  0.4725250000000  0.4936240000000  0.4915090000000 1.0
END
