TITL C-3578203-1966-548 -3.45178728445834e-06 125000 -1127.11300383047 0 0 181 (C1) n - 1
REM
REM in /home/bkarasulu/work/CARBON/AIRSS/Generating-Clusters/EDIP-Nigel-Params/with-SteepDescent/Higher-Symm/SD-CG/HFTN-CG
REM
REM
REM
REM
REM
REM ./C.cell (12c818d87b63d06a65506943cc24bca4)
REM
REM compiler GCC version 9.2.1 20190827 (Red Hat 9.2.1-1)
REM options -cpp -mtune=generic -march=x86-64 -g -O0 -fpre-include=/usr/include/finclude/math-vector-fortran.h
REM seed -21341760 -1465242773 1783758393 1366502204 -1285599519 786942453 -1834180093 -1070966773 1913741 -783962433 -850637740 -166147737 1067771155 1361321433 1730654843 -1163025137 -890664566 1866262121 816101668 674443220 -647369768 -200272947 -1477897991 -19878159 1545522575 -1949774021 2044951555 54220503 -1210734955 1019443797 -645073326 1478803090 -1827026315
REM
CELL 1.54180   50.00000   50.00000   50.00000   90.00000   90.00000   90.00000
LATT -1
SFAC C  
C      1  0.5715220000000  0.4552260000000  0.5626240000000 1.0
C      1  0.5257550000000  0.5631170000000  0.4049990000000 1.0
C      1  0.4832540000000  0.4983780000000  0.4426640000000 1.0
C      1  0.5966790000000  0.4577110000000  0.5065480000000 1.0
C      1  0.4689780000000  0.4315930000000  0.4171760000000 1.0
C      1  0.5619020000000  0.4056010000000  0.4531100000000 1.0
C      1  0.5058590000000  0.5865110000000  0.4855180000000 1.0
C      1  0.5092220000000  0.4458380000000  0.5018880000000 1.0
C      1  0.3957980000000  0.4819320000000  0.4754780000000 1.0
C      1  0.5226500000000  0.4279270000000  0.4525850000000 1.0
C      1  0.4430680000000  0.5432470000000  0.5038710000000 1.0
C      1  0.5292170000000  0.5129920000000  0.4258920000000 1.0
C      1  0.4868280000000  0.5802210000000  0.5082010000000 1.0
C      1  0.4524280000000  0.4963550000000  0.5950190000000 1.0
C      1  0.4381870000000  0.5020350000000  0.4088320000000 1.0
C      1  0.3908140000000  0.5310660000000  0.4566270000000 1.0
C      1  0.5080220000000  0.5741420000000  0.5297700000000 1.0
C      1  0.4807910000000  0.4912480000000  0.3803430000000 1.0
C      1  0.5364310000000  0.4855630000000  0.4271740000000 1.0
C      1  0.4780960000000  0.5108400000000  0.6008310000000 1.0
C      1  0.5366800000000  0.5055900000000  0.4807520000000 1.0
C      1  0.4752780000000  0.3992930000000  0.4560020000000 1.0
C      1  0.4459280000000  0.4467330000000  0.5905780000000 1.0
C      1  0.5623390000000  0.4277450000000  0.4345370000000 1.0
C      1  0.5277150000000  0.5984810000000  0.5275040000000 1.0
C      1  0.4876900000000  0.5351900000000  0.5251450000000 1.0
C      1  0.4629120000000  0.4772670000000  0.5502770000000 1.0
C      1  0.4335670000000  0.4722730000000  0.4115480000000 1.0
C      1  0.5667490000000  0.5348810000000  0.4469550000000 1.0
C      1  0.5075210000000  0.5132250000000  0.4919390000000 1.0
C      1  0.4850830000000  0.6312460000000  0.5103270000000 1.0
C      1  0.4725990000000  0.5529590000000  0.5064250000000 1.0
C      1  0.4626690000000  0.4575550000000  0.5255050000000 1.0
C      1  0.4700110000000  0.6063250000000  0.5102090000000 1.0
C      1  0.4911890000000  0.4660250000000  0.5899660000000 1.0
C      1  0.5938420000000  0.4993880000000  0.5690010000000 1.0
C      1  0.5019210000000  0.4908440000000  0.5183280000000 1.0
C      1  0.4714510000000  0.4657460000000  0.3839880000000 1.0
C      1  0.4228340000000  0.4144480000000  0.4958720000000 1.0
C      1  0.4936950000000  0.4654480000000  0.4297080000000 1.0
C      1  0.4613990000000  0.4943020000000  0.4902940000000 1.0
C      1  0.5193360000000  0.5709180000000  0.5766390000000 1.0
C      1  0.5356170000000  0.4986680000000  0.5653120000000 1.0
C      1  0.5137520000000  0.4337920000000  0.5482990000000 1.0
C      1  0.4729520000000  0.5643080000000  0.4140640000000 1.0
C      1  0.6210580000000  0.5229930000000  0.5311420000000 1.0
C      1  0.6153870000000  0.4725410000000  0.5217170000000 1.0
C      1  0.4053150000000  0.5504530000000  0.4963950000000 1.0
C      1  0.4575270000000  0.4558950000000  0.4059300000000 1.0
C      1  0.4923330000000  0.5101870000000  0.5645070000000 1.0
C      1  0.4591040000000  0.4265840000000  0.5760140000000 1.0
C      1  0.4771570000000  0.4772760000000  0.5082470000000 1.0
C      1  0.5431990000000  0.5302170000000  0.4639970000000 1.0
C      1  0.4307490000000  0.5128240000000  0.4370300000000 1.0
C      1  0.4707030000000  0.5453640000000  0.4540400000000 1.0
C      1  0.4609400000000  0.4704570000000  0.5820760000000 1.0
C      1  0.5867870000000  0.4326730000000  0.5178590000000 1.0
C      1  0.5339220000000  0.4630870000000  0.6015570000000 1.0
C      1  0.5819590000000  0.5055000000000  0.5418480000000 1.0
C      1  0.5953910000000  0.5074190000000  0.4915000000000 1.0
C      1  0.4316220000000  0.5805350000000  0.5239150000000 1.0
C      1  0.5023470000000  0.4102570000000  0.5619270000000 1.0
C      1  0.4342600000000  0.5850510000000  0.4947420000000 1.0
C      1  0.4687920000000  0.4339610000000  0.4719770000000 1.0
C      1  0.4856910000000  0.5340810000000  0.4037320000000 1.0
C      1  0.4641060000000  0.5475100000000  0.5702260000000 1.0
C      1  0.5240090000000  0.5519720000000  0.4640830000000 1.0
C      1  0.5415600000000  0.4235550000000  0.5377080000000 1.0
C      1  0.4530280000000  0.6037850000000  0.4846100000000 1.0
C      1  0.5396140000000  0.5266750000000  0.4024350000000 1.0
C      1  0.4165760000000  0.4620480000000  0.5556570000000 1.0
C      1  0.4597530000000  0.4156180000000  0.4391040000000 1.0
C      1  0.5187400000000  0.5205440000000  0.5580650000000 1.0
C      1  0.4567780000000  0.5686450000000  0.4420580000000 1.0
C      1  0.5422190000000  0.4255070000000  0.4130730000000 1.0
C      1  0.5411720000000  0.4005290000000  0.5204710000000 1.0
C      1  0.5112960000000  0.5470190000000  0.5926250000000 1.0
C      1  0.5548800000000  0.5482200000000  0.4189310000000 1.0
C      1  0.5338630000000  0.4489530000000  0.3995880000000 1.0
C      1  0.5127880000000  0.5930940000000  0.4409630000000 1.0
C      1  0.4512640000000  0.4073030000000  0.5004930000000 1.0
C      1  0.5212780000000  0.4706780000000  0.5108230000000 1.0
C      1  0.4926840000000  0.4500110000000  0.4774420000000 1.0
C      1  0.5474780000000  0.3906910000000  0.4731630000000 1.0
C      1  0.4692140000000  0.5759150000000  0.5613890000000 1.0
C      1  0.4128120000000  0.5369130000000  0.4400980000000 1.0
C      1  0.5488880000000  0.4701550000000  0.5206830000000 1.0
C      1  0.4308780000000  0.5103750000000  0.5811830000000 1.0
C      1  0.4185640000000  0.4862230000000  0.4559430000000 1.0
C      1  0.6044120000000  0.4994430000000  0.5196130000000 1.0
C      1  0.4710950000000  0.3921390000000  0.4837380000000 1.0
C      1  0.5472690000000  0.5077380000000  0.5103280000000 1.0
C      1  0.4469870000000  0.5136170000000  0.5099710000000 1.0
C      1  0.4819440000000  0.5403100000000  0.5944400000000 1.0
C      1  0.3949160000000  0.4549030000000  0.4859480000000 1.0
C      1  0.5490530000000  0.5936090000000  0.4784120000000 1.0
C      1  0.5027440000000  0.5696400000000  0.4250400000000 1.0
C      1  0.4723990000000  0.5261330000000  0.5489920000000 1.0
C      1  0.5548420000000  0.4910790000000  0.5427120000000 1.0
C      1  0.5164700000000  0.5309150000000  0.5313290000000 1.0
C      1  0.6098870000000  0.5258450000000  0.5604150000000 1.0
C      1  0.5080070000000  0.4539670000000  0.4540100000000 1.0
C      1  0.5003350000000  0.4910130000000  0.6031030000000 1.0
C      1  0.4479990000000  0.4232820000000  0.5489900000000 1.0
C      1  0.4078890000000  0.4960430000000  0.5704810000000 1.0
C      1  0.4656760000000  0.5952950000000  0.4584270000000 1.0
C      1  0.4969640000000  0.3925950000000  0.4979150000000 1.0
C      1  0.5354220000000  0.5503400000000  0.5171790000000 1.0
C      1  0.3968050000000  0.4947220000000  0.5239500000000 1.0
C      1  0.5275980000000  0.6028950000000  0.4970340000000 1.0
C      1  0.4505250000000  0.5865350000000  0.5437080000000 1.0
C      1  0.4483990000000  0.5065900000000  0.5408490000000 1.0
C      1  0.4966550000000  0.4314960000000  0.4110770000000 1.0
C      1  0.4657530000000  0.5110260000000  0.3957750000000 1.0
C      1  0.4339850000000  0.4614720000000  0.5106620000000 1.0
C      1  0.4265840000000  0.5617260000000  0.4492220000000 1.0
C      1  0.4933680000000  0.4845200000000  0.5490590000000 1.0
C      1  0.5936690000000  0.4712470000000  0.5690460000000 1.0
C      1  0.4144220000000  0.4375920000000  0.5144170000000 1.0
C      1  0.5472460000000  0.4574810000000  0.5771340000000 1.0
C      1  0.5715300000000  0.5753920000000  0.5206650000000 1.0
C      1  0.5776410000000  0.5050460000000  0.4446940000000 1.0
C      1  0.5331450000000  0.5283490000000  0.6033780000000 1.0
C      1  0.4069690000000  0.4316550000000  0.4718190000000 1.0
C      1  0.4158670000000  0.4648540000000  0.4347090000000 1.0
C      1  0.4169390000000  0.5358360000000  0.5472360000000 1.0
C      1  0.5465880000000  0.5716230000000  0.5647530000000 1.0
C      1  0.5615800000000  0.5328820000000  0.5135880000000 1.0
C      1  0.4594130000000  0.4058950000000  0.5283180000000 1.0
C      1  0.6098610000000  0.5462300000000  0.5152710000000 1.0
C      1  0.4587230000000  0.5197940000000  0.4439000000000 1.0
C      1  0.5587570000000  0.5386690000000  0.5973710000000 1.0
C      1  0.4868210000000  0.6287140000000  0.5376150000000 1.0
C      1  0.5694470000000  0.5760420000000  0.4902540000000 1.0
C      1  0.5008660000000  0.5203780000000  0.4291280000000 1.0
C      1  0.5075430000000  0.4875670000000  0.3873580000000 1.0
C      1  0.5677860000000  0.4364660000000  0.5405350000000 1.0
C      1  0.5605620000000  0.3952540000000  0.4993970000000 1.0
C      1  0.3961940000000  0.5029450000000  0.4952750000000 1.0
C      1  0.5947250000000  0.5631750000000  0.5338130000000 1.0
C      1  0.4987580000000  0.5835280000000  0.5583070000000 1.0
C      1  0.5748420000000  0.4200040000000  0.4946500000000 1.0
C      1  0.5171600000000  0.4162270000000  0.4246790000000 1.0
C      1  0.5892800000000  0.4634750000000  0.4636910000000 1.0
C      1  0.3897250000000  0.5287640000000  0.4845180000000 1.0
C      1  0.4943570000000  0.6005310000000  0.4621480000000 1.0
C      1  0.4250540000000  0.4402320000000  0.4488620000000 1.0
C      1  0.5206150000000  0.4048200000000  0.4788110000000 1.0
C      1  0.4139480000000  0.5568600000000  0.5260140000000 1.0
C      1  0.5755460000000  0.4548650000000  0.4391710000000 1.0
C      1  0.4350030000000  0.5371520000000  0.5705030000000 1.0
C      1  0.4222130000000  0.4798430000000  0.5321550000000 1.0
C      1  0.4491340000000  0.4526460000000  0.4614670000000 1.0
C      1  0.5110400000000  0.4623020000000  0.5640880000000 1.0
C      1  0.5520450000000  0.4422530000000  0.4744470000000 1.0
C      1  0.5000950000000  0.5462040000000  0.4454910000000 1.0
C      1  0.5130970000000  0.5396180000000  0.3890310000000 1.0
C      1  0.5919520000000  0.5503600000000  0.5602890000000 1.0
C      1  0.5516220000000  0.4775010000000  0.4679480000000 1.0
C      1  0.5177250000000  0.4712370000000  0.4093550000000 1.0
C      1  0.4211070000000  0.4346310000000  0.5445450000000 1.0
C      1  0.5925550000000  0.4927630000000  0.4661690000000 1.0
C      1  0.5872580000000  0.5357310000000  0.4966750000000 1.0
C      1  0.5368860000000  0.5796620000000  0.4545230000000 1.0
C      1  0.5031720000000  0.4413000000000  0.6020650000000 1.0
C      1  0.4931340000000  0.4353680000000  0.5251360000000 1.0
C      1  0.4875910000000  0.4211230000000  0.5841300000000 1.0
C      1  0.5296940000000  0.4957140000000  0.5965530000000 1.0
C      1  0.5511580000000  0.5851490000000  0.5389810000000 1.0
C      1  0.5654990000000  0.4818970000000  0.4289860000000 1.0
C      1  0.5137120000000  0.5488240000000  0.4917690000000 1.0
C      1  0.3978660000000  0.5131330000000  0.5483280000000 1.0
C      1  0.4887700000000  0.4043570000000  0.5263040000000 1.0
C      1  0.4187350000000  0.5684510000000  0.4772080000000 1.0
C      1  0.5070460000000  0.6131660000000  0.5501050000000 1.0
C      1  0.5666680000000  0.5537340000000  0.5751650000000 1.0
C      1  0.5315730000000  0.4283190000000  0.4951290000000 1.0
C      1  0.5807350000000  0.5529020000000  0.4717810000000 1.0
C      1  0.5698580000000  0.4721900000000  0.4980250000000 1.0
C      1  0.4860170000000  0.5026710000000  0.4734280000000 1.0
C      1  0.4395640000000  0.4750340000000  0.4780260000000 1.0
END
