TITL C-3578208-4450-576 -2.85017980564896e-06 125000 -443.901556288465 0 0 73 (C1) n - 1
REM
REM in /home/bkarasulu/work/CARBON/AIRSS/Generating-Clusters/EDIP-Nigel-Params/with-SteepDescent/Higher-Symm/SD-CG/HFTN-CG
REM
REM
REM
REM
REM
REM ./C.cell (12c818d87b63d06a65506943cc24bca4)
REM
REM compiler GCC version 9.2.1 20190827 (Red Hat 9.2.1-1)
REM options -cpp -mtune=generic -march=x86-64 -g -O0 -fpre-include=/usr/include/finclude/math-vector-fortran.h
REM seed 1824255022 1368499633 1707636130 856070193 1702606748 -603899396 -1188610453 1449665161 -608808007 1138217013 1987169865 -1415756392 1815628711 -1887081592 992410146 -1843367221 -1352836473 -55890783 -1468219619 148787973 659276492 1717930614 -983320951 -532033363 -410368196 114810367 -263051588 -1472594120 200287319 2035279487 55801361 -379476696 -1844283096
REM
CELL 1.54180   50.00000   50.00000   50.00000   90.00000   90.00000   90.00000
LATT -1
SFAC C  
C      1  0.4588730000000  0.5666200000000  0.4993270000000 1.0
C      1  0.4707440000000  0.5216230000000  0.5070450000000 1.0
C      1  0.4503410000000  0.4843950000000  0.4484520000000 1.0
C      1  0.4406240000000  0.4662590000000  0.4698040000000 1.0
C      1  0.5559740000000  0.5100540000000  0.5289050000000 1.0
C      1  0.4830500000000  0.5801240000000  0.4888310000000 1.0
C      1  0.5532570000000  0.5370050000000  0.4382280000000 1.0
C      1  0.4646640000000  0.5271200000000  0.5665260000000 1.0
C      1  0.4781820000000  0.4823570000000  0.4376240000000 1.0
C      1  0.5290610000000  0.4351310000000  0.4981260000000 1.0
C      1  0.5109490000000  0.5456270000000  0.5393060000000 1.0
C      1  0.5565770000000  0.4977160000000  0.5542060000000 1.0
C      1  0.4827850000000  0.5364780000000  0.4831470000000 1.0
C      1  0.4287460000000  0.5111130000000  0.4823880000000 1.0
C      1  0.5278210000000  0.5677740000000  0.4735450000000 1.0
C      1  0.4764790000000  0.5308350000000  0.4266060000000 1.0
C      1  0.5119820000000  0.5461270000000  0.4913320000000 1.0
C      1  0.5525070000000  0.4506180000000  0.5084130000000 1.0
C      1  0.5492370000000  0.5691100000000  0.4943990000000 1.0
C      1  0.4566360000000  0.5583490000000  0.4612450000000 1.0
C      1  0.4523300000000  0.5350170000000  0.4439160000000 1.0
C      1  0.5729980000000  0.4792140000000  0.4584130000000 1.0
C      1  0.5036940000000  0.5794550000000  0.5090130000000 1.0
C      1  0.5808420000000  0.4814760000000  0.4846430000000 1.0
C      1  0.5367610000000  0.5558330000000  0.5264530000000 1.0
C      1  0.5439470000000  0.4728330000000  0.5559420000000 1.0
C      1  0.4809740000000  0.5059630000000  0.5544290000000 1.0
C      1  0.4880230000000  0.4015010000000  0.5030480000000 1.0
C      1  0.4861120000000  0.5673660000000  0.4595960000000 1.0
C      1  0.4616910000000  0.4346980000000  0.5307680000000 1.0
C      1  0.4809380000000  0.4295430000000  0.5093050000000 1.0
C      1  0.4994030000000  0.4721700000000  0.5232450000000 1.0
C      1  0.5112730000000  0.4299840000000  0.5451600000000 1.0
C      1  0.5024620000000  0.4025050000000  0.4775860000000 1.0
C      1  0.4976960000000  0.4493700000000  0.5611200000000 1.0
C      1  0.4946010000000  0.5185630000000  0.5284940000000 1.0
C      1  0.4525890000000  0.5383040000000  0.5436090000000 1.0
C      1  0.5157200000000  0.5421660000000  0.5673630000000 1.0
C      1  0.5257620000000  0.4052370000000  0.4960400000000 1.0
C      1  0.4336580000000  0.5307210000000  0.5027030000000 1.0
C      1  0.4505860000000  0.4404610000000  0.4720260000000 1.0
C      1  0.5233700000000  0.4434680000000  0.4689020000000 1.0
C      1  0.4333810000000  0.5210770000000  0.5298910000000 1.0
C      1  0.4357950000000  0.4844710000000  0.4937340000000 1.0
C      1  0.5391380000000  0.5010580000000  0.5060640000000 1.0
C      1  0.4771040000000  0.4439930000000  0.4824080000000 1.0
C      1  0.5124670000000  0.5179150000000  0.4577710000000 1.0
C      1  0.5023710000000  0.4977640000000  0.5731220000000 1.0
C      1  0.4974760000000  0.4297000000000  0.4648660000000 1.0
C      1  0.5388810000000  0.5137220000000  0.4448630000000 1.0
C      1  0.5523010000000  0.4551990000000  0.5359570000000 1.0
C      1  0.4380950000000  0.4908840000000  0.5318010000000 1.0
C      1  0.5465970000000  0.4859580000000  0.4496590000000 1.0
C      1  0.4648770000000  0.5601440000000  0.5275790000000 1.0
C      1  0.5612960000000  0.5384190000000  0.5239890000000 1.0
C      1  0.4700800000000  0.4538650000000  0.5502690000000 1.0
C      1  0.4925540000000  0.5682600000000  0.5334250000000 1.0
C      1  0.4652550000000  0.4907980000000  0.5033660000000 1.0
C      1  0.5624880000000  0.5422790000000  0.4937400000000 1.0
C      1  0.5234440000000  0.4715580000000  0.4604080000000 1.0
C      1  0.5374480000000  0.5250150000000  0.4868600000000 1.0
C      1  0.4807240000000  0.5037020000000  0.4196190000000 1.0
C      1  0.5066210000000  0.4419600000000  0.5184480000000 1.0
C      1  0.5181150000000  0.5191940000000  0.5811570000000 1.0
C      1  0.4461190000000  0.5111470000000  0.4591260000000 1.0
C      1  0.4857240000000  0.4741700000000  0.4870970000000 1.0
C      1  0.4634050000000  0.4826100000000  0.5458680000000 1.0
C      1  0.5140670000000  0.4744720000000  0.5592090000000 1.0
C      1  0.5111770000000  0.4974390000000  0.5151010000000 1.0
C      1  0.4986740000000  0.5420320000000  0.4428720000000 1.0
C      1  0.4977640000000  0.4872350000000  0.4607240000000 1.0
C      1  0.5532390000000  0.4759560000000  0.4921060000000 1.0
C      1  0.5394080000000  0.5577160000000  0.4496710000000 1.0
END
