TITL C-3577080-309-706 -5.66360597911702e-06 125000 -825.744240353976 0 0 132 (C1) n - 1
REM
REM in /home/bkarasulu/work/CARBON/AIRSS/Generating-Clusters/EDIP-Nigel-Params/with-SteepDescent/Higher-Symm/SD-CG/HFTN-CG
REM
REM
REM
REM
REM
REM ./C.cell (12c818d87b63d06a65506943cc24bca4)
REM
REM compiler GCC version 9.2.1 20190827 (Red Hat 9.2.1-1)
REM options -cpp -mtune=generic -march=x86-64 -g -O0 -fpre-include=/usr/include/finclude/math-vector-fortran.h
REM seed -344931844 -417664232 1769515852 -2131871872 -2058096136 -2074386792 -112015428 995408980 -1030682806 726585332 2064460849 1720285456 -1127330028 340066500 -1690335833 2099786295 -598118970 -182890771 -405300257 707469308 -1729930828 571268271 1663125122 1476777984 585196450 -87531709 223236897 1825276411 -335613139 1529788787 -1249535133 731200550 -1926839372
REM
CELL 1.54180   50.00000   50.00000   50.00000   90.00000   90.00000   90.00000
LATT -1
SFAC C  
C      1  0.4987960000000  0.5368820000000  0.5009800000000 1.0
C      1  0.5159800000000  0.4920050000000  0.5457270000000 1.0
C      1  0.4815980000000  0.5237280000000  0.5398490000000 1.0
C      1  0.5107690000000  0.5072900000000  0.4660730000000 1.0
C      1  0.5496950000000  0.5381220000000  0.4439510000000 1.0
C      1  0.4061570000000  0.5303190000000  0.4874760000000 1.0
C      1  0.4950590000000  0.4559690000000  0.4182880000000 1.0
C      1  0.5405920000000  0.4727110000000  0.4824430000000 1.0
C      1  0.4116580000000  0.5386980000000  0.5190250000000 1.0
C      1  0.4690550000000  0.4228930000000  0.5644910000000 1.0
C      1  0.5729190000000  0.4716060000000  0.5504280000000 1.0
C      1  0.4838830000000  0.5125780000000  0.5106870000000 1.0
C      1  0.4681300000000  0.5101120000000  0.4421120000000 1.0
C      1  0.4517240000000  0.4526850000000  0.4402430000000 1.0
C      1  0.4721400000000  0.4648200000000  0.5787440000000 1.0
C      1  0.4288940000000  0.4627930000000  0.4822660000000 1.0
C      1  0.5111930000000  0.5239070000000  0.5472010000000 1.0
C      1  0.4817720000000  0.4933600000000  0.4661030000000 1.0
C      1  0.5510080000000  0.5196440000000  0.4967510000000 1.0
C      1  0.4593040000000  0.4015990000000  0.5498920000000 1.0
C      1  0.4788100000000  0.5599160000000  0.5645960000000 1.0
C      1  0.5462270000000  0.5491460000000  0.4903830000000 1.0
C      1  0.4650900000000  0.5513380000000  0.5186020000000 1.0
C      1  0.5179610000000  0.5906060000000  0.4865740000000 1.0
C      1  0.5818100000000  0.4354900000000  0.5167660000000 1.0
C      1  0.3872380000000  0.4801350000000  0.5381250000000 1.0
C      1  0.4992290000000  0.5460270000000  0.5820150000000 1.0
C      1  0.5621010000000  0.5657620000000  0.5423830000000 1.0
C      1  0.5936000000000  0.5020930000000  0.4522270000000 1.0
C      1  0.5323230000000  0.5282620000000  0.4220690000000 1.0
C      1  0.4348600000000  0.4699920000000  0.4542040000000 1.0
C      1  0.4303790000000  0.4961620000000  0.5247430000000 1.0
C      1  0.5688830000000  0.4203210000000  0.5386350000000 1.0
C      1  0.5264490000000  0.4191740000000  0.4836160000000 1.0
C      1  0.4703940000000  0.5877590000000  0.4701910000000 1.0
C      1  0.4792630000000  0.4465140000000  0.4428360000000 1.0
C      1  0.5253940000000  0.4724450000000  0.5776040000000 1.0
C      1  0.5888840000000  0.5148350000000  0.5011180000000 1.0
C      1  0.4735230000000  0.5791470000000  0.4410380000000 1.0
C      1  0.4395160000000  0.5259760000000  0.5166840000000 1.0
C      1  0.4777220000000  0.6074300000000  0.5102390000000 1.0
C      1  0.4867460000000  0.4188400000000  0.4558700000000 1.0
C      1  0.4147510000000  0.5535600000000  0.4702940000000 1.0
C      1  0.5386490000000  0.4895340000000  0.5286160000000 1.0
C      1  0.4982610000000  0.5642700000000  0.4347020000000 1.0
C      1  0.5463040000000  0.4317300000000  0.5527840000000 1.0
C      1  0.4984580000000  0.5177440000000  0.5893090000000 1.0
C      1  0.5356680000000  0.5675090000000  0.5540970000000 1.0
C      1  0.4645880000000  0.5092590000000  0.5618600000000 1.0
C      1  0.4520610000000  0.4435570000000  0.5756290000000 1.0
C      1  0.5194940000000  0.4190740000000  0.5500920000000 1.0
C      1  0.4064310000000  0.5033380000000  0.4722910000000 1.0
C      1  0.5191710000000  0.4626180000000  0.4601700000000 1.0
C      1  0.4974010000000  0.4292060000000  0.5669340000000 1.0
C      1  0.5279080000000  0.5484610000000  0.5747740000000 1.0
C      1  0.4258940000000  0.5741060000000  0.4898510000000 1.0
C      1  0.5226740000000  0.4387700000000  0.5164580000000 1.0
C      1  0.5639030000000  0.4696950000000  0.4602780000000 1.0
C      1  0.5477380000000  0.5186800000000  0.5258220000000 1.0
C      1  0.5086830000000  0.3997980000000  0.5186620000000 1.0
C      1  0.5614790000000  0.4416880000000  0.4490780000000 1.0
C      1  0.4140820000000  0.5177470000000  0.5521320000000 1.0
C      1  0.5617670000000  0.4887450000000  0.4123520000000 1.0
C      1  0.5429860000000  0.5231110000000  0.5774360000000 1.0
C      1  0.5881650000000  0.5360410000000  0.4800090000000 1.0
C      1  0.5307720000000  0.5843360000000  0.5125350000000 1.0
C      1  0.5904080000000  0.4794140000000  0.4696630000000 1.0
C      1  0.5734080000000  0.4236610000000  0.4665860000000 1.0
C      1  0.4036450000000  0.4791920000000  0.4891130000000 1.0
C      1  0.5501420000000  0.4582000000000  0.5642690000000 1.0
C      1  0.4654070000000  0.4978920000000  0.4915930000000 1.0
C      1  0.4026100000000  0.4901020000000  0.5160800000000 1.0
C      1  0.4889710000000  0.4631950000000  0.4663300000000 1.0
C      1  0.5422830000000  0.5088220000000  0.4013970000000 1.0
C      1  0.4907170000000  0.6018280000000  0.4860330000000 1.0
C      1  0.5320720000000  0.5524840000000  0.4644340000000 1.0
C      1  0.4495650000000  0.5655500000000  0.4344230000000 1.0
C      1  0.5695690000000  0.4213940000000  0.4943510000000 1.0
C      1  0.4046780000000  0.4880050000000  0.5599400000000 1.0
C      1  0.5690150000000  0.5209780000000  0.5644780000000 1.0
C      1  0.4286190000000  0.5481010000000  0.4426560000000 1.0
C      1  0.5313070000000  0.5000610000000  0.4861140000000 1.0
C      1  0.5750570000000  0.4645320000000  0.5195090000000 1.0
C      1  0.4622810000000  0.3932030000000  0.5247250000000 1.0
C      1  0.5164690000000  0.4170770000000  0.4568530000000 1.0
C      1  0.5004380000000  0.4542780000000  0.5813600000000 1.0
C      1  0.5223670000000  0.4877280000000  0.3932990000000 1.0
C      1  0.5595310000000  0.5798970000000  0.5169820000000 1.0
C      1  0.5746270000000  0.5398740000000  0.5439140000000 1.0
C      1  0.4815520000000  0.5053380000000  0.4162170000000 1.0
C      1  0.4322620000000  0.5200730000000  0.4342550000000 1.0
C      1  0.4436390000000  0.5190200000000  0.4871200000000 1.0
C      1  0.4775640000000  0.5379840000000  0.4541410000000 1.0
C      1  0.5048890000000  0.5362850000000  0.4703440000000 1.0
C      1  0.5574010000000  0.3992680000000  0.5086430000000 1.0
C      1  0.4400230000000  0.5269490000000  0.5626530000000 1.0
C      1  0.4267110000000  0.4984220000000  0.4521890000000 1.0
C      1  0.4439030000000  0.4717000000000  0.5383050000000 1.0
C      1  0.4821580000000  0.3977990000000  0.5060280000000 1.0
C      1  0.5287620000000  0.5813910000000  0.4619930000000 1.0
C      1  0.4684440000000  0.4802430000000  0.5526330000000 1.0
C      1  0.5445510000000  0.4641090000000  0.5118700000000 1.0
C      1  0.5309930000000  0.4395050000000  0.4431360000000 1.0
C      1  0.5380120000000  0.4626930000000  0.3976140000000 1.0
C      1  0.4533160000000  0.4691940000000  0.5001630000000 1.0
C      1  0.5803140000000  0.4960200000000  0.5614800000000 1.0
C      1  0.5757140000000  0.5248370000000  0.4550150000000 1.0
C      1  0.5163750000000  0.5814680000000  0.5379290000000 1.0
C      1  0.5220880000000  0.4440500000000  0.4143400000000 1.0
C      1  0.4416290000000  0.5754400000000  0.5382650000000 1.0
C      1  0.4779100000000  0.4511100000000  0.4934200000000 1.0
C      1  0.4926890000000  0.4769090000000  0.5348280000000 1.0
C      1  0.4671800000000  0.5930700000000  0.5317010000000 1.0
C      1  0.5223820000000  0.4895350000000  0.4420720000000 1.0
C      1  0.4497160000000  0.5549390000000  0.5599890000000 1.0
C      1  0.4880600000000  0.5788000000000  0.5449330000000 1.0
C      1  0.5242220000000  0.5025430000000  0.5872880000000 1.0
C      1  0.4748450000000  0.4150190000000  0.4832570000000 1.0
C      1  0.5740210000000  0.5604200000000  0.4879010000000 1.0
C      1  0.4551090000000  0.5684260000000  0.4889420000000 1.0
C      1  0.4966800000000  0.4539230000000  0.5163980000000 1.0
C      1  0.4730190000000  0.5074840000000  0.5900230000000 1.0
C      1  0.4878120000000  0.5291180000000  0.4030080000000 1.0
C      1  0.5037310000000  0.4853810000000  0.4170400000000 1.0
C      1  0.5075830000000  0.5435050000000  0.4164510000000 1.0
C      1  0.5898900000000  0.4855670000000  0.4986940000000 1.0
C      1  0.5303670000000  0.3972020000000  0.5003920000000 1.0
C      1  0.4253300000000  0.4660660000000  0.5608350000000 1.0
C      1  0.5226510000000  0.5417890000000  0.5209670000000 1.0
C      1  0.4575230000000  0.5424400000000  0.4756310000000 1.0
C      1  0.4186990000000  0.5680980000000  0.5184650000000 1.0
C      1  0.5530810000000  0.4897340000000  0.4399180000000 1.0
END
