TITL C-3577085-527-47 3.86228144783571e-07 125000 -166.396872345336 0 0 28 (C1) n - 1
REM
REM in /home/bkarasulu/work/CARBON/AIRSS/Generating-Clusters/EDIP-Nigel-Params/with-SteepDescent/Higher-Symm/SD-CG/HFTN-CG
REM
REM
REM
REM
REM
REM ./C.cell (12c818d87b63d06a65506943cc24bca4)
REM
REM compiler GCC version 9.2.1 20190827 (Red Hat 9.2.1-1)
REM options -cpp -mtune=generic -march=x86-64 -g -O0 -fpre-include=/usr/include/finclude/math-vector-fortran.h
REM seed 2043179645 -1388259416 -1645811650 17013315 615923527 -1693337698 -916483889 883357313 -2627466 -1284051831 -1471469636 63014199 -332908160 271940384 -1092631345 -316014964 -1747896858 891222924 1710448952 1244518033 1735981953 1594528464 610925570 1628063731 1627395096 -44690870 -898017302 1650368195 1435310428 1910009353 1172321180 -179127082 -1137703755
REM
CELL 1.54180   50.00000   50.00000   50.00000   90.00000   90.00000   90.00000
LATT -1
SFAC C  
C      1  0.5336560000000  0.5143800000000  0.5334200000000 1.0
C      1  0.4778980000000  0.5428710000000  0.5394110000000 1.0
C      1  0.4617660000000  0.4835440000000  0.5360620000000 1.0
C      1  0.5208120000000  0.4584890000000  0.5371270000000 1.0
C      1  0.5422720000000  0.4777040000000  0.5379630000000 1.0
C      1  0.4833190000000  0.4640070000000  0.5350400000000 1.0
C      1  0.4586900000000  0.5214380000000  0.5377160000000 1.0
C      1  0.5147960000000  0.5354340000000  0.5348110000000 1.0
C      1  0.5165760000000  0.4411240000000  0.5131510000000 1.0
C      1  0.5475160000000  0.5102720000000  0.5084130000000 1.0
C      1  0.4831990000000  0.5605310000000  0.5160940000000 1.0
C      1  0.4488230000000  0.4883180000000  0.5103280000000 1.0
C      1  0.5110340000000  0.5522720000000  0.5114290000000 1.0
C      1  0.5578700000000  0.4830700000000  0.5132640000000 1.0
C      1  0.4871910000000  0.4471290000000  0.5108580000000 1.0
C      1  0.4432290000000  0.5173480000000  0.5125080000000 1.0
C      1  0.4844430000000  0.4634380000000  0.4860300000000 1.0
C      1  0.5550590000000  0.4640800000000  0.4926450000000 1.0
C      1  0.5175150000000  0.5416060000000  0.4851520000000 1.0
C      1  0.4553400000000  0.5310830000000  0.4880180000000 1.0
C      1  0.4665430000000  0.5563010000000  0.4937470000000 1.0
C      1  0.5350130000000  0.5186140000000  0.4831440000000 1.0
C      1  0.5304210000000  0.4513190000000  0.4879390000000 1.0
C      1  0.4691810000000  0.4874900000000  0.4898490000000 1.0
C      1  0.5165570000000  0.4932150000000  0.4608920000000 1.0
C      1  0.4987320000000  0.5164000000000  0.4628990000000 1.0
C      1  0.4720870000000  0.5110520000000  0.4740040000000 1.0
C      1  0.5104640000000  0.4674700000000  0.4733140000000 1.0
END
