TITL C-3577076-40-393 -1.36597770032553e-06 125000 -715.366576096428 0 0 115 (C1) n - 1
REM
REM in /home/bkarasulu/work/CARBON/AIRSS/Generating-Clusters/EDIP-Nigel-Params/with-SteepDescent/Higher-Symm/SD-CG/HFTN-CG
REM
REM
REM
REM
REM
REM ./C.cell (12c818d87b63d06a65506943cc24bca4)
REM
REM compiler GCC version 9.2.1 20190827 (Red Hat 9.2.1-1)
REM options -cpp -mtune=generic -march=x86-64 -g -O0 -fpre-include=/usr/include/finclude/math-vector-fortran.h
REM seed 1374620532 -1427777523 1639642661 1788055363 -395388242 -1419264375 -875759332 -837870710 1521349256 1475519967 1084162446 2054060687 2096353171 -1643521355 1717152971 -811795343 -1446435972 -1188053640 -1674071017 6424975 -591840262 -220104363 -1718152807 1992595109 -2070761160 549679209 -401023911 137331555 -1836474494 -881203058 -1996274656 -1823317682 526180567
REM
CELL 1.54180   50.00000   50.00000   50.00000   90.00000   90.00000   90.00000
LATT -1
SFAC C  
C      1  0.5067130000000  0.4156710000000  0.5182100000000 1.0
C      1  0.5092570000000  0.4205120000000  0.4606500000000 1.0
C      1  0.4294360000000  0.4809040000000  0.5125160000000 1.0
C      1  0.5809320000000  0.4213130000000  0.4682250000000 1.0
C      1  0.4628440000000  0.4152260000000  0.4751590000000 1.0
C      1  0.4872560000000  0.4787850000000  0.4794080000000 1.0
C      1  0.4316260000000  0.4910790000000  0.5688330000000 1.0
C      1  0.5718730000000  0.4670640000000  0.5577920000000 1.0
C      1  0.4482210000000  0.5383350000000  0.5778690000000 1.0
C      1  0.5611470000000  0.4433820000000  0.5450100000000 1.0
C      1  0.5200660000000  0.4589000000000  0.5398790000000 1.0
C      1  0.4859440000000  0.5719400000000  0.4354510000000 1.0
C      1  0.4344710000000  0.5609180000000  0.5341400000000 1.0
C      1  0.4138560000000  0.5326590000000  0.4709680000000 1.0
C      1  0.5642420000000  0.5115130000000  0.5502910000000 1.0
C      1  0.4640230000000  0.4243390000000  0.5339320000000 1.0
C      1  0.4230500000000  0.5510500000000  0.4895020000000 1.0
C      1  0.5138100000000  0.5162590000000  0.4571750000000 1.0
C      1  0.4687790000000  0.4501290000000  0.5201150000000 1.0
C      1  0.5628840000000  0.5199280000000  0.4589180000000 1.0
C      1  0.5884950000000  0.5482330000000  0.4861030000000 1.0
C      1  0.5489660000000  0.4930150000000  0.5075130000000 1.0
C      1  0.4669360000000  0.5975590000000  0.5394060000000 1.0
C      1  0.4544200000000  0.4042090000000  0.5172490000000 1.0
C      1  0.4807560000000  0.5372470000000  0.5563410000000 1.0
C      1  0.5253850000000  0.5677570000000  0.5017250000000 1.0
C      1  0.4613440000000  0.5300900000000  0.4428160000000 1.0
C      1  0.4922730000000  0.5981350000000  0.5221020000000 1.0
C      1  0.5074490000000  0.5722470000000  0.4528880000000 1.0
C      1  0.4614880000000  0.5592020000000  0.4350970000000 1.0
C      1  0.5573740000000  0.4788830000000  0.4426640000000 1.0
C      1  0.4589660000000  0.4938880000000  0.4701020000000 1.0
C      1  0.5323740000000  0.4005720000000  0.5203700000000 1.0
C      1  0.4229740000000  0.5054250000000  0.4771300000000 1.0
C      1  0.5224800000000  0.4506400000000  0.4909550000000 1.0
C      1  0.4869390000000  0.5130560000000  0.4411870000000 1.0
C      1  0.5138320000000  0.5662160000000  0.5545120000000 1.0
C      1  0.4770040000000  0.5090400000000  0.5171430000000 1.0
C      1  0.5240690000000  0.5196220000000  0.5728520000000 1.0
C      1  0.5824480000000  0.4548530000000  0.5023520000000 1.0
C      1  0.4398540000000  0.5134360000000  0.4286510000000 1.0
C      1  0.4798640000000  0.5368200000000  0.5240500000000 1.0
C      1  0.4421110000000  0.5726450000000  0.4496940000000 1.0
C      1  0.5492200000000  0.4747360000000  0.5766530000000 1.0
C      1  0.4421940000000  0.5688540000000  0.4773410000000 1.0
C      1  0.4839080000000  0.4499080000000  0.4932160000000 1.0
C      1  0.5901850000000  0.5210130000000  0.4719940000000 1.0
C      1  0.5211450000000  0.5350550000000  0.4237920000000 1.0
C      1  0.4170000000000  0.5089370000000  0.5208290000000 1.0
C      1  0.4541430000000  0.5884260000000  0.4946920000000 1.0
C      1  0.5941450000000  0.5008600000000  0.4919590000000 1.0
C      1  0.5829040000000  0.4898080000000  0.5407960000000 1.0
C      1  0.5868400000000  0.4482120000000  0.4742380000000 1.0
C      1  0.4905860000000  0.4197190000000  0.5441940000000 1.0
C      1  0.5162340000000  0.4863130000000  0.4175030000000 1.0
C      1  0.5698630000000  0.4346260000000  0.5191260000000 1.0
C      1  0.5775920000000  0.5372870000000  0.5111520000000 1.0
C      1  0.5330400000000  0.5450730000000  0.5612290000000 1.0
C      1  0.5341980000000  0.5097180000000  0.4181640000000 1.0
C      1  0.5575110000000  0.4096840000000  0.5077480000000 1.0
C      1  0.5358560000000  0.4767980000000  0.4870530000000 1.0
C      1  0.4216350000000  0.4641640000000  0.4906770000000 1.0
C      1  0.4677820000000  0.4956030000000  0.5404120000000 1.0
C      1  0.5327730000000  0.4870340000000  0.4604680000000 1.0
C      1  0.5069120000000  0.5236390000000  0.4871620000000 1.0
C      1  0.5396940000000  0.4981970000000  0.5592800000000 1.0
C      1  0.4117360000000  0.5158980000000  0.4362800000000 1.0
C      1  0.4884440000000  0.4940610000000  0.4185520000000 1.0
C      1  0.5535710000000  0.5227200000000  0.4966220000000 1.0
C      1  0.5663240000000  0.5658320000000  0.4746250000000 1.0
C      1  0.5001370000000  0.4978050000000  0.5025430000000 1.0
C      1  0.5006750000000  0.4386990000000  0.4401430000000 1.0
C      1  0.5339800000000  0.4314960000000  0.4700200000000 1.0
C      1  0.5798060000000  0.4676830000000  0.4553540000000 1.0
C      1  0.4663550000000  0.5821810000000  0.5652470000000 1.0
C      1  0.4450580000000  0.5864410000000  0.5226850000000 1.0
C      1  0.4056750000000  0.4926630000000  0.4542680000000 1.0
C      1  0.4907800000000  0.4194860000000  0.4846680000000 1.0
C      1  0.5791430000000  0.4838510000000  0.5106510000000 1.0
C      1  0.4456610000000  0.4645430000000  0.5623190000000 1.0
C      1  0.4960960000000  0.5138400000000  0.5697430000000 1.0
C      1  0.5499580000000  0.5807230000000  0.4923240000000 1.0
C      1  0.5605930000000  0.5055730000000  0.4315210000000 1.0
C      1  0.4999030000000  0.5707880000000  0.4826420000000 1.0
C      1  0.4223720000000  0.4702500000000  0.4444670000000 1.0
C      1  0.5728790000000  0.5565780000000  0.5319130000000 1.0
C      1  0.5150260000000  0.5798840000000  0.5283920000000 1.0
C      1  0.5289140000000  0.5548430000000  0.4427760000000 1.0
C      1  0.5056870000000  0.4742770000000  0.4526310000000 1.0
C      1  0.4560640000000  0.5271210000000  0.4730870000000 1.0
C      1  0.4765660000000  0.4645110000000  0.5713890000000 1.0
C      1  0.4824510000000  0.5428080000000  0.4893780000000 1.0
C      1  0.4990930000000  0.4442830000000  0.5612690000000 1.0
C      1  0.5258060000000  0.4892200000000  0.5309310000000 1.0
C      1  0.5601330000000  0.5407830000000  0.5513790000000 1.0
C      1  0.5266100000000  0.4393230000000  0.5177140000000 1.0
C      1  0.5407330000000  0.4318680000000  0.5608330000000 1.0
C      1  0.5284620000000  0.5375100000000  0.5016830000000 1.0
C      1  0.4679020000000  0.4725140000000  0.4246540000000 1.0
C      1  0.4835940000000  0.5941300000000  0.4936230000000 1.0
C      1  0.4733540000000  0.4474060000000  0.4392790000000 1.0
C      1  0.5319990000000  0.4508650000000  0.5799980000000 1.0
C      1  0.4448440000000  0.4025180000000  0.4922920000000 1.0
C      1  0.4551310000000  0.4396300000000  0.4614150000000 1.0
C      1  0.4476500000000  0.4864980000000  0.4408470000000 1.0
C      1  0.4446340000000  0.5616710000000  0.5619080000000 1.0
C      1  0.5510430000000  0.5469050000000  0.4593960000000 1.0
C      1  0.4907520000000  0.4873020000000  0.5572010000000 1.0
C      1  0.5558190000000  0.4118430000000  0.4776830000000 1.0
C      1  0.4512870000000  0.4714400000000  0.5320180000000 1.0
C      1  0.4918430000000  0.5702200000000  0.5725540000000 1.0
C      1  0.4522450000000  0.5109740000000  0.5720660000000 1.0
C      1  0.4280120000000  0.4512700000000  0.4659690000000 1.0
C      1  0.4156040000000  0.5021950000000  0.5485700000000 1.0
C      1  0.4260130000000  0.5387150000000  0.5158550000000 1.0
END
