TITL C-3577082-504-746 -2.43722119685322e-06 125000 -665.338178741961 0 0 108 (C1) n - 1
REM
REM in /home/bkarasulu/work/CARBON/AIRSS/Generating-Clusters/EDIP-Nigel-Params/with-SteepDescent/Higher-Symm/SD-CG/HFTN-CG
REM
REM
REM
REM
REM
REM ./C.cell (12c818d87b63d06a65506943cc24bca4)
REM
REM compiler GCC version 9.2.1 20190827 (Red Hat 9.2.1-1)
REM options -cpp -mtune=generic -march=x86-64 -g -O0 -fpre-include=/usr/include/finclude/math-vector-fortran.h
REM seed -121731563 1761868179 -1710664889 2020752657 -230946911 1104807177 1488790928 -461287960 -510451855 -935244885 1912789676 1173079197 645252023 1144459338 -1536919613 982996359 749796310 -585293092 1595710620 -1200255657 -1982025924 163173960 -2000854836 584633963 1136079711 -1081286869 -55987589 556524126 1717951934 -105224346 -829451042 682368156 -719810159
REM
CELL 1.54180   50.00000   50.00000   50.00000   90.00000   90.00000   90.00000
LATT -1
SFAC C  
C      1  0.5244900000000  0.4850010000000  0.5133030000000 1.0
C      1  0.4808930000000  0.4849050000000  0.5085480000000 1.0
C      1  0.4958080000000  0.4856100000000  0.4721990000000 1.0
C      1  0.4740780000000  0.5139620000000  0.5116380000000 1.0
C      1  0.5210350000000  0.5151950000000  0.5104640000000 1.0
C      1  0.5096510000000  0.5134710000000  0.4747160000000 1.0
C      1  0.5473420000000  0.4867660000000  0.4297750000000 1.0
C      1  0.5111520000000  0.4951890000000  0.5544370000000 1.0
C      1  0.4332370000000  0.4849770000000  0.4934660000000 1.0
C      1  0.4608760000000  0.5072420000000  0.4462060000000 1.0
C      1  0.4868970000000  0.5140860000000  0.5632470000000 1.0
C      1  0.5702460000000  0.5072650000000  0.4906570000000 1.0
C      1  0.5046660000000  0.4140390000000  0.5021010000000 1.0
C      1  0.5321470000000  0.4148770000000  0.5081880000000 1.0
C      1  0.4882810000000  0.4208540000000  0.5258840000000 1.0
C      1  0.4936280000000  0.5822890000000  0.4973260000000 1.0
C      1  0.4658490000000  0.5798120000000  0.5039920000000 1.0
C      1  0.5089100000000  0.5756270000000  0.5216710000000 1.0
C      1  0.5124610000000  0.4988030000000  0.4004440000000 1.0
C      1  0.5669050000000  0.4958010000000  0.5613760000000 1.0
C      1  0.4120740000000  0.4932850000000  0.5397440000000 1.0
C      1  0.4858590000000  0.5107230000000  0.4047150000000 1.0
C      1  0.4214940000000  0.5096320000000  0.5629420000000 1.0
C      1  0.5850780000000  0.5051270000000  0.5390930000000 1.0
C      1  0.5410730000000  0.4368060000000  0.4548840000000 1.0
C      1  0.5023370000000  0.4412060000000  0.5678160000000 1.0
C      1  0.4435700000000  0.4412580000000  0.4729680000000 1.0
C      1  0.4481160000000  0.5605870000000  0.4627730000000 1.0
C      1  0.4917480000000  0.5576160000000  0.5655650000000 1.0
C      1  0.5593050000000  0.5556920000000  0.4714690000000 1.0
C      1  0.4621250000000  0.5527260000000  0.4155200000000 1.0
C      1  0.5897600000000  0.5488110000000  0.5133450000000 1.0
C      1  0.4420720000000  0.5512310000000  0.5788400000000 1.0
C      1  0.5400150000000  0.4628180000000  0.4137580000000 1.0
C      1  0.4092110000000  0.4535410000000  0.5115790000000 1.0
C      1  0.5426890000000  0.4614300000000  0.5841430000000 1.0
C      1  0.5497260000000  0.4775370000000  0.5251170000000 1.0
C      1  0.4559240000000  0.4701400000000  0.5085440000000 1.0
C      1  0.5038700000000  0.4824520000000  0.4422700000000 1.0
C      1  0.4514800000000  0.5144880000000  0.5294050000000 1.0
C      1  0.5463400000000  0.5216880000000  0.5249850000000 1.0
C      1  0.4944830000000  0.5341550000000  0.4548050000000 1.0
C      1  0.5579200000000  0.4603350000000  0.4688260000000 1.0
C      1  0.4858700000000  0.4646620000000  0.5744070000000 1.0
C      1  0.4504780000000  0.4626650000000  0.4530600000000 1.0
C      1  0.4343330000000  0.5353220000000  0.4799210000000 1.0
C      1  0.5139380000000  0.5450580000000  0.5795710000000 1.0
C      1  0.5564420000000  0.5314220000000  0.4537200000000 1.0
C      1  0.4688560000000  0.4543490000000  0.4307840000000 1.0
C      1  0.5685380000000  0.4553550000000  0.4993980000000 1.0
C      1  0.4633510000000  0.4728640000000  0.5568340000000 1.0
C      1  0.5371380000000  0.5357360000000  0.4314610000000 1.0
C      1  0.4210570000000  0.5388950000000  0.5072140000000 1.0
C      1  0.5389170000000  0.5395380000000  0.5649040000000 1.0
C      1  0.4632980000000  0.5636010000000  0.5270510000000 1.0
C      1  0.5093010000000  0.5709140000000  0.4732290000000 1.0
C      1  0.5360210000000  0.5678260000000  0.5141350000000 1.0
C      1  0.5334300000000  0.4310490000000  0.5310420000000 1.0
C      1  0.4939940000000  0.4282520000000  0.4793360000000 1.0
C      1  0.4611120000000  0.4280480000000  0.5181520000000 1.0
C      1  0.5571630000000  0.4479260000000  0.5322850000000 1.0
C      1  0.4485550000000  0.4575610000000  0.5350270000000 1.0
C      1  0.4987550000000  0.4537060000000  0.4328930000000 1.0
C      1  0.4402490000000  0.5436850000000  0.5316530000000 1.0
C      1  0.5520920000000  0.5504200000000  0.5336900000000 1.0
C      1  0.5138660000000  0.5524410000000  0.4390510000000 1.0
C      1  0.5027860000000  0.4748010000000  0.5297530000000 1.0
C      1  0.4633710000000  0.4864770000000  0.4683870000000 1.0
C      1  0.5384880000000  0.4836140000000  0.4592070000000 1.0
C      1  0.4965620000000  0.5262150000000  0.5272830000000 1.0
C      1  0.5442080000000  0.5104170000000  0.4730700000000 1.0
C      1  0.4639480000000  0.5263510000000  0.4860300000000 1.0
C      1  0.4123010000000  0.4879980000000  0.4706360000000 1.0
C      1  0.5767620000000  0.4912570000000  0.4300790000000 1.0
C      1  0.5268810000000  0.4847000000000  0.5878440000000 1.0
C      1  0.5909060000000  0.5008610000000  0.4704010000000 1.0
C      1  0.4328390000000  0.5071690000000  0.4371890000000 1.0
C      1  0.4889450000000  0.5114140000000  0.5937210000000 1.0
C      1  0.4250870000000  0.5051780000000  0.5152890000000 1.0
C      1  0.5311680000000  0.5092180000000  0.4203650000000 1.0
C      1  0.5411110000000  0.5111710000000  0.5531820000000 1.0
C      1  0.5750580000000  0.4900950000000  0.5140330000000 1.0
C      1  0.4772560000000  0.4919130000000  0.4264030000000 1.0
C      1  0.4585890000000  0.5020650000000  0.5571590000000 1.0
C      1  0.4986990000000  0.4831880000000  0.5945750000000 1.0
C      1  0.4250660000000  0.4773240000000  0.4442880000000 1.0
C      1  0.5834320000000  0.4741050000000  0.4551880000000 1.0
C      1  0.5077430000000  0.5304820000000  0.6034000000000 1.0
C      1  0.5826850000000  0.5171980000000  0.4454610000000 1.0
C      1  0.4169970000000  0.5172370000000  0.4613480000000 1.0
C      1  0.5063360000000  0.4418360000000  0.5385270000000 1.0
C      1  0.4660550000000  0.4319670000000  0.4889030000000 1.0
C      1  0.5107170000000  0.4370550000000  0.4560900000000 1.0
C      1  0.4908850000000  0.5560110000000  0.5358550000000 1.0
C      1  0.5347660000000  0.5621420000000  0.4856020000000 1.0
C      1  0.4758430000000  0.5504790000000  0.4731680000000 1.0
C      1  0.4276090000000  0.5383800000000  0.5591480000000 1.0
C      1  0.4862050000000  0.5382380000000  0.4165140000000 1.0
C      1  0.5869260000000  0.5344530000000  0.5368000000000 1.0
C      1  0.5634700000000  0.4665090000000  0.5648290000000 1.0
C      1  0.5143660000000  0.4689950000000  0.4019270000000 1.0
C      1  0.4182990000000  0.4636910000000  0.5363070000000 1.0
C      1  0.4464540000000  0.5618050000000  0.4351630000000 1.0
C      1  0.5811640000000  0.5558390000000  0.4887560000000 1.0
C      1  0.4675240000000  0.5595490000000  0.5791670000000 1.0
C      1  0.5446790000000  0.4388960000000  0.4271780000000 1.0
C      1  0.4198100000000  0.4445770000000  0.4881270000000 1.0
C      1  0.5264310000000  0.4387730000000  0.5820830000000 1.0
END
