TITL C-3578199-7832-596 1.30204938261828e-07 125000 -779.276996184987 0 0 126 (C1) n - 1
REM
REM in /home/bkarasulu/work/CARBON/AIRSS/Generating-Clusters/EDIP-Nigel-Params/with-SteepDescent/Higher-Symm/SD-CG/HFTN-CG
REM
REM
REM
REM
REM
REM ./C.cell (12c818d87b63d06a65506943cc24bca4)
REM
REM compiler GCC version 9.2.1 20190827 (Red Hat 9.2.1-1)
REM options -cpp -mtune=generic -march=x86-64 -g -O0 -fpre-include=/usr/include/finclude/math-vector-fortran.h
REM seed -123790921 1007991167 313990417 -515473690 -652730430 -985563233 2094976402 745569139 47374020 431151280 -1041708297 895232470 828613519 1972257303 1488894417 1411877326 -1498872047 -1960662584 997287562 300541071 824706964 -1334983422 424520152 1718175346 1125983546 -126877106 -381924442 -68074710 835091763 -1146213330 -314974009 1571340064 1174729961
REM
CELL 1.54180   50.00000   50.00000   50.00000   90.00000   90.00000   90.00000
LATT -1
SFAC C  
C      1  0.5157600000000  0.4754590000000  0.4553880000000 1.0
C      1  0.4849500000000  0.4450220000000  0.4965610000000 1.0
C      1  0.5158450000000  0.4722680000000  0.5417990000000 1.0
C      1  0.4848390000000  0.5247040000000  0.5462800000000 1.0
C      1  0.5159000000000  0.5551860000000  0.5046900000000 1.0
C      1  0.4845380000000  0.5282870000000  0.4576370000000 1.0
C      1  0.4766140000000  0.5499750000000  0.5606390000000 1.0
C      1  0.5242470000000  0.5794320000000  0.4872360000000 1.0
C      1  0.4773120000000  0.5263020000000  0.4281310000000 1.0
C      1  0.5231000000000  0.4501970000000  0.4404230000000 1.0
C      1  0.4739990000000  0.4217630000000  0.5126460000000 1.0
C      1  0.5245830000000  0.4736140000000  0.5705520000000 1.0
C      1  0.5536650000000  0.5477600000000  0.5124010000000 1.0
C      1  0.4409100000000  0.5297040000000  0.4654580000000 1.0
C      1  0.5585180000000  0.4861970000000  0.4554110000000 1.0
C      1  0.4422580000000  0.4534020000000  0.4882130000000 1.0
C      1  0.5581780000000  0.4684780000000  0.5284410000000 1.0
C      1  0.4427160000000  0.5125200000000  0.5469790000000 1.0
C      1  0.5487590000000  0.5197940000000  0.4941890000000 1.0
C      1  0.4507590000000  0.5032110000000  0.4816820000000 1.0
C      1  0.5499540000000  0.4816230000000  0.4875990000000 1.0
C      1  0.4515390000000  0.4783530000000  0.5068650000000 1.0
C      1  0.5488890000000  0.4986760000000  0.5195780000000 1.0
C      1  0.4506320000000  0.5151460000000  0.5148800000000 1.0
C      1  0.5798650000000  0.5416160000000  0.5241890000000 1.0
C      1  0.4155900000000  0.5393390000000  0.4780550000000 1.0
C      1  0.5836190000000  0.5018470000000  0.4552980000000 1.0
C      1  0.4187010000000  0.4645730000000  0.4759710000000 1.0
C      1  0.5874350000000  0.4626680000000  0.5217970000000 1.0
C      1  0.4183220000000  0.4966520000000  0.5483360000000 1.0
C      1  0.4578360000000  0.4810820000000  0.4139760000000 1.0
C      1  0.5411950000000  0.4159940000000  0.4738750000000 1.0
C      1  0.4573720000000  0.4344820000000  0.5602240000000 1.0
C      1  0.5439270000000  0.5190790000000  0.5858980000000 1.0
C      1  0.4569000000000  0.5820440000000  0.5259490000000 1.0
C      1  0.5438770000000  0.5643890000000  0.4414420000000 1.0
C      1  0.5085040000000  0.4513060000000  0.5835350000000 1.0
C      1  0.4932340000000  0.5476570000000  0.5857750000000 1.0
C      1  0.5075570000000  0.5988930000000  0.5030650000000 1.0
C      1  0.4941270000000  0.5485230000000  0.4159620000000 1.0
C      1  0.5071810000000  0.4528620000000  0.4150340000000 1.0
C      1  0.4894140000000  0.4008650000000  0.4972120000000 1.0
C      1  0.4454580000000  0.5581790000000  0.4401320000000 1.0
C      1  0.5560220000000  0.4758250000000  0.4185840000000 1.0
C      1  0.4417000000000  0.4168570000000  0.4766360000000 1.0
C      1  0.5549760000000  0.4414070000000  0.5555160000000 1.0
C      1  0.4451930000000  0.5237160000000  0.5836470000000 1.0
C      1  0.5554940000000  0.5853140000000  0.5218860000000 1.0
C      1  0.4775740000000  0.5273290000000  0.5184280000000 1.0
C      1  0.5205970000000  0.5295680000000  0.4898120000000 1.0
C      1  0.4789910000000  0.5036500000000  0.4718210000000 1.0
C      1  0.5227240000000  0.4712830000000  0.4831230000000 1.0
C      1  0.4796740000000  0.4701260000000  0.5103230000000 1.0
C      1  0.5208180000000  0.4976590000000  0.5289140000000 1.0
C      1  0.5341160000000  0.4944600000000  0.4199220000000 1.0
C      1  0.4646730000000  0.4262670000000  0.4622010000000 1.0
C      1  0.5323610000000  0.4256060000000  0.5472960000000 1.0
C      1  0.4675010000000  0.5052620000000  0.5820430000000 1.0
C      1  0.5335910000000  0.5764850000000  0.5385060000000 1.0
C      1  0.4676500000000  0.5727250000000  0.4517070000000 1.0
C      1  0.5936720000000  0.4919590000000  0.5170150000000 1.0
C      1  0.4082330000000  0.5104320000000  0.5246990000000 1.0
C      1  0.5932040000000  0.5282120000000  0.5029000000000 1.0
C      1  0.4076710000000  0.5100720000000  0.4739000000000 1.0
C      1  0.5920570000000  0.4849610000000  0.4784270000000 1.0
C      1  0.4081360000000  0.4805710000000  0.4994600000000 1.0
C      1  0.4938590000000  0.5173610000000  0.5909150000000 1.0
C      1  0.5075190000000  0.5893420000000  0.5319210000000 1.0
C      1  0.4944370000000  0.5706450000000  0.4372250000000 1.0
C      1  0.5078540000000  0.4830640000000  0.4097620000000 1.0
C      1  0.4899870000000  0.4111520000000  0.4682800000000 1.0
C      1  0.5065780000000  0.4289330000000  0.5626840000000 1.0
C      1  0.5165370000000  0.4270670000000  0.4631910000000 1.0
C      1  0.4816640000000  0.4345740000000  0.5442910000000 1.0
C      1  0.5193020000000  0.5060860000000  0.5768700000000 1.0
C      1  0.4820250000000  0.5724930000000  0.5372800000000 1.0
C      1  0.5187120000000  0.5650730000000  0.4561660000000 1.0
C      1  0.4823560000000  0.4941140000000  0.4235460000000 1.0
C      1  0.4266970000000  0.5513450000000  0.5496820000000 1.0
C      1  0.5730680000000  0.5696740000000  0.4815220000000 1.0
C      1  0.4275310000000  0.5165410000000  0.4271300000000 1.0
C      1  0.5720530000000  0.4464380000000  0.4513150000000 1.0
C      1  0.4227220000000  0.4322330000000  0.5177470000000 1.0
C      1  0.5742800000000  0.4829760000000  0.5654490000000 1.0
C      1  0.4823420000000  0.4406580000000  0.4182280000000 1.0
C      1  0.5137950000000  0.3977660000000  0.5100670000000 1.0
C      1  0.4840580000000  0.4606430000000  0.5931810000000 1.0
C      1  0.5176700000000  0.5606640000000  0.5824720000000 1.0
C      1  0.4831430000000  0.6001140000000  0.4902830000000 1.0
C      1  0.5190230000000  0.5391990000000  0.4076280000000 1.0
C      1  0.5718530000000  0.5256460000000  0.5460560000000 1.0
C      1  0.4274490000000  0.5501010000000  0.5020530000000 1.0
C      1  0.5722240000000  0.5279150000000  0.4582080000000 1.0
C      1  0.4293220000000  0.4772150000000  0.4529940000000 1.0
C      1  0.5728190000000  0.4462370000000  0.4996610000000 1.0
C      1  0.4290040000000  0.4709100000000  0.5441810000000 1.0
C      1  0.4459000000000  0.4595430000000  0.5654640000000 1.0
C      1  0.5546890000000  0.5369550000000  0.5669120000000 1.0
C      1  0.4458320000000  0.5735100000000  0.5008900000000 1.0
C      1  0.5559160000000  0.5393500000000  0.4365330000000 1.0
C      1  0.4446750000000  0.4638030000000  0.4320910000000 1.0
C      1  0.5524310000000  0.4230120000000  0.4991900000000 1.0
C      1  0.5535080000000  0.4649670000000  0.5717040000000 1.0
C      1  0.4472050000000  0.5489170000000  0.5694730000000 1.0
C      1  0.5533100000000  0.5863960000000  0.4930210000000 1.0
C      1  0.4486320000000  0.5350260000000  0.4232560000000 1.0
C      1  0.5522790000000  0.4505240000000  0.4317260000000 1.0
C      1  0.4438250000000  0.4164110000000  0.5058170000000 1.0
C      1  0.5152800000000  0.4430170000000  0.4894120000000 1.0
C      1  0.4882070000000  0.4634120000000  0.5370930000000 1.0
C      1  0.5128650000000  0.5165720000000  0.5493490000000 1.0
C      1  0.4839770000000  0.5559150000000  0.5114290000000 1.0
C      1  0.5121880000000  0.5364660000000  0.4631370000000 1.0
C      1  0.4877320000000  0.4842630000000  0.4517940000000 1.0
C      1  0.4661410000000  0.5803880000000  0.4805920000000 1.0
C      1  0.5399730000000  0.5234920000000  0.4171770000000 1.0
C      1  0.4608960000000  0.4395900000000  0.4360460000000 1.0
C      1  0.5319460000000  0.4168880000000  0.5190950000000 1.0
C      1  0.4624530000000  0.4758280000000  0.5842320000000 1.0
C      1  0.5384630000000  0.5615900000000  0.5639400000000 1.0
C      1  0.4144640000000  0.5002100000000  0.4463470000000 1.0
C      1  0.5838970000000  0.4564150000000  0.4748560000000 1.0
C      1  0.4149390000000  0.4594000000000  0.5220820000000 1.0
C      1  0.5844600000000  0.5001440000000  0.5454780000000 1.0
C      1  0.4155970000000  0.5397410000000  0.5259620000000 1.0
C      1  0.5832310000000  0.5432070000000  0.4797490000000 1.0
END
