TITL C-3577079-311-548 -3.04748011236085e-06 125000 -1149.98271700265 0 0 183 (C1) n - 1
REM
REM in /home/bkarasulu/work/CARBON/AIRSS/Generating-Clusters/EDIP-Nigel-Params/with-SteepDescent/Higher-Symm/SD-CG/HFTN-CG
REM
REM
REM
REM
REM
REM ./C.cell (12c818d87b63d06a65506943cc24bca4)
REM
REM compiler GCC version 9.2.1 20190827 (Red Hat 9.2.1-1)
REM options -cpp -mtune=generic -march=x86-64 -g -O0 -fpre-include=/usr/include/finclude/math-vector-fortran.h
REM seed 999012535 500849592 600938106 2013934803 -1731119342 -391342393 -991327368 -814153355 -661912824 -1127041386 -145421003 923661700 -1765947524 1169891252 1475533081 -1320304186 -1284639889 106234759 -1896181916 419277863 -360311506 -11482800 225907219 1618385666 -738722656 1596603574 -1663853033 55921186 830946426 51159947 965658992 1231506077 461476591
REM
CELL 1.54180   50.00000   50.00000   50.00000   90.00000   90.00000   90.00000
LATT -1
SFAC C  
C      1  0.6160190000000  0.5217870000000  0.5116280000000 1.0
C      1  0.5532660000000  0.6090440000000  0.5098710000000 1.0
C      1  0.4529680000000  0.6100280000000  0.5114460000000 1.0
C      1  0.3759620000000  0.5273040000000  0.5121930000000 1.0
C      1  0.4032720000000  0.4292490000000  0.5100210000000 1.0
C      1  0.5013310000000  0.3819440000000  0.5092500000000 1.0
C      1  0.5935740000000  0.4252630000000  0.5135340000000 1.0
C      1  0.4786140000000  0.3784760000000  0.4916840000000 1.0
C      1  0.5719160000000  0.4120860000000  0.4973460000000 1.0
C      1  0.6258860000000  0.5019160000000  0.4934170000000 1.0
C      1  0.5734020000000  0.5928590000000  0.4940020000000 1.0
C      1  0.4763100000000  0.6155130000000  0.4925840000000 1.0
C      1  0.3759970000000  0.5498810000000  0.4940800000000 1.0
C      1  0.3943220000000  0.4499330000000  0.4919930000000 1.0
C      1  0.5312380000000  0.4576510000000  0.4711290000000 1.0
C      1  0.5647500000000  0.4937430000000  0.4603600000000 1.0
C      1  0.5443450000000  0.5390740000000  0.4662670000000 1.0
C      1  0.4968900000000  0.5540870000000  0.4691980000000 1.0
C      1  0.4513900000000  0.5308400000000  0.4725630000000 1.0
C      1  0.4461920000000  0.4805800000000  0.4705530000000 1.0
C      1  0.4823040000000  0.4463250000000  0.4765550000000 1.0
C      1  0.4610680000000  0.5012060000000  0.4015700000000 1.0
C      1  0.4730430000000  0.4783520000000  0.3903520000000 1.0
C      1  0.4988320000000  0.4685300000000  0.3951730000000 1.0
C      1  0.5184920000000  0.4849300000000  0.3835130000000 1.0
C      1  0.5235100000000  0.5106720000000  0.3935570000000 1.0
C      1  0.5013290000000  0.5271900000000  0.3904320000000 1.0
C      1  0.4737970000000  0.5259650000000  0.3923950000000 1.0
C      1  0.5313790000000  0.4075700000000  0.4459270000000 1.0
C      1  0.5941160000000  0.4631880000000  0.4479020000000 1.0
C      1  0.5879000000000  0.5501000000000  0.4474480000000 1.0
C      1  0.5157910000000  0.5941970000000  0.4469220000000 1.0
C      1  0.4316810000000  0.5704220000000  0.4509220000000 1.0
C      1  0.4011090000000  0.4923600000000  0.4513810000000 1.0
C      1  0.4460620000000  0.4188360000000  0.4476760000000 1.0
C      1  0.4410320000000  0.5919020000000  0.4686000000000 1.0
C      1  0.3847540000000  0.5101290000000  0.4690360000000 1.0
C      1  0.4251970000000  0.4233590000000  0.4679400000000 1.0
C      1  0.5148790000000  0.4011630000000  0.4690810000000 1.0
C      1  0.5982160000000  0.4412190000000  0.4675530000000 1.0
C      1  0.5991240000000  0.5346340000000  0.4700270000000 1.0
C      1  0.5364270000000  0.6049510000000  0.4660280000000 1.0
C      1  0.5882900000000  0.4439660000000  0.5591810000000 1.0
C      1  0.6047070000000  0.5245550000000  0.5593930000000 1.0
C      1  0.5413680000000  0.5949900000000  0.5549200000000 1.0
C      1  0.4445520000000  0.5860610000000  0.5556190000000 1.0
C      1  0.3965020000000  0.5131060000000  0.5554690000000 1.0
C      1  0.4251620000000  0.4235290000000  0.5551470000000 1.0
C      1  0.5127650000000  0.3932660000000  0.5561350000000 1.0
C      1  0.5308370000000  0.4792600000000  0.4287820000000 1.0
C      1  0.5322130000000  0.5081380000000  0.4223830000000 1.0
C      1  0.5104820000000  0.5219720000000  0.4384570000000 1.0
C      1  0.4819410000000  0.5279630000000  0.4301650000000 1.0
C      1  0.4663770000000  0.5018490000000  0.4312420000000 1.0
C      1  0.4812060000000  0.4765530000000  0.4396890000000 1.0
C      1  0.5048360000000  0.4643020000000  0.4248950000000 1.0
C      1  0.4940050000000  0.3948500000000  0.5348220000000 1.0
C      1  0.5765860000000  0.4360840000000  0.5347290000000 1.0
C      1  0.6018190000000  0.5107630000000  0.5349550000000 1.0
C      1  0.5399480000000  0.5900950000000  0.5271330000000 1.0
C      1  0.4611080000000  0.6021350000000  0.5394260000000 1.0
C      1  0.3987750000000  0.5290490000000  0.5321430000000 1.0
C      1  0.4097890000000  0.4394840000000  0.5369990000000 1.0
C      1  0.4597690000000  0.4434370000000  0.5310960000000 1.0
C      1  0.5181170000000  0.4357510000000  0.5328610000000 1.0
C      1  0.5584730000000  0.4815890000000  0.5389960000000 1.0
C      1  0.5606890000000  0.5372780000000  0.5299240000000 1.0
C      1  0.4886940000000  0.5918520000000  0.5373390000000 1.0
C      1  0.4531490000000  0.5471800000000  0.5292520000000 1.0
C      1  0.4158630000000  0.4694550000000  0.5359930000000 1.0
C      1  0.5306840000000  0.4861050000000  0.5321310000000 1.0
C      1  0.5279540000000  0.5403160000000  0.5218750000000 1.0
C      1  0.4980070000000  0.5405000000000  0.5300810000000 1.0
C      1  0.4727460000000  0.5240200000000  0.5220050000000 1.0
C      1  0.4692570000000  0.4974530000000  0.5370810000000 1.0
C      1  0.4880050000000  0.4748460000000  0.5255720000000 1.0
C      1  0.5105890000000  0.4658510000000  0.5410560000000 1.0
C      1  0.5076550000000  0.4427660000000  0.4570500000000 1.0
C      1  0.5505760000000  0.4697010000000  0.4489420000000 1.0
C      1  0.5569650000000  0.5183330000000  0.4446490000000 1.0
C      1  0.5207760000000  0.5489790000000  0.4497760000000 1.0
C      1  0.4698220000000  0.5483130000000  0.4521670000000 1.0
C      1  0.4432880000000  0.5063020000000  0.4517570000000 1.0
C      1  0.4624980000000  0.4588160000000  0.4553430000000 1.0
C      1  0.5580550000000  0.4197870000000  0.4464480000000 1.0
C      1  0.6068720000000  0.4909100000000  0.4465670000000 1.0
C      1  0.5674090000000  0.5718120000000  0.4477950000000 1.0
C      1  0.4861790000000  0.5964610000000  0.4458000000000 1.0
C      1  0.4063340000000  0.5541840000000  0.4507600000000 1.0
C      1  0.4060260000000  0.4636760000000  0.4459080000000 1.0
C      1  0.4704650000000  0.4016660000000  0.4458030000000 1.0
C      1  0.5823720000000  0.4834990000000  0.5858430000000 1.0
C      1  0.5636250000000  0.5503610000000  0.5656880000000 1.0
C      1  0.4968450000000  0.5784510000000  0.5631940000000 1.0
C      1  0.4353380000000  0.5432700000000  0.5740530000000 1.0
C      1  0.4214130000000  0.4728840000000  0.5731850000000 1.0
C      1  0.4715120000000  0.4219970000000  0.5725140000000 1.0
C      1  0.5419960000000  0.4268270000000  0.5761370000000 1.0
C      1  0.5784730000000  0.5269710000000  0.5690330000000 1.0
C      1  0.5250260000000  0.5754500000000  0.5662500000000 1.0
C      1  0.4529860000000  0.5583440000000  0.5579470000000 1.0
C      1  0.4186360000000  0.5004090000000  0.5673180000000 1.0
C      1  0.4508410000000  0.4365690000000  0.5591540000000 1.0
C      1  0.5184560000000  0.4214810000000  0.5609570000000 1.0
C      1  0.5696520000000  0.4646370000000  0.5680210000000 1.0
C      1  0.4668910000000  0.4895180000000  0.4894860000000 1.0
C      1  0.4892400000000  0.4715180000000  0.4949340000000 1.0
C      1  0.5156720000000  0.4819500000000  0.4821900000000 1.0
C      1  0.5346740000000  0.4953240000000  0.5022320000000 1.0
C      1  0.5267150000000  0.5237640000000  0.4974600000000 1.0
C      1  0.4995480000000  0.5255420000000  0.4825900000000 1.0
C      1  0.4720520000000  0.5179420000000  0.4922700000000 1.0
C      1  0.4925370000000  0.4670510000000  0.6237060000000 1.0
C      1  0.5187690000000  0.4749480000000  0.6188450000000 1.0
C      1  0.5240710000000  0.4999800000000  0.6303230000000 1.0
C      1  0.5107760000000  0.5233140000000  0.6262480000000 1.0
C      1  0.4871690000000  0.5268120000000  0.6115070000000 1.0
C      1  0.4683830000000  0.5076080000000  0.6188750000000 1.0
C      1  0.4718440000000  0.4810040000000  0.6113630000000 1.0
C      1  0.5987370000000  0.5078030000000  0.4254900000000 1.0
C      1  0.5535370000000  0.5750060000000  0.4236870000000 1.0
C      1  0.4721200000000  0.5830990000000  0.4258700000000 1.0
C      1  0.4081080000000  0.5347620000000  0.4309670000000 1.0
C      1  0.4227100000000  0.4556860000000  0.4251000000000 1.0
C      1  0.4873340000000  0.4087460000000  0.4245260000000 1.0
C      1  0.5685530000000  0.4286420000000  0.4221870000000 1.0
C      1  0.4501990000000  0.4148790000000  0.5081020000000 1.0
C      1  0.5420490000000  0.4162920000000  0.5093580000000 1.0
C      1  0.5823000000000  0.4714190000000  0.5026100000000 1.0
C      1  0.5763890000000  0.5567540000000  0.5090180000000 1.0
C      1  0.5022070000000  0.6054950000000  0.5040210000000 1.0
C      1  0.4287350000000  0.5656000000000  0.5070470000000 1.0
C      1  0.4082440000000  0.4929700000000  0.5084110000000 1.0
C      1  0.4220220000000  0.5197890000000  0.5147020000000 1.0
C      1  0.4447960000000  0.4704030000000  0.5226320000000 1.0
C      1  0.4912420000000  0.4228120000000  0.5233910000000 1.0
C      1  0.5629550000000  0.4580250000000  0.5191530000000 1.0
C      1  0.5731440000000  0.5080510000000  0.5263130000000 1.0
C      1  0.5304320000000  0.5674290000000  0.5083930000000 1.0
C      1  0.4853500000000  0.5665530000000  0.5194300000000 1.0
C      1  0.4178300000000  0.5088730000000  0.4348010000000 1.0
C      1  0.4449550000000  0.4394730000000  0.4278520000000 1.0
C      1  0.5113250000000  0.4224170000000  0.4300320000000 1.0
C      1  0.5763880000000  0.4548840000000  0.4262990000000 1.0
C      1  0.5804230000000  0.5289870000000  0.4281620000000 1.0
C      1  0.5264360000000  0.5722070000000  0.4304250000000 1.0
C      1  0.4484500000000  0.5688970000000  0.4278030000000 1.0
C      1  0.5648060000000  0.5954710000000  0.4651570000000 1.0
C      1  0.4685560000000  0.6020850000000  0.4680000000000 1.0
C      1  0.3904240000000  0.5393610000000  0.4719910000000 1.0
C      1  0.4047910000000  0.4439120000000  0.4665160000000 1.0
C      1  0.4875790000000  0.3906430000000  0.4675940000000 1.0
C      1  0.5765910000000  0.4207880000000  0.4691000000000 1.0
C      1  0.6135020000000  0.5091300000000  0.4690920000000 1.0
C      1  0.4690870000000  0.5050040000000  0.5682980000000 1.0
C      1  0.4720540000000  0.4776930000000  0.5819840000000 1.0
C      1  0.5004430000000  0.4640060000000  0.5725790000000 1.0
C      1  0.5257660000000  0.4736580000000  0.5895770000000 1.0
C      1  0.5367530000000  0.5017060000000  0.5818200000000 1.0
C      1  0.5207040000000  0.5257740000000  0.5763510000000 1.0
C      1  0.4904840000000  0.5285890000000  0.5814510000000 1.0
C      1  0.4965090000000  0.4341260000000  0.5759600000000 1.0
C      1  0.5472720000000  0.4532010000000  0.5831400000000 1.0
C      1  0.5657730000000  0.5059500000000  0.5833210000000 1.0
C      1  0.5362460000000  0.5501780000000  0.5728780000000 1.0
C      1  0.4801030000000  0.5558230000000  0.5706980000000 1.0
C      1  0.4412700000000  0.5161180000000  0.5740310000000 1.0
C      1  0.4476590000000  0.4613440000000  0.5746720000000 1.0
C      1  0.4266160000000  0.4709140000000  0.4937020000000 1.0
C      1  0.4761690000000  0.4225520000000  0.4960070000000 1.0
C      1  0.5423850000000  0.4452960000000  0.4984250000000 1.0
C      1  0.5658620000000  0.4953620000000  0.4912690000000 1.0
C      1  0.5527540000000  0.5609180000000  0.4883800000000 1.0
C      1  0.5033210000000  0.5747750000000  0.4963640000000 1.0
C      1  0.4290470000000  0.5395240000000  0.4934130000000 1.0
C      1  0.5295030000000  0.6161040000000  0.4925200000000 1.0
C      1  0.4328110000000  0.5924170000000  0.4965620000000 1.0
C      1  0.3804650000000  0.5008700000000  0.4968800000000 1.0
C      1  0.4246610000000  0.4136750000000  0.4953520000000 1.0
C      1  0.5244710000000  0.3956780000000  0.4954410000000 1.0
C      1  0.6027600000000  0.4493810000000  0.4957760000000 1.0
C      1  0.6002820000000  0.5429970000000  0.4972700000000 1.0
C      1  0.5062990000000  0.5047090000000  0.4627120000000 1.0
END
