TITL C-3578207-9274-547 -2.36491495859108e-06 125000 -1124.60076669665 0 0 182 (C1) n - 1
REM
REM in /home/bkarasulu/work/CARBON/AIRSS/Generating-Clusters/EDIP-Nigel-Params/with-SteepDescent/Higher-Symm/SD-CG/HFTN-CG
REM
REM
REM
REM
REM
REM ./C.cell (12c818d87b63d06a65506943cc24bca4)
REM
REM compiler GCC version 9.2.1 20190827 (Red Hat 9.2.1-1)
REM options -cpp -mtune=generic -march=x86-64 -g -O0 -fpre-include=/usr/include/finclude/math-vector-fortran.h
REM seed -1762108640 669277381 -1505989962 1426643639 1997760935 -150601895 644106914 1678183486 330170716 -1922238237 -1401180858 501094301 -207489619 -1680982400 1930326252 1906830965 -1343082567 694256115 -497457619 -1024452162 558959599 729902602 1830005923 -486815281 -1778182819 889878114 -315872560 537760776 -1338386803 1467431048 1247489456 -1909099775 687711035
REM
CELL 1.54180   50.00000   50.00000   50.00000   90.00000   90.00000   90.00000
LATT -1
SFAC C  
C      1  0.4083840000000  0.4665720000000  0.5497460000000 1.0
C      1  0.4891920000000  0.4646880000000  0.6013310000000 1.0
C      1  0.5709540000000  0.4641730000000  0.5762420000000 1.0
C      1  0.6054000000000  0.4631840000000  0.4875540000000 1.0
C      1  0.5569140000000  0.4626090000000  0.4148190000000 1.0
C      1  0.4705350000000  0.4652180000000  0.4035240000000 1.0
C      1  0.4064120000000  0.4678680000000  0.4650750000000 1.0
C      1  0.4848050000000  0.5257970000000  0.4836240000000 1.0
C      1  0.4750930000000  0.5080400000000  0.5054330000000 1.0
C      1  0.4759520000000  0.5237370000000  0.5316090000000 1.0
C      1  0.5043120000000  0.5253750000000  0.5421670000000 1.0
C      1  0.5256390000000  0.5237930000000  0.5200750000000 1.0
C      1  0.5350500000000  0.5232090000000  0.4915540000000 1.0
C      1  0.5123870000000  0.5239360000000  0.4711360000000 1.0
C      1  0.4260020000000  0.4455200000000  0.4260980000000 1.0
C      1  0.3926390000000  0.4442820000000  0.5107080000000 1.0
C      1  0.4434110000000  0.4504710000000  0.5892880000000 1.0
C      1  0.5353130000000  0.4422840000000  0.5997390000000 1.0
C      1  0.6009780000000  0.4497260000000  0.5350430000000 1.0
C      1  0.5914500000000  0.4393240000000  0.4394810000000 1.0
C      1  0.5123170000000  0.4415680000000  0.3928370000000 1.0
C      1  0.4901490000000  0.4930160000000  0.6093420000000 1.0
C      1  0.5822340000000  0.4918600000000  0.5803420000000 1.0
C      1  0.6113580000000  0.4922810000000  0.4850000000000 1.0
C      1  0.5561060000000  0.4914790000000  0.4068660000000 1.0
C      1  0.4621440000000  0.4933660000000  0.3995310000000 1.0
C      1  0.3956760000000  0.4957910000000  0.4662570000000 1.0
C      1  0.4022810000000  0.4941980000000  0.5607420000000 1.0
C      1  0.4474550000000  0.5820700000000  0.5680720000000 1.0
C      1  0.5104830000000  0.5841570000000  0.5872960000000 1.0
C      1  0.5628220000000  0.5811270000000  0.5314950000000 1.0
C      1  0.5695180000000  0.5827100000000  0.4686900000000 1.0
C      1  0.5167110000000  0.5833450000000  0.4280330000000 1.0
C      1  0.4576340000000  0.5823380000000  0.4308690000000 1.0
C      1  0.4261230000000  0.5852210000000  0.4964380000000 1.0
C      1  0.5259330000000  0.5359630000000  0.4012130000000 1.0
C      1  0.4367130000000  0.5373290000000  0.4148620000000 1.0
C      1  0.3977270000000  0.5407020000000  0.4958570000000 1.0
C      1  0.4313750000000  0.5369010000000  0.5792110000000 1.0
C      1  0.5198360000000  0.5355290000000  0.5995670000000 1.0
C      1  0.5929200000000  0.5377810000000  0.5490390000000 1.0
C      1  0.5910780000000  0.5339990000000  0.4607960000000 1.0
C      1  0.4705370000000  0.5843560000000  0.5837760000000 1.0
C      1  0.5382080000000  0.5843010000000  0.5831060000000 1.0
C      1  0.5875230000000  0.5825780000000  0.5187670000000 1.0
C      1  0.5700730000000  0.5822220000000  0.4409700000000 1.0
C      1  0.4918230000000  0.5857950000000  0.4131460000000 1.0
C      1  0.4315200000000  0.5848200000000  0.4397560000000 1.0
C      1  0.4145240000000  0.5856530000000  0.5217180000000 1.0
C      1  0.4627900000000  0.5124640000000  0.4474860000000 1.0
C      1  0.4455310000000  0.5013480000000  0.5024410000000 1.0
C      1  0.4457390000000  0.5007730000000  0.5529870000000 1.0
C      1  0.5051060000000  0.5028250000000  0.5640200000000 1.0
C      1  0.5661450000000  0.4983830000000  0.5381280000000 1.0
C      1  0.5547470000000  0.4997470000000  0.4849430000000 1.0
C      1  0.5149690000000  0.5012200000000  0.4495590000000 1.0
C      1  0.5654590000000  0.5059850000000  0.4313540000000 1.0
C      1  0.4873040000000  0.5097360000000  0.3968670000000 1.0
C      1  0.4144090000000  0.5135370000000  0.4509550000000 1.0
C      1  0.4038900000000  0.5122670000000  0.5348410000000 1.0
C      1  0.4654730000000  0.5074080000000  0.5981750000000 1.0
C      1  0.5565730000000  0.5092560000000  0.5841590000000 1.0
C      1  0.6039110000000  0.5075150000000  0.5108340000000 1.0
C      1  0.5971000000000  0.5602220000000  0.5048000000000 1.0
C      1  0.5618320000000  0.5587370000000  0.4282320000000 1.0
C      1  0.4807060000000  0.5617680000000  0.3990070000000 1.0
C      1  0.4142880000000  0.5656360000000  0.4510440000000 1.0
C      1  0.4118130000000  0.5640410000000  0.5391790000000 1.0
C      1  0.4758420000000  0.5569100000000  0.5908300000000 1.0
C      1  0.5554340000000  0.5621310000000  0.5779820000000 1.0
C      1  0.5193940000000  0.5466600000000  0.4524830000000 1.0
C      1  0.4771500000000  0.5399370000000  0.4423540000000 1.0
C      1  0.4440900000000  0.5441490000000  0.4800170000000 1.0
C      1  0.4583440000000  0.5482320000000  0.5347930000000 1.0
C      1  0.5080740000000  0.5520480000000  0.5531400000000 1.0
C      1  0.5464960000000  0.5377690000000  0.5362390000000 1.0
C      1  0.5511700000000  0.5478550000000  0.4886460000000 1.0
C      1  0.4263050000000  0.5057530000000  0.5745140000000 1.0
C      1  0.5123830000000  0.5062550000000  0.5942740000000 1.0
C      1  0.5902800000000  0.5049770000000  0.5542460000000 1.0
C      1  0.5894670000000  0.5043900000000  0.4688480000000 1.0
C      1  0.5311670000000  0.5059740000000  0.4029470000000 1.0
C      1  0.4467720000000  0.5084360000000  0.4205640000000 1.0
C      1  0.3956510000000  0.5104980000000  0.4910960000000 1.0
C      1  0.4695960000000  0.4639350000000  0.5032930000000 1.0
C      1  0.4862870000000  0.4564740000000  0.5287790000000 1.0
C      1  0.5145970000000  0.4661300000000  0.5294470000000 1.0
C      1  0.5317730000000  0.4620220000000  0.5065700000000 1.0
C      1  0.5273230000000  0.4668690000000  0.4782870000000 1.0
C      1  0.5023360000000  0.4621760000000  0.4641070000000 1.0
C      1  0.4764920000000  0.4678350000000  0.4752070000000 1.0
C      1  0.3970620000000  0.5415640000000  0.5262000000000 1.0
C      1  0.4555650000000  0.5363700000000  0.5967180000000 1.0
C      1  0.5490070000000  0.5379360000000  0.5941520000000 1.0
C      1  0.6060830000000  0.5374860000000  0.5218650000000 1.0
C      1  0.5769420000000  0.5344280000000  0.4347550000000 1.0
C      1  0.4983410000000  0.5391080000000  0.3896240000000 1.0
C      1  0.4135920000000  0.5405640000000  0.4347100000000 1.0
C      1  0.4206860000000  0.4340840000000  0.4748160000000 1.0
C      1  0.4289780000000  0.4357700000000  0.5462740000000 1.0
C      1  0.4925040000000  0.4304710000000  0.5843070000000 1.0
C      1  0.5617110000000  0.4326820000000  0.5572880000000 1.0
C      1  0.5860550000000  0.4304020000000  0.4858850000000 1.0
C      1  0.5461390000000  0.4271700000000  0.4246620000000 1.0
C      1  0.4722500000000  0.4331060000000  0.4233650000000 1.0
C      1  0.5342510000000  0.4219520000000  0.5570940000000 1.0
C      1  0.5699910000000  0.4209630000000  0.5082750000000 1.0
C      1  0.5526650000000  0.4152140000000  0.4508130000000 1.0
C      1  0.4970680000000  0.4210960000000  0.4330600000000 1.0
C      1  0.4446530000000  0.4231050000000  0.4633920000000 1.0
C      1  0.4350590000000  0.4227810000000  0.5210920000000 1.0
C      1  0.4748800000000  0.4231620000000  0.5625240000000 1.0
C      1  0.5717890000000  0.4613700000000  0.4409890000000 1.0
C      1  0.5003480000000  0.4652010000000  0.4054850000000 1.0
C      1  0.4282040000000  0.4684250000000  0.4444540000000 1.0
C      1  0.4067840000000  0.4680540000000  0.5198860000000 1.0
C      1  0.4672830000000  0.4663460000000  0.5814860000000 1.0
C      1  0.5415270000000  0.4651650000000  0.5821220000000 1.0
C      1  0.5896360000000  0.4654330000000  0.5126880000000 1.0
C      1  0.5205960000000  0.4258700000000  0.5826210000000 1.0
C      1  0.5802240000000  0.4288310000000  0.5355600000000 1.0
C      1  0.5808060000000  0.4215930000000  0.4586730000000 1.0
C      1  0.5192240000000  0.4257980000000  0.4149450000000 1.0
C      1  0.4466690000000  0.4288380000000  0.4351970000000 1.0
C      1  0.4139860000000  0.4283960000000  0.5016510000000 1.0
C      1  0.4459870000000  0.4298220000000  0.5686470000000 1.0
C      1  0.5268180000000  0.4658100000000  0.5555040000000 1.0
C      1  0.5596320000000  0.4642850000000  0.5107110000000 1.0
C      1  0.5504450000000  0.4571880000000  0.4633990000000 1.0
C      1  0.5061770000000  0.4671880000000  0.4354180000000 1.0
C      1  0.4547190000000  0.4704130000000  0.4573860000000 1.0
C      1  0.4415140000000  0.4720980000000  0.5057950000000 1.0
C      1  0.4735590000000  0.4665240000000  0.5525060000000 1.0
C      1  0.4692360000000  0.4161400000000  0.4797070000000 1.0
C      1  0.4639490000000  0.4138600000000  0.5134640000000 1.0
C      1  0.4859600000000  0.4260470000000  0.5335880000000 1.0
C      1  0.5177520000000  0.4149040000000  0.5321390000000 1.0
C      1  0.5405100000000  0.4140060000000  0.5021500000000 1.0
C      1  0.5326900000000  0.4240740000000  0.4724080000000 1.0
C      1  0.5024520000000  0.4151580000000  0.4625620000000 1.0
C      1  0.4961010000000  0.5996850000000  0.5321640000000 1.0
C      1  0.5192270000000  0.6098370000000  0.5159470000000 1.0
C      1  0.5100750000000  0.6209620000000  0.4920650000000 1.0
C      1  0.4906190000000  0.6169180000000  0.4740610000000 1.0
C      1  0.4700480000000  0.5982760000000  0.4703790000000 1.0
C      1  0.4540480000000  0.5961420000000  0.4954610000000 1.0
C      1  0.4690410000000  0.6027650000000  0.5199560000000 1.0
C      1  0.4825670000000  0.5714970000000  0.4649360000000 1.0
C      1  0.4722200000000  0.5523920000000  0.4867610000000 1.0
C      1  0.4752720000000  0.5642210000000  0.5163350000000 1.0
C      1  0.5045870000000  0.5701760000000  0.5286460000000 1.0
C      1  0.5366640000000  0.5844300000000  0.5135450000000 1.0
C      1  0.5408490000000  0.5759460000000  0.4828840000000 1.0
C      1  0.5131720000000  0.5746070000000  0.4596500000000 1.0
C      1  0.4718920000000  0.3849820000000  0.4805900000000 1.0
C      1  0.4691390000000  0.3834200000000  0.5107510000000 1.0
C      1  0.4921700000000  0.3739540000000  0.5233350000000 1.0
C      1  0.5172690000000  0.3849450000000  0.5284370000000 1.0
C      1  0.5342570000000  0.3843350000000  0.5047510000000 1.0
C      1  0.5195030000000  0.3735650000000  0.4837200000000 1.0
C      1  0.4992340000000  0.3854010000000  0.4685520000000 1.0
C      1  0.4231970000000  0.4937160000000  0.4299480000000 1.0
C      1  0.3918300000000  0.4941480000000  0.5145400000000 1.0
C      1  0.4398060000000  0.4883940000000  0.5963980000000 1.0
C      1  0.5375860000000  0.4908110000000  0.5975290000000 1.0
C      1  0.6091360000000  0.4877610000000  0.5362090000000 1.0
C      1  0.5867570000000  0.4881300000000  0.4432300000000 1.0
C      1  0.5094060000000  0.4904450000000  0.3916270000000 1.0
C      1  0.4336880000000  0.5119550000000  0.5287010000000 1.0
C      1  0.4721730000000  0.5078170000000  0.5673410000000 1.0
C      1  0.5428760000000  0.5064650000000  0.5564790000000 1.0
C      1  0.5733830000000  0.5063730000000  0.5103190000000 1.0
C      1  0.5452450000000  0.4991240000000  0.4535740000000 1.0
C      1  0.4965880000000  0.5179680000000  0.4281860000000 1.0
C      1  0.4406360000000  0.5164630000000  0.4701540000000 1.0
C      1  0.5043820000000  0.5554760000000  0.5830570000000 1.0
C      1  0.5658000000000  0.5560130000000  0.5494560000000 1.0
C      1  0.5800870000000  0.5547980000000  0.4803970000000 1.0
C      1  0.5323800000000  0.5549290000000  0.4245820000000 1.0
C      1  0.4612930000000  0.5544660000000  0.4211990000000 1.0
C      1  0.4191120000000  0.5599390000000  0.4808530000000 1.0
C      1  0.4368970000000  0.5575610000000  0.5557660000000 1.0
END
