TITL C-3578195-8548-516 -1.59883774488088e-06 125000 -1018.30266867199 0 0 162 (C1) n - 1
REM
REM in /home/bkarasulu/work/CARBON/AIRSS/Generating-Clusters/EDIP-Nigel-Params/with-SteepDescent/Higher-Symm/SD-CG/HFTN-CG
REM
REM
REM
REM
REM
REM ./C.cell (12c818d87b63d06a65506943cc24bca4)
REM
REM compiler GCC version 9.2.1 20190827 (Red Hat 9.2.1-1)
REM options -cpp -mtune=generic -march=x86-64 -g -O0 -fpre-include=/usr/include/finclude/math-vector-fortran.h
REM seed -1264630535 -590694852 1957906195 1416832390 -1571644387 -271813027 93929216 1173918190 -887571647 -130112293 1930982122 1000328370 -1752095689 1605261539 1913180696 -1839877675 -634746906 546452816 -1807790806 185085508 -221710508 1655434207 744548077 1108876586 888983938 -417616805 1466679389 490048288 -177062536 1902929488 1587557182 398519374 1059926238
REM
CELL 1.54180   50.00000   50.00000   50.00000   90.00000   90.00000   90.00000
LATT -1
SFAC C  
C      1  0.5551030000000  0.5788100000000  0.5488650000000 1.0
C      1  0.4454540000000  0.4214760000000  0.4513090000000 1.0
C      1  0.5530690000000  0.4390400000000  0.4879680000000 1.0
C      1  0.4463990000000  0.5608830000000  0.5118980000000 1.0
C      1  0.5116650000000  0.4985090000000  0.4376380000000 1.0
C      1  0.4879960000000  0.5020730000000  0.5626250000000 1.0
C      1  0.4255320000000  0.5267840000000  0.4833290000000 1.0
C      1  0.5743720000000  0.4731730000000  0.5164550000000 1.0
C      1  0.5315450000000  0.4254380000000  0.4289330000000 1.0
C      1  0.4682430000000  0.5748110000000  0.5710840000000 1.0
C      1  0.5384520000000  0.4670150000000  0.4803350000000 1.0
C      1  0.4614430000000  0.5331570000000  0.5195790000000 1.0
C      1  0.5272610000000  0.4096510000000  0.5486050000000 1.0
C      1  0.4720870000000  0.5891990000000  0.4514330000000 1.0
C      1  0.5008400000000  0.5671230000000  0.5269310000000 1.0
C      1  0.4996240000000  0.4329010000000  0.4738110000000 1.0
C      1  0.4664530000000  0.5816660000000  0.5005320000000 1.0
C      1  0.5329110000000  0.4179640000000  0.4990240000000 1.0
C      1  0.5413910000000  0.5390760000000  0.4373180000000 1.0
C      1  0.4597210000000  0.4599550000000  0.5626250000000 1.0
C      1  0.5900620000000  0.5139310000000  0.5392340000000 1.0
C      1  0.4103200000000  0.4862080000000  0.4607000000000 1.0
C      1  0.4563110000000  0.5961190000000  0.4752760000000 1.0
C      1  0.5428880000000  0.4032900000000  0.5244300000000 1.0
C      1  0.3930520000000  0.5309080000000  0.4674730000000 1.0
C      1  0.6069050000000  0.4690070000000  0.5318510000000 1.0
C      1  0.4377320000000  0.5130020000000  0.5097730000000 1.0
C      1  0.5623200000000  0.4870210000000  0.4900110000000 1.0
C      1  0.4783750000000  0.5025540000000  0.5920490000000 1.0
C      1  0.5208770000000  0.4977900000000  0.4081120000000 1.0
C      1  0.4832890000000  0.4233940000000  0.5677740000000 1.0
C      1  0.5158390000000  0.5743190000000  0.4335830000000 1.0
C      1  0.4691340000000  0.4802470000000  0.4010930000000 1.0
C      1  0.5313790000000  0.5199960000000  0.5994550000000 1.0
C      1  0.4535620000000  0.4216750000000  0.5582450000000 1.0
C      1  0.5458740000000  0.5775050000000  0.4418120000000 1.0
C      1  0.4710540000000  0.5994290000000  0.5274560000000 1.0
C      1  0.5289490000000  0.4002420000000  0.4721140000000 1.0
C      1  0.4529530000000  0.4084530000000  0.5313010000000 1.0
C      1  0.5466340000000  0.5912760000000  0.4684940000000 1.0
C      1  0.5981240000000  0.4446300000000  0.5456670000000 1.0
C      1  0.4018120000000  0.5552710000000  0.4537480000000 1.0
C      1  0.4526180000000  0.5887530000000  0.5494810000000 1.0
C      1  0.5473870000000  0.4112750000000  0.4502350000000 1.0
C      1  0.4806700000000  0.5083160000000  0.3952150000000 1.0
C      1  0.5191180000000  0.4911120000000  0.6026310000000 1.0
C      1  0.5014210000000  0.4069750000000  0.4606790000000 1.0
C      1  0.4985680000000  0.5931600000000  0.5394390000000 1.0
C      1  0.4286300000000  0.4380120000000  0.5632090000000 1.0
C      1  0.5715320000000  0.5621370000000  0.4369010000000 1.0
C      1  0.5614870000000  0.4863220000000  0.5840540000000 1.0
C      1  0.4385360000000  0.5135720000000  0.4154250000000 1.0
C      1  0.4021790000000  0.5110370000000  0.4488740000000 1.0
C      1  0.5981430000000  0.4888870000000  0.5507390000000 1.0
C      1  0.5391880000000  0.5548500000000  0.4999530000000 1.0
C      1  0.4612010000000  0.4452580000000  0.5003990000000 1.0
C      1  0.4908060000000  0.4581550000000  0.4049640000000 1.0
C      1  0.5091660000000  0.5420620000000  0.5955020000000 1.0
C      1  0.4852810000000  0.4401030000000  0.4283900000000 1.0
C      1  0.5146990000000  0.5601670000000  0.5721390000000 1.0
C      1  0.3903860000000  0.4911860000000  0.5085160000000 1.0
C      1  0.6096860000000  0.5089070000000  0.4913240000000 1.0
C      1  0.4348870000000  0.5029270000000  0.5680080000000 1.0
C      1  0.5650150000000  0.4971380000000  0.4318470000000 1.0
C      1  0.5102680000000  0.5461910000000  0.5451470000000 1.0
C      1  0.4899580000000  0.4538880000000  0.4555460000000 1.0
C      1  0.5668940000000  0.4292340000000  0.4637370000000 1.0
C      1  0.4329240000000  0.5708330000000  0.5362370000000 1.0
C      1  0.5385740000000  0.4701270000000  0.5950550000000 1.0
C      1  0.4614300000000  0.5291060000000  0.4037940000000 1.0
C      1  0.4882600000000  0.4300740000000  0.5010840000000 1.0
C      1  0.5122460000000  0.5698670000000  0.4998200000000 1.0
C      1  0.5231630000000  0.6055490000000  0.5234150000000 1.0
C      1  0.4770460000000  0.3946650000000  0.4768120000000 1.0
C      1  0.5267480000000  0.5173440000000  0.4814440000000 1.0
C      1  0.4732650000000  0.4830800000000  0.5185860000000 1.0
C      1  0.4208140000000  0.5466250000000  0.5492910000000 1.0
C      1  0.5790580000000  0.4534400000000  0.4507050000000 1.0
C      1  0.4014180000000  0.5019300000000  0.5316370000000 1.0
C      1  0.5986840000000  0.4980790000000  0.4682130000000 1.0
C      1  0.4241270000000  0.4399890000000  0.4470970000000 1.0
C      1  0.5764610000000  0.5602320000000  0.5530630000000 1.0
C      1  0.4966900000000  0.5841360000000  0.5692240000000 1.0
C      1  0.5031240000000  0.4160860000000  0.4309460000000 1.0
C      1  0.4852810000000  0.5335370000000  0.5022110000000 1.0
C      1  0.5147660000000  0.4670810000000  0.4978520000000 1.0
C      1  0.4801900000000  0.5327800000000  0.5959630000000 1.0
C      1  0.5195270000000  0.4675860000000  0.4043780000000 1.0
C      1  0.5738310000000  0.4453710000000  0.5076740000000 1.0
C      1  0.4253920000000  0.5545170000000  0.4924150000000 1.0
C      1  0.4768080000000  0.4926130000000  0.4727220000000 1.0
C      1  0.5235140000000  0.5077730000000  0.5274180000000 1.0
C      1  0.5008300000000  0.5867220000000  0.4541230000000 1.0
C      1  0.4982160000000  0.4103630000000  0.5472750000000 1.0
C      1  0.4656400000000  0.5441650000000  0.5720400000000 1.0
C      1  0.5341790000000  0.4561090000000  0.4281300000000 1.0
C      1  0.4509140000000  0.4795360000000  0.4758320000000 1.0
C      1  0.5494780000000  0.5205920000000  0.5241810000000 1.0
C      1  0.5707880000000  0.5303770000000  0.5563000000000 1.0
C      1  0.4297890000000  0.4697960000000  0.4438840000000 1.0
C      1  0.5406830000000  0.5486920000000  0.5302180000000 1.0
C      1  0.4598500000000  0.4515180000000  0.4701250000000 1.0
C      1  0.5534610000000  0.5178220000000  0.4935130000000 1.0
C      1  0.4466500000000  0.4820840000000  0.5064300000000 1.0
C      1  0.5802470000000  0.5438020000000  0.4575590000000 1.0
C      1  0.4205630000000  0.4564350000000  0.5424750000000 1.0
C      1  0.4168030000000  0.4858910000000  0.5502210000000 1.0
C      1  0.5832210000000  0.5141440000000  0.4497340000000 1.0
C      1  0.5113430000000  0.6085530000000  0.4972610000000 1.0
C      1  0.4889430000000  0.3913790000000  0.5028240000000 1.0
C      1  0.5810590000000  0.5578590000000  0.4853170000000 1.0
C      1  0.4192450000000  0.4424310000000  0.5147530000000 1.0
C      1  0.5980910000000  0.5510810000000  0.5084400000000 1.0
C      1  0.4022950000000  0.4491630000000  0.4915390000000 1.0
C      1  0.4823850000000  0.5017480000000  0.4310160000000 1.0
C      1  0.5173240000000  0.4991740000000  0.5695610000000 1.0
C      1  0.4813830000000  0.5303950000000  0.5489980000000 1.0
C      1  0.5185690000000  0.4699820000000  0.4512440000000 1.0
C      1  0.5556980000000  0.4729730000000  0.5405070000000 1.0
C      1  0.4444990000000  0.5275970000000  0.4595160000000 1.0
C      1  0.4805040000000  0.4759890000000  0.5461980000000 1.0
C      1  0.5196920000000  0.5246640000000  0.4537640000000 1.0
C      1  0.4088470000000  0.5290700000000  0.5297790000000 1.0
C      1  0.5912680000000  0.4709360000000  0.4701210000000 1.0
C      1  0.5063910000000  0.4594140000000  0.5437380000000 1.0
C      1  0.4943830000000  0.5428060000000  0.4559030000000 1.0
C      1  0.5704980000000  0.4037530000000  0.5296480000000 1.0
C      1  0.4287150000000  0.5962230000000  0.4700990000000 1.0
C      1  0.3963600000000  0.4766260000000  0.4854870000000 1.0
C      1  0.6038960000000  0.5235420000000  0.5143770000000 1.0
C      1  0.5273270000000  0.4826340000000  0.5445820000000 1.0
C      1  0.4731000000000  0.5185630000000  0.4560680000000 1.0
C      1  0.5585640000000  0.5776480000000  0.4930160000000 1.0
C      1  0.4415580000000  0.4225360000000  0.5069310000000 1.0
C      1  0.4246370000000  0.5285170000000  0.4375780000000 1.0
C      1  0.5756850000000  0.4715280000000  0.5621440000000 1.0
C      1  0.5566580000000  0.5159350000000  0.5807840000000 1.0
C      1  0.4436880000000  0.4841830000000  0.4192470000000 1.0
C      1  0.5501860000000  0.5064650000000  0.4084690000000 1.0
C      1  0.4493590000000  0.4933900000000  0.5914270000000 1.0
C      1  0.5193890000000  0.6016190000000  0.4710140000000 1.0
C      1  0.4798740000000  0.3976090000000  0.5287870000000 1.0
C      1  0.5261920000000  0.4466600000000  0.5806590000000 1.0
C      1  0.4735080000000  0.5522970000000  0.4185440000000 1.0
C      1  0.4146880000000  0.5723660000000  0.4729480000000 1.0
C      1  0.5847560000000  0.4274660000000  0.5268410000000 1.0
C      1  0.5497490000000  0.5913890000000  0.5229870000000 1.0
C      1  0.4505170000000  0.4088440000000  0.4771770000000 1.0
C      1  0.5395400000000  0.5324070000000  0.4093220000000 1.0
C      1  0.4605800000000  0.4675940000000  0.5904220000000 1.0
C      1  0.5622810000000  0.4675060000000  0.4316150000000 1.0
C      1  0.4375690000000  0.5326010000000  0.5684170000000 1.0
C      1  0.4601710000000  0.5740450000000  0.4306370000000 1.0
C      1  0.5394290000000  0.4243080000000  0.5696120000000 1.0
C      1  0.4932200000000  0.4878030000000  0.4973710000000 1.0
C      1  0.5068880000000  0.5128110000000  0.5028480000000 1.0
C      1  0.5109290000000  0.4441780000000  0.5154890000000 1.0
C      1  0.4892320000000  0.5570200000000  0.4851630000000 1.0
C      1  0.4063430000000  0.4350980000000  0.4679160000000 1.0
C      1  0.5941190000000  0.5650740000000  0.5321200000000 1.0
C      1  0.4973410000000  0.4459220000000  0.5788190000000 1.0
C      1  0.5021420000000  0.5535630000000  0.4195570000000 1.0
END
