TITL C-3578199-7832-495 -1.02465251658394e-08 125000 -210.517235596107 0 0 35 (C7v) n - 1
REM
REM in /home/bkarasulu/work/CARBON/AIRSS/Generating-Clusters/EDIP-Nigel-Params/with-SteepDescent/Higher-Symm/SD-CG/HFTN-CG
REM
REM
REM
REM
REM
REM ./C.cell (12c818d87b63d06a65506943cc24bca4)
REM
REM compiler GCC version 9.2.1 20190827 (Red Hat 9.2.1-1)
REM options -cpp -mtune=generic -march=x86-64 -g -O0 -fpre-include=/usr/include/finclude/math-vector-fortran.h
REM seed 1927033803 305319244 -1558327349 1293081388 -1051305520 284897166 -910732553 -554712654 323812498 1840155903 -1315126443 396355256 -1753573990 -365364758 1920145042 -801345309 2077535807 678095964 -1283347060 -884046865 -993512926 255316599 -2006165644 317574261 -1236317221 773129777 -1154457595 1360641870 -1742069626 1585510819 1696353714 341574529 1473272728
REM
CELL 1.54180   50.00000   50.00000   50.00000   90.00000   90.00000   90.00000
LATT -1
SFAC C  
C      1  0.4491290000000  0.5137720000000  0.5260330000000 1.0
C      1  0.4790370000000  0.5483440000000  0.5260500000000 1.0
C      1  0.5247130000000  0.5465170000000  0.5260890000000 1.0
C      1  0.5517640000000  0.5096670000000  0.5261210000000 1.0
C      1  0.5398180000000  0.4655420000000  0.5261220000000 1.0
C      1  0.4978730000000  0.4473690000000  0.5260910000000 1.0
C      1  0.4575120000000  0.4688340000000  0.5260520000000 1.0
C      1  0.4985190000000  0.4629830000000  0.5008460000000 1.0
C      1  0.4701350000000  0.4780780000000  0.5008180000000 1.0
C      1  0.4642390000000  0.5096810000000  0.5008060000000 1.0
C      1  0.4852720000000  0.5339940000000  0.5008170000000 1.0
C      1  0.5173950000000  0.5327090000000  0.5008450000000 1.0
C      1  0.5364180000000  0.5067940000000  0.5008670000000 1.0
C      1  0.5280180000000  0.4757630000000  0.5008680000000 1.0
C      1  0.5538820000000  0.5100420000000  0.4768060000000 1.0
C      1  0.5414580000000  0.4641470000000  0.4768070000000 1.0
C      1  0.4978300000000  0.4452460000000  0.4767740000000 1.0
C      1  0.4558500000000  0.4675710000000  0.4767340000000 1.0
C      1  0.4471310000000  0.5143120000000  0.4767150000000 1.0
C      1  0.4782380000000  0.5502710000000  0.4767320000000 1.0
C      1  0.5257470000000  0.5483710000000  0.4767730000000 1.0
C      1  0.4724510000000  0.4797400000000  0.4565460000000 1.0
C      1  0.4670060000000  0.5089310000000  0.4565340000000 1.0
C      1  0.4864330000000  0.5313890000000  0.4565450000000 1.0
C      1  0.5161040000000  0.5302020000000  0.4565700000000 1.0
C      1  0.5336760000000  0.5062650000000  0.4565910000000 1.0
C      1  0.5259170000000  0.4776020000000  0.4565910000000 1.0
C      1  0.4986690000000  0.4657970000000  0.4565710000000 1.0
C      1  0.5221050000000  0.4489080000000  0.5397860000000 1.0
C      1  0.4738170000000  0.4508400000000  0.5397450000000 1.0
C      1  0.4452200000000  0.4897970000000  0.5397110000000 1.0
C      1  0.4578480000000  0.5364450000000  0.5397100000000 1.0
C      1  0.5021920000000  0.5556560000000  0.5397430000000 1.0
C      1  0.5448600000000  0.5329650000000  0.5397850000000 1.0
C      1  0.5537230000000  0.4854570000000  0.5398040000000 1.0
END
