TITL C-3578195-8548-81 0.07210428330591 125000 -1053.25122016293 0 0 169 (C1) n - 1
REM
REM in /home/bkarasulu/work/CARBON/AIRSS/Generating-Clusters/EDIP-Nigel-Params/with-SteepDescent/Higher-Symm/SD-CG/HFTN-CG
REM
REM
REM
REM
REM
REM ./C.cell (12c818d87b63d06a65506943cc24bca4)
REM
REM compiler GCC version 9.2.1 20190827 (Red Hat 9.2.1-1)
REM options -cpp -mtune=generic -march=x86-64 -g -O0 -fpre-include=/usr/include/finclude/math-vector-fortran.h
REM seed -447218 -1964782063 -765057221 1854671739 -867819387 1689671031 -243164141 1276131243 -1635519302 1828634976 145131214 -522411909 831214419 -1548345815 535397791 -487480936 -1626099304 414974070 635883197 1546152602 -1815945035 470787751 -609938718 1977035504 -1816121701 849865661 -227487819 -726849533 -572021010 514760036 -1358302790 -237722135 -688233465
REM
CELL 1.54180   50.00000   50.00000   50.00000   90.00000   90.00000   90.00000
LATT -1
SFAC C  
C      1  0.4104610000000  0.5512910000000  0.5287120000000 1.0
C      1  0.4215630000000  0.5308980000000  0.5473170000000 1.0
C      1  0.4076360000000  0.5058410000000  0.5551730000000 1.0
C      1  0.4143660000000  0.4775250000000  0.5492940000000 1.0
C      1  0.4005410000000  0.4578770000000  0.5322530000000 1.0
C      1  0.4023910000000  0.4493240000000  0.5040230000000 1.0
C      1  0.3921650000000  0.4571320000000  0.4775480000000 1.0
C      1  0.3997350000000  0.4764080000000  0.4567550000000 1.0
C      1  0.3943660000000  0.5051830000000  0.4527870000000 1.0
C      1  0.4118970000000  0.5285090000000  0.4577600000000 1.0
C      1  0.4050180000000  0.5502550000000  0.4767090000000 1.0
C      1  0.4198330000000  0.5576980000000  0.5012920000000 1.0
C      1  0.4750130000000  0.5387020000000  0.5242310000000 1.0
C      1  0.4900850000000  0.5199820000000  0.5375710000000 1.0
C      1  0.4791050000000  0.4965750000000  0.5473150000000 1.0
C      1  0.4811500000000  0.4703690000000  0.5404860000000 1.0
C      1  0.4837660000000  0.4597550000000  0.5146940000000 1.0
C      1  0.4615730000000  0.4521220000000  0.4999220000000 1.0
C      1  0.4669270000000  0.4548370000000  0.4738200000000 1.0
C      1  0.4785540000000  0.4704770000000  0.4540980000000 1.0
C      1  0.4681670000000  0.4963800000000  0.4519780000000 1.0
C      1  0.4818750000000  0.5187750000000  0.4602210000000 1.0
C      1  0.4704330000000  0.5387250000000  0.4752360000000 1.0
C      1  0.4742690000000  0.5497260000000  0.4995830000000 1.0
C      1  0.5363700000000  0.4711850000000  0.6086660000000 1.0
C      1  0.5294680000000  0.4293230000000  0.5858080000000 1.0
C      1  0.5222150000000  0.4000600000000  0.5304950000000 1.0
C      1  0.5262070000000  0.3857630000000  0.4822340000000 1.0
C      1  0.5220930000000  0.4035250000000  0.4346130000000 1.0
C      1  0.5143860000000  0.4520770000000  0.3944610000000 1.0
C      1  0.5181670000000  0.5018750000000  0.3784250000000 1.0
C      1  0.5093770000000  0.5613010000000  0.4125410000000 1.0
C      1  0.5338810000000  0.6074780000000  0.4455610000000 1.0
C      1  0.5211860000000  0.6057800000000  0.5153900000000 1.0
C      1  0.5428670000000  0.5936720000000  0.5700250000000 1.0
C      1  0.5216940000000  0.5289740000000  0.5989000000000 1.0
C      1  0.3924750000000  0.5061380000000  0.4244280000000 1.0
C      1  0.4186270000000  0.5400620000000  0.4324210000000 1.0
C      1  0.4064130000000  0.5730570000000  0.4604650000000 1.0
C      1  0.4283370000000  0.5850410000000  0.4996970000000 1.0
C      1  0.4137910000000  0.5756600000000  0.5421510000000 1.0
C      1  0.4314720000000  0.5440010000000  0.5707550000000 1.0
C      1  0.4110710000000  0.5064060000000  0.5831130000000 1.0
C      1  0.4199160000000  0.4642450000000  0.5738190000000 1.0
C      1  0.4038940000000  0.4330010000000  0.5454800000000 1.0
C      1  0.3993320000000  0.4211040000000  0.5041700000000 1.0
C      1  0.3917390000000  0.4327740000000  0.4627600000000 1.0
C      1  0.3947570000000  0.4635360000000  0.4319040000000 1.0
C      1  0.5687420000000  0.4551120000000  0.5805070000000 1.0
C      1  0.5613850000000  0.4146980000000  0.5540780000000 1.0
C      1  0.5632590000000  0.3992280000000  0.5079040000000 1.0
C      1  0.5609900000000  0.4082950000000  0.4598630000000 1.0
C      1  0.5524950000000  0.4364330000000  0.4205210000000 1.0
C      1  0.5530180000000  0.4801490000000  0.3982710000000 1.0
C      1  0.5463980000000  0.5286830000000  0.4062780000000 1.0
C      1  0.5520990000000  0.5666270000000  0.4374600000000 1.0
C      1  0.5554660000000  0.5890050000000  0.4829070000000 1.0
C      1  0.5595170000000  0.5722440000000  0.5294200000000 1.0
C      1  0.5594110000000  0.5489650000000  0.5748800000000 1.0
C      1  0.5634670000000  0.5032310000000  0.5907500000000 1.0
C      1  0.5505440000000  0.4006230000000  0.5326700000000 1.0
C      1  0.5525060000000  0.3945350000000  0.4825820000000 1.0
C      1  0.5474720000000  0.4140950000000  0.4362320000000 1.0
C      1  0.5416510000000  0.4547360000000  0.4025550000000 1.0
C      1  0.5429650000000  0.5052670000000  0.3903060000000 1.0
C      1  0.5368540000000  0.5529300000000  0.4177670000000 1.0
C      1  0.5526750000000  0.5893780000000  0.4544820000000 1.0
C      1  0.5475270000000  0.5925770000000  0.5103700000000 1.0
C      1  0.5553830000000  0.5716390000000  0.5587380000000 1.0
C      1  0.5492230000000  0.5272600000000  0.5893730000000 1.0
C      1  0.5606860000000  0.4762540000000  0.5969490000000 1.0
C      1  0.5553320000000  0.4309610000000  0.5758040000000 1.0
C      1  0.5683390000000  0.5486310000000  0.4880140000000 1.0
C      1  0.5599910000000  0.5459250000000  0.5157810000000 1.0
C      1  0.5760350000000  0.5243060000000  0.5287680000000 1.0
C      1  0.5624700000000  0.4998590000000  0.5355120000000 1.0
C      1  0.5754750000000  0.4747540000000  0.5365460000000 1.0
C      1  0.5585290000000  0.4584940000000  0.5202940000000 1.0
C      1  0.5664560000000  0.4495010000000  0.4951400000000 1.0
C      1  0.5505110000000  0.4632040000000  0.4768950000000 1.0
C      1  0.5617550000000  0.4742030000000  0.4543450000000 1.0
C      1  0.5505910000000  0.4952410000000  0.4395280000000 1.0
C      1  0.5617370000000  0.5207530000000  0.4457360000000 1.0
C      1  0.5531820000000  0.5348950000000  0.4685810000000 1.0
C      1  0.4631530000000  0.6149170000000  0.5158530000000 1.0
C      1  0.4597350000000  0.5924920000000  0.5568690000000 1.0
C      1  0.4656630000000  0.5383600000000  0.6046740000000 1.0
C      1  0.4561340000000  0.4925610000000  0.6037930000000 1.0
C      1  0.4453000000000  0.4244410000000  0.5831290000000 1.0
C      1  0.4466440000000  0.4031380000000  0.5411300000000 1.0
C      1  0.4436100000000  0.3961080000000  0.4928000000000 1.0
C      1  0.4386830000000  0.4131840000000  0.4461280000000 1.0
C      1  0.4383480000000  0.4465320000000  0.4086000000000 1.0
C      1  0.4370750000000  0.4948160000000  0.3991580000000 1.0
C      1  0.4524100000000  0.5654990000000  0.4095660000000 1.0
C      1  0.4514630000000  0.5934420000000  0.4476290000000 1.0
C      1  0.4115380000000  0.4179200000000  0.4509290000000 1.0
C      1  0.4116310000000  0.4503940000000  0.4150740000000 1.0
C      1  0.4100830000000  0.4960140000000  0.4060220000000 1.0
C      1  0.4372990000000  0.5423970000000  0.4113100000000 1.0
C      1  0.4241530000000  0.5893800000000  0.4485200000000 1.0
C      1  0.4487070000000  0.6042420000000  0.4947690000000 1.0
C      1  0.4324700000000  0.5920480000000  0.5524350000000 1.0
C      1  0.4530170000000  0.5543720000000  0.5859820000000 1.0
C      1  0.4296140000000  0.5003600000000  0.6018810000000 1.0
C      1  0.4405170000000  0.4510220000000  0.5877790000000 1.0
C      1  0.4197440000000  0.4108150000000  0.5421170000000 1.0
C      1  0.4167480000000  0.4016930000000  0.4964630000000 1.0
C      1  0.4709900000000  0.5726780000000  0.5735470000000 1.0
C      1  0.4756580000000  0.5127350000000  0.6058860000000 1.0
C      1  0.4632570000000  0.4663990000000  0.5955140000000 1.0
C      1  0.4605430000000  0.4107490000000  0.5649050000000 1.0
C      1  0.4601100000000  0.3963250000000  0.5163310000000 1.0
C      1  0.4550130000000  0.4017180000000  0.4670780000000 1.0
C      1  0.4521310000000  0.4261690000000  0.4239470000000 1.0
C      1  0.4521820000000  0.4702200000000  0.3988820000000 1.0
C      1  0.4512650000000  0.5192730000000  0.4020250000000 1.0
C      1  0.4666240000000  0.5813290000000  0.4270520000000 1.0
C      1  0.4647980000000  0.6010150000000  0.4714000000000 1.0
C      1  0.4765120000000  0.6048330000000  0.5377620000000 1.0
C      1  0.7074840000000  0.5574970000000  0.5177220000000 1.0
C      1  0.6863690000000  0.5712940000000  0.5096610000000 1.0
C      1  0.6601540000000  0.5733300000000  0.5066490000000 1.0
C      1  0.6354100000000  0.5642640000000  0.5088980000000 1.0
C      1  0.6163470000000  0.5470520000000  0.5153910000000 1.0
C      1  0.6042650000000  0.5240120000000  0.5241090000000 1.0
C      1  0.6198130000000  0.5044210000000  0.5354510000000 1.0
C      1  0.6413600000000  0.4911180000000  0.5432880000000 1.0
C      1  0.6671770000000  0.4869540000000  0.5472510000000 1.0
C      1  0.6926530000000  0.4940090000000  0.5459870000000 1.0
C      1  0.7112120000000  0.5116600000000  0.5392660000000 1.0
C      1  0.7168510000000  0.5353080000000  0.5287470000000 1.0
C      1  0.5224580000000  0.4750720000000  0.5478770000000 1.0
C      1  0.5301070000000  0.4569710000000  0.5273780000000 1.0
C      1  0.5106400000000  0.4530300000000  0.5053760000000 1.0
C      1  0.5212910000000  0.4683100000000  0.4808320000000 1.0
C      1  0.5083310000000  0.4686370000000  0.4525560000000 1.0
C      1  0.5202330000000  0.4951970000000  0.4415790000000 1.0
C      1  0.5104880000000  0.5134030000000  0.4642300000000 1.0
C      1  0.5247120000000  0.5387310000000  0.4698530000000 1.0
C      1  0.5158370000000  0.5503660000000  0.4942160000000 1.0
C      1  0.5302480000000  0.5411590000000  0.5168110000000 1.0
C      1  0.5180030000000  0.5200330000000  0.5319520000000 1.0
C      1  0.5346940000000  0.5002540000000  0.5435410000000 1.0
C      1  0.5050420000000  0.6012320000000  0.5392970000000 1.0
C      1  0.4986290000000  0.5743560000000  0.5810340000000 1.0
C      1  0.5034190000000  0.5064400000000  0.6036730000000 1.0
C      1  0.4909900000000  0.4574440000000  0.5963600000000 1.0
C      1  0.4887280000000  0.4148290000000  0.5653960000000 1.0
C      1  0.4889590000000  0.3898800000000  0.5141100000000 1.0
C      1  0.4832770000000  0.3989790000000  0.4639620000000 1.0
C      1  0.4804010000000  0.4228910000000  0.4205120000000 1.0
C      1  0.4804720000000  0.4706090000000  0.3898560000000 1.0
C      1  0.4782700000000  0.5215140000000  0.3931870000000 1.0
C      1  0.4952370000000  0.5813670000000  0.4283460000000 1.0
C      1  0.4924360000000  0.6088970000000  0.4702810000000 1.0
C      1  0.4925380000000  0.4344650000000  0.3973360000000 1.0
C      1  0.4915680000000  0.4977990000000  0.3848070000000 1.0
C      1  0.4933550000000  0.5447740000000  0.3966610000000 1.0
C      1  0.5070820000000  0.6002360000000  0.4470820000000 1.0
C      1  0.5071330000000  0.6156400000000  0.4931620000000 1.0
C      1  0.5156410000000  0.5905540000000  0.5640570000000 1.0
C      1  0.5099510000000  0.5542840000000  0.5968380000000 1.0
C      1  0.5099260000000  0.4780210000000  0.6049430000000 1.0
C      1  0.5017610000000  0.4319770000000  0.5854120000000 1.0
C      1  0.5029010000000  0.3954070000000  0.5500750000000 1.0
C      1  0.4989220000000  0.3888210000000  0.4860160000000 1.0
C      1  0.4949440000000  0.4059410000000  0.4385540000000 1.0
C      1  0.5158330000000  0.4961700000000  0.4868530000000 1.0
END
