TITL C-3577082-504-741 1.20687694589932e-06 125000 -1233.97803881488 0 0 193 (C1) n - 1
REM
REM in /home/bkarasulu/work/CARBON/AIRSS/Generating-Clusters/EDIP-Nigel-Params/with-SteepDescent/Higher-Symm/SD-CG/HFTN-CG
REM
REM
REM
REM
REM
REM ./C.cell (12c818d87b63d06a65506943cc24bca4)
REM
REM compiler GCC version 9.2.1 20190827 (Red Hat 9.2.1-1)
REM options -cpp -mtune=generic -march=x86-64 -g -O0 -fpre-include=/usr/include/finclude/math-vector-fortran.h
REM seed 465309623 205972656 383453183 1793246646 -461346074 16028032 -1926493832 -1918241030 -1968546507 -169072240 -513333556 -963397784 -2032029394 -995722943 -1439232431 244247245 1309288376 1842449089 26609247 960225724 1411684461 667069062 -1916487489 -577414920 478040860 -1074819505 1684936097 -1829343221 962633807 -1758179081 -1111357125 -1869789913 5346831
REM
CELL 1.54180   50.00000   50.00000   50.00000   90.00000   90.00000   90.00000
LATT -1
SFAC C  
C      1  0.5009610000000  0.5253650000000  0.5503520000000 1.0
C      1  0.4554400000000  0.5349870000000  0.5177300000000 1.0
C      1  0.4655820000000  0.5347220000000  0.4702880000000 1.0
C      1  0.5296570000000  0.5300200000000  0.4533310000000 1.0
C      1  0.5491910000000  0.5323090000000  0.5152160000000 1.0
C      1  0.4481350000000  0.4708290000000  0.3930500000000 1.0
C      1  0.5793430000000  0.4708240000000  0.4226700000000 1.0
C      1  0.5984300000000  0.4714800000000  0.5521330000000 1.0
C      1  0.4811520000000  0.4723640000000  0.6120660000000 1.0
C      1  0.3825610000000  0.4678900000000  0.5179580000000 1.0
C      1  0.3952080000000  0.4436820000000  0.5315530000000 1.0
C      1  0.4371290000000  0.4470610000000  0.4088730000000 1.0
C      1  0.5652390000000  0.4460570000000  0.4147780000000 1.0
C      1  0.6015480000000  0.4458070000000  0.5363930000000 1.0
C      1  0.4967960000000  0.4473960000000  0.6083910000000 1.0
C      1  0.5358520000000  0.4434210000000  0.5797630000000 1.0
C      1  0.4407240000000  0.4442400000000  0.5571270000000 1.0
C      1  0.4245850000000  0.4437510000000  0.4595930000000 1.0
C      1  0.5145840000000  0.4428320000000  0.4158610000000 1.0
C      1  0.5840540000000  0.4405850000000  0.4892170000000 1.0
C      1  0.5351680000000  0.4603320000000  0.4576140000000 1.0
C      1  0.5569470000000  0.4556890000000  0.5266370000000 1.0
C      1  0.4950410000000  0.4677630000000  0.5557130000000 1.0
C      1  0.4348510000000  0.4629100000000  0.5163850000000 1.0
C      1  0.4632960000000  0.4651800000000  0.4447020000000 1.0
C      1  0.4457920000000  0.4176550000000  0.5446760000000 1.0
C      1  0.4363980000000  0.4160660000000  0.4573990000000 1.0
C      1  0.5178060000000  0.4156490000000  0.4281510000000 1.0
C      1  0.5745920000000  0.4127820000000  0.4964660000000 1.0
C      1  0.5262500000000  0.4151750000000  0.5748030000000 1.0
C      1  0.4999860000000  0.5620790000000  0.4811770000000 1.0
C      1  0.5242580000000  0.5759300000000  0.4900400000000 1.0
C      1  0.5199980000000  0.5818750000000  0.5190780000000 1.0
C      1  0.4897080000000  0.5842270000000  0.5239450000000 1.0
C      1  0.4744030000000  0.5876990000000  0.4976860000000 1.0
C      1  0.4275090000000  0.6013710000000  0.5039290000000 1.0
C      1  0.4718390000000  0.5977690000000  0.4320840000000 1.0
C      1  0.5541500000000  0.5987470000000  0.4569670000000 1.0
C      1  0.5608300000000  0.5995650000000  0.5393400000000 1.0
C      1  0.4811170000000  0.5988160000000  0.5695610000000 1.0
C      1  0.5206650000000  0.4943990000000  0.5168260000000 1.0
C      1  0.4958010000000  0.4820270000000  0.5274110000000 1.0
C      1  0.4747950000000  0.4928380000000  0.4953810000000 1.0
C      1  0.4954330000000  0.4825200000000  0.4752640000000 1.0
C      1  0.5243820000000  0.4916150000000  0.4873420000000 1.0
C      1  0.5717890000000  0.6004060000000  0.4838740000000 1.0
C      1  0.5362600000000  0.6018470000000  0.5671190000000 1.0
C      1  0.4503730000000  0.6001300000000  0.5577680000000 1.0
C      1  0.4296430000000  0.6010920000000  0.4714060000000 1.0
C      1  0.5081390000000  0.5987200000000  0.4283380000000 1.0
C      1  0.4867800000000  0.4446880000000  0.4038920000000 1.0
C      1  0.5861840000000  0.4429330000000  0.4590610000000 1.0
C      1  0.5657490000000  0.4438700000000  0.5725090000000 1.0
C      1  0.4549520000000  0.4455630000000  0.5836360000000 1.0
C      1  0.4046310000000  0.4437900000000  0.4825960000000 1.0
C      1  0.5395990000000  0.4534120000000  0.4008290000000 1.0
C      1  0.6054980000000  0.4529180000000  0.5075090000000 1.0
C      1  0.5255630000000  0.4551110000000  0.6057300000000 1.0
C      1  0.4099470000000  0.4520480000000  0.5574200000000 1.0
C      1  0.4169280000000  0.4550740000000  0.4308990000000 1.0
C      1  0.4825540000000  0.5057210000000  0.5368400000000 1.0
C      1  0.4757880000000  0.5234830000000  0.4964470000000 1.0
C      1  0.4901770000000  0.4997950000000  0.4508950000000 1.0
C      1  0.5200360000000  0.5190210000000  0.4777300000000 1.0
C      1  0.5200590000000  0.5243550000000  0.5217650000000 1.0
C      1  0.5616440000000  0.5433460000000  0.5648440000000 1.0
C      1  0.4586900000000  0.5428670000000  0.5774060000000 1.0
C      1  0.4121500000000  0.5434880000000  0.4870300000000 1.0
C      1  0.4897530000000  0.5441870000000  0.4091670000000 1.0
C      1  0.5824900000000  0.5439800000000  0.4597740000000 1.0
C      1  0.4964200000000  0.4953190000000  0.4010700000000 1.0
C      1  0.5927980000000  0.4962110000000  0.4618570000000 1.0
C      1  0.5665640000000  0.4970580000000  0.5801400000000 1.0
C      1  0.4447420000000  0.4975650000000  0.5893540000000 1.0
C      1  0.3992070000000  0.4958730000000  0.4769020000000 1.0
C      1  0.4628770000000  0.4415210000000  0.4236740000000 1.0
C      1  0.5640200000000  0.4320510000000  0.4401760000000 1.0
C      1  0.5741700000000  0.4351770000000  0.5414940000000 1.0
C      1  0.4834920000000  0.4365380000000  0.5847210000000 1.0
C      1  0.4169140000000  0.4388030000000  0.5111030000000 1.0
C      1  0.4378590000000  0.5735080000000  0.4595580000000 1.0
C      1  0.5214340000000  0.5715430000000  0.4311860000000 1.0
C      1  0.5739720000000  0.5727790000000  0.4977110000000 1.0
C      1  0.5251940000000  0.5733000000000  0.5685090000000 1.0
C      1  0.4432820000000  0.5733870000000  0.5451740000000 1.0
C      1  0.5456450000000  0.4122840000000  0.4867220000000 1.0
C      1  0.5261550000000  0.4155610000000  0.5432810000000 1.0
C      1  0.4729440000000  0.4168450000000  0.5280370000000 1.0
C      1  0.4593310000000  0.4132670000000  0.4788890000000 1.0
C      1  0.5038590000000  0.4149090000000  0.4556820000000 1.0
C      1  0.5376500000000  0.5266840000000  0.4030620000000 1.0
C      1  0.5985420000000  0.5260940000000  0.5036210000000 1.0
C      1  0.5277860000000  0.5284610000000  0.5987890000000 1.0
C      1  0.4158520000000  0.5279490000000  0.5567380000000 1.0
C      1  0.4169590000000  0.5283660000000  0.4430600000000 1.0
C      1  0.5205410000000  0.6191350000000  0.5465220000000 1.0
C      1  0.4619860000000  0.6199600000000  0.5355780000000 1.0
C      1  0.4548200000000  0.6192670000000  0.4737780000000 1.0
C      1  0.5063850000000  0.6132880000000  0.4550280000000 1.0
C      1  0.5463960000000  0.6178730000000  0.4959610000000 1.0
C      1  0.5448610000000  0.4091190000000  0.4383960000000 1.0
C      1  0.5708690000000  0.4086300000000  0.5259660000000 1.0
C      1  0.4953400000000  0.4114940000000  0.5747800000000 1.0
C      1  0.4298840000000  0.4115880000000  0.5193880000000 1.0
C      1  0.4577970000000  0.4129470000000  0.4347750000000 1.0
C      1  0.5371310000000  0.3968440000000  0.4634740000000 1.0
C      1  0.5440300000000  0.3968030000000  0.5291890000000 1.0
C      1  0.4957480000000  0.4053580000000  0.5443790000000 1.0
C      1  0.4546280000000  0.4000530000000  0.5052350000000 1.0
C      1  0.4777560000000  0.4006870000000  0.4555510000000 1.0
C      1  0.5668610000000  0.5051320000000  0.5118520000000 1.0
C      1  0.5130330000000  0.5066930000000  0.5709130000000 1.0
C      1  0.4394690000000  0.5108790000000  0.5313150000000 1.0
C      1  0.4465250000000  0.5118650000000  0.4610290000000 1.0
C      1  0.5345270000000  0.5053470000000  0.4350560000000 1.0
C      1  0.4531870000000  0.4709890000000  0.5995980000000 1.0
C      1  0.3895810000000  0.4692740000000  0.4879180000000 1.0
C      1  0.4795940000000  0.4703770000000  0.3913640000000 1.0
C      1  0.5947920000000  0.4697450000000  0.4485960000000 1.0
C      1  0.5799040000000  0.4699800000000  0.5760540000000 1.0
C      1  0.5287440000000  0.6031070000000  0.4740460000000 1.0
C      1  0.5368050000000  0.6074510000000  0.5232180000000 1.0
C      1  0.4908510000000  0.6094430000000  0.5425890000000 1.0
C      1  0.4558990000000  0.6120430000000  0.5056620000000 1.0
C      1  0.4774750000000  0.6078140000000  0.4587320000000 1.0
C      1  0.6039800000000  0.5015960000000  0.4880090000000 1.0
C      1  0.5454340000000  0.5040390000000  0.6010810000000 1.0
C      1  0.4217940000000  0.5021900000000  0.5710170000000 1.0
C      1  0.4057120000000  0.5023430000000  0.4484990000000 1.0
C      1  0.5235780000000  0.5027510000000  0.3896950000000 1.0
C      1  0.4556610000000  0.4626930000000  0.5370880000000 1.0
C      1  0.4491070000000  0.4604280000000  0.4698550000000 1.0
C      1  0.5116290000000  0.4611890000000  0.4395810000000 1.0
C      1  0.5594330000000  0.4570920000000  0.4966390000000 1.0
C      1  0.5233380000000  0.4611210000000  0.5574400000000 1.0
C      1  0.4152910000000  0.5518440000000  0.4593290000000 1.0
C      1  0.5190700000000  0.5506210000000  0.4077200000000 1.0
C      1  0.5937000000000  0.5505790000000  0.4869680000000 1.0
C      1  0.5409230000000  0.5514900000000  0.5844340000000 1.0
C      1  0.4333120000000  0.5510730000000  0.5645620000000 1.0
C      1  0.5250920000000  0.4846890000000  0.6078460000000 1.0
C      1  0.4050210000000  0.4814170000000  0.5590590000000 1.0
C      1  0.4187450000000  0.4841840000000  0.4295790000000 1.0
C      1  0.5431520000000  0.4829860000000  0.3975440000000 1.0
C      1  0.6048130000000  0.4823530000000  0.5087510000000 1.0
C      1  0.4586180000000  0.4924400000000  0.5488350000000 1.0
C      1  0.4468290000000  0.4896670000000  0.4833420000000 1.0
C      1  0.5078600000000  0.4905550000000  0.4307360000000 1.0
C      1  0.5570660000000  0.4866650000000  0.4858860000000 1.0
C      1  0.5364840000000  0.4886910000000  0.5566500000000 1.0
C      1  0.6070390000000  0.4939220000000  0.5352360000000 1.0
C      1  0.4996500000000  0.4951570000000  0.6177990000000 1.0
C      1  0.3904760000000  0.4903090000000  0.5352840000000 1.0
C      1  0.4351340000000  0.4937030000000  0.4065510000000 1.0
C      1  0.5679070000000  0.4937000000000  0.4084260000000 1.0
C      1  0.4859240000000  0.4885220000000  0.5768240000000 1.0
C      1  0.4264900000000  0.4918020000000  0.5093720000000 1.0
C      1  0.4630480000000  0.4960740000000  0.4403610000000 1.0
C      1  0.5536840000000  0.4836830000000  0.4494940000000 1.0
C      1  0.5642550000000  0.4845430000000  0.5378910000000 1.0
C      1  0.5720380000000  0.5197530000000  0.4192780000000 1.0
C      1  0.5950490000000  0.5190120000000  0.5414200000000 1.0
C      1  0.4904670000000  0.5194530000000  0.6054350000000 1.0
C      1  0.3970760000000  0.5163090000000  0.5245180000000 1.0
C      1  0.4524940000000  0.5163210000000  0.4095850000000 1.0
C      1  0.5491670000000  0.5733970000000  0.4428440000000 1.0
C      1  0.5730950000000  0.5751000000000  0.5281870000000 1.0
C      1  0.4957960000000  0.5730920000000  0.5748950000000 1.0
C      1  0.4265980000000  0.5759490000000  0.5197480000000 1.0
C      1  0.4570380000000  0.5728360000000  0.4349280000000 1.0
C      1  0.4825510000000  0.5504100000000  0.5614040000000 1.0
C      1  0.4353120000000  0.5538300000000  0.5026450000000 1.0
C      1  0.4770660000000  0.5499260000000  0.4362970000000 1.0
C      1  0.5533450000000  0.5500140000000  0.4601350000000 1.0
C      1  0.5556510000000  0.5529270000000  0.5375610000000 1.0
C      1  0.4951760000000  0.4442980000000  0.4666290000000 1.0
C      1  0.5349360000000  0.4428000000000  0.4857260000000 1.0
C      1  0.5286870000000  0.4450540000000  0.5326430000000 1.0
C      1  0.4801610000000  0.4440420000000  0.5134700000000 1.0
C      1  0.4695360000000  0.4414640000000  0.4839710000000 1.0
C      1  0.4788480000000  0.5192760000000  0.3990420000000 1.0
C      1  0.5875320000000  0.5195980000000  0.4445990000000 1.0
C      1  0.5791320000000  0.5204790000000  0.5659810000000 1.0
C      1  0.4624470000000  0.5204550000000  0.5954040000000 1.0
C      1  0.3974210000000  0.5193430000000  0.4950640000000 1.0
C      1  0.4554140000000  0.5631260000000  0.4818550000000 1.0
C      1  0.5034430000000  0.5557590000000  0.4511270000000 1.0
C      1  0.5486420000000  0.5574660000000  0.4893440000000 1.0
C      1  0.5286450000000  0.5636040000000  0.5405600000000 1.0
C      1  0.4703950000000  0.5610760000000  0.5364550000000 1.0
C      1  0.5035400000000  0.5349370000000  0.4962500000000 1.0
C      1  0.5320020000000  0.3938170000000  0.5038620000000 1.0
C      1  0.5116230000000  0.4463830000000  0.5075970000000 1.0
END
