TITL C-3578194-7807-285 -2.46674346775585e-06 125000 -651.946618462496 0 0 104 (C1) n - 1
REM
REM in /home/bkarasulu/work/CARBON/AIRSS/Generating-Clusters/EDIP-Nigel-Params/with-SteepDescent/Higher-Symm/SD-CG/HFTN-CG
REM
REM
REM
REM
REM
REM ./C.cell (12c818d87b63d06a65506943cc24bca4)
REM
REM compiler GCC version 9.2.1 20190827 (Red Hat 9.2.1-1)
REM options -cpp -mtune=generic -march=x86-64 -g -O0 -fpre-include=/usr/include/finclude/math-vector-fortran.h
REM seed 100414151 519319126 -695796933 -235206384 2054771609 895596762 -160917109 -503144328 1279139364 1947375342 -900290078 813111448 444365460 -770111434 -87534125 1110704595 -1747832731 -1491304388 -1975791004 144242788 1911974105 261486384 1569639769 339193310 -1180135238 -1884901358 -1316923384 -196778466 559499923 1962394846 -910860805 1593923334 709840252
REM
CELL 1.54180   50.00000   50.00000   50.00000   90.00000   90.00000   90.00000
LATT -1
SFAC C  
C      1  0.5653870000000  0.4470440000000  0.4486900000000 1.0
C      1  0.4890580000000  0.4395000000000  0.5729220000000 1.0
C      1  0.5481300000000  0.4265740000000  0.5141070000000 1.0
C      1  0.5006890000000  0.4622790000000  0.4842710000000 1.0
C      1  0.5448000000000  0.5148040000000  0.5257350000000 1.0
C      1  0.5184220000000  0.4463090000000  0.5811840000000 1.0
C      1  0.4453060000000  0.4525850000000  0.4754830000000 1.0
C      1  0.5037070000000  0.5104440000000  0.4178170000000 1.0
C      1  0.4364230000000  0.4511780000000  0.5449240000000 1.0
C      1  0.4261390000000  0.5505740000000  0.4843780000000 1.0
C      1  0.4979460000000  0.4583460000000  0.4172810000000 1.0
C      1  0.4808420000000  0.4259370000000  0.5471540000000 1.0
C      1  0.5141400000000  0.4560850000000  0.5286460000000 1.0
C      1  0.4427990000000  0.4975720000000  0.5566240000000 1.0
C      1  0.4842350000000  0.5118330000000  0.5768860000000 1.0
C      1  0.5353950000000  0.5076080000000  0.4812770000000 1.0
C      1  0.4884810000000  0.5137070000000  0.5093060000000 1.0
C      1  0.4601770000000  0.4416730000000  0.4515100000000 1.0
C      1  0.4529090000000  0.4323320000000  0.5007890000000 1.0
C      1  0.5732700000000  0.5565180000000  0.5370390000000 1.0
C      1  0.5166590000000  0.4399080000000  0.4318760000000 1.0
C      1  0.4567140000000  0.4711950000000  0.5549370000000 1.0
C      1  0.4799140000000  0.4863140000000  0.4460090000000 1.0
C      1  0.4647490000000  0.5458690000000  0.5495680000000 1.0
C      1  0.5409830000000  0.4418350000000  0.5608050000000 1.0
C      1  0.4491100000000  0.4849140000000  0.4218340000000 1.0
C      1  0.5830090000000  0.4818950000000  0.4810340000000 1.0
C      1  0.5271290000000  0.4776130000000  0.4921560000000 1.0
C      1  0.4968940000000  0.4967370000000  0.5311660000000 1.0
C      1  0.4807040000000  0.4234200000000  0.4616800000000 1.0
C      1  0.5106530000000  0.5697990000000  0.5493380000000 1.0
C      1  0.5320510000000  0.5600780000000  0.5657870000000 1.0
C      1  0.4083220000000  0.5301080000000  0.4720620000000 1.0
C      1  0.5523660000000  0.5515740000000  0.4917710000000 1.0
C      1  0.4896960000000  0.4846300000000  0.5886280000000 1.0
C      1  0.4196160000000  0.4967700000000  0.5385920000000 1.0
C      1  0.4975360000000  0.4116590000000  0.5052130000000 1.0
C      1  0.4301020000000  0.4923760000000  0.4443610000000 1.0
C      1  0.5407950000000  0.4268170000000  0.4875200000000 1.0
C      1  0.5074940000000  0.4350720000000  0.4596050000000 1.0
C      1  0.4326950000000  0.5418250000000  0.5119730000000 1.0
C      1  0.4462580000000  0.4748330000000  0.5077140000000 1.0
C      1  0.5491000000000  0.4551970000000  0.4883450000000 1.0
C      1  0.4721760000000  0.5069850000000  0.4859810000000 1.0
C      1  0.5468220000000  0.5167360000000  0.5751340000000 1.0
C      1  0.5186910000000  0.4755730000000  0.5883920000000 1.0
C      1  0.5141250000000  0.4831610000000  0.4186950000000 1.0
C      1  0.5285960000000  0.4316460000000  0.5353710000000 1.0
C      1  0.4625480000000  0.5215160000000  0.4395160000000 1.0
C      1  0.5425510000000  0.4785830000000  0.4210030000000 1.0
C      1  0.5018270000000  0.5849500000000  0.4986850000000 1.0
C      1  0.5451740000000  0.4502210000000  0.4285910000000 1.0
C      1  0.4190080000000  0.5206680000000  0.4458170000000 1.0
C      1  0.4067900000000  0.4822210000000  0.4859260000000 1.0
C      1  0.5246600000000  0.5354960000000  0.5793880000000 1.0
C      1  0.5072830000000  0.5938560000000  0.4687530000000 1.0
C      1  0.5056270000000  0.5218360000000  0.5596160000000 1.0
C      1  0.4791300000000  0.5266350000000  0.4637490000000 1.0
C      1  0.4554510000000  0.4331700000000  0.5310690000000 1.0
C      1  0.5849330000000  0.5204520000000  0.5079040000000 1.0
C      1  0.5627520000000  0.5824400000000  0.5384030000000 1.0
C      1  0.4455270000000  0.5556830000000  0.5320500000000 1.0
C      1  0.4721600000000  0.4627560000000  0.5792250000000 1.0
C      1  0.5417690000000  0.5190660000000  0.4527270000000 1.0
C      1  0.4014780000000  0.5096710000000  0.4928010000000 1.0
C      1  0.5254210000000  0.4843230000000  0.5242820000000 1.0
C      1  0.5549650000000  0.5344790000000  0.5485280000000 1.0
C      1  0.5156030000000  0.5575530000000  0.4370960000000 1.0
C      1  0.4455040000000  0.5597280000000  0.4632660000000 1.0
C      1  0.4858020000000  0.5605360000000  0.4973670000000 1.0
C      1  0.4146820000000  0.5190480000000  0.5186320000000 1.0
C      1  0.5536140000000  0.4694060000000  0.5551220000000 1.0
C      1  0.4911920000000  0.4496500000000  0.5112450000000 1.0
C      1  0.5156340000000  0.5277490000000  0.4388650000000 1.0
C      1  0.4411620000000  0.5024640000000  0.4949130000000 1.0
C      1  0.5369460000000  0.5912160000000  0.4656670000000 1.0
C      1  0.4940320000000  0.5728150000000  0.4515880000000 1.0
C      1  0.4795970000000  0.4806940000000  0.4745360000000 1.0
C      1  0.4734690000000  0.4738060000000  0.5269690000000 1.0
C      1  0.5816330000000  0.5043140000000  0.5314080000000 1.0
C      1  0.4246940000000  0.4734440000000  0.4663440000000 1.0
C      1  0.5156250000000  0.5901220000000  0.5275880000000 1.0
C      1  0.4219170000000  0.4694850000000  0.5257610000000 1.0
C      1  0.4396560000000  0.5418870000000  0.4388530000000 1.0
C      1  0.5741730000000  0.4638200000000  0.5041540000000 1.0
C      1  0.4758990000000  0.5554950000000  0.4695840000000 1.0
C      1  0.5403410000000  0.5796660000000  0.4937700000000 1.0
C      1  0.4697370000000  0.4611210000000  0.4300740000000 1.0
C      1  0.5325980000000  0.5303330000000  0.5024150000000 1.0
C      1  0.4946990000000  0.5455040000000  0.5425440000000 1.0
C      1  0.5447190000000  0.5947860000000  0.5209370000000 1.0
C      1  0.5737220000000  0.5082520000000  0.4851520000000 1.0
C      1  0.4748390000000  0.5126930000000  0.4136680000000 1.0
C      1  0.5035820000000  0.4132490000000  0.5332860000000 1.0
C      1  0.5001900000000  0.5394890000000  0.5124760000000 1.0
C      1  0.4740710000000  0.4155780000000  0.4893930000000 1.0
C      1  0.5581310000000  0.4958730000000  0.4391280000000 1.0
C      1  0.4587420000000  0.5209030000000  0.5652070000000 1.0
C      1  0.5558840000000  0.5453290000000  0.4615220000000 1.0
C      1  0.5380180000000  0.4891670000000  0.5705480000000 1.0
C      1  0.5687420000000  0.4784670000000  0.5299910000000 1.0
C      1  0.5710700000000  0.4742880000000  0.4553010000000 1.0
C      1  0.5776030000000  0.5487130000000  0.5089760000000 1.0
C      1  0.5422120000000  0.5678910000000  0.4470500000000 1.0
END
