TITL C-3578200-9634-259 -7.52176104008486e-07 125000 -686.267674382056 0 0 111 (C1) n - 1
REM
REM in /home/bkarasulu/work/CARBON/AIRSS/Generating-Clusters/EDIP-Nigel-Params/with-SteepDescent/Higher-Symm/SD-CG/HFTN-CG
REM
REM
REM
REM
REM
REM ./C.cell (12c818d87b63d06a65506943cc24bca4)
REM
REM compiler GCC version 9.2.1 20190827 (Red Hat 9.2.1-1)
REM options -cpp -mtune=generic -march=x86-64 -g -O0 -fpre-include=/usr/include/finclude/math-vector-fortran.h
REM seed -196281346 1589068127 -783827552 1369858512 182800103 -180103471 6866864 882749527 -2038054306 -1135368467 1395209875 -1768501693 1668236151 145056071 -973817716 1737040007 639645012 -1186786154 -1550819048 949593456 -1479719382 2107383723 1858048863 -770731069 -1358301182 783402673 -2069685870 6492320 -1206925497 284481698 -1189376199 -1436486371 -1700595046
REM
CELL 1.54180   50.00000   50.00000   50.00000   90.00000   90.00000   90.00000
LATT -1
SFAC C  
C      1  0.4392850000000  0.5614320000000  0.5481810000000 1.0
C      1  0.5586510000000  0.5472720000000  0.5457530000000 1.0
C      1  0.4755700000000  0.4795590000000  0.4979580000000 1.0
C      1  0.5134190000000  0.4877890000000  0.4417340000000 1.0
C      1  0.4472720000000  0.4676550000000  0.4396590000000 1.0
C      1  0.5017110000000  0.5773920000000  0.4835520000000 1.0
C      1  0.4833340000000  0.4225530000000  0.5150800000000 1.0
C      1  0.5873790000000  0.5144040000000  0.5212670000000 1.0
C      1  0.5095460000000  0.4444600000000  0.4493060000000 1.0
C      1  0.5862900000000  0.4941000000000  0.4765550000000 1.0
C      1  0.4704650000000  0.5375720000000  0.4922190000000 1.0
C      1  0.5776710000000  0.4453910000000  0.4816190000000 1.0
C      1  0.4277430000000  0.5298840000000  0.4686350000000 1.0
C      1  0.5118300000000  0.4016060000000  0.4818650000000 1.0
C      1  0.4232440000000  0.5477740000000  0.4977470000000 1.0
C      1  0.5304750000000  0.4995850000000  0.5279000000000 1.0
C      1  0.5547430000000  0.4814560000000  0.5802470000000 1.0
C      1  0.4853040000000  0.4069150000000  0.4900670000000 1.0
C      1  0.4138520000000  0.5178590000000  0.5491390000000 1.0
C      1  0.5750860000000  0.4465090000000  0.5184660000000 1.0
C      1  0.5360500000000  0.5553420000000  0.5868510000000 1.0
C      1  0.4324940000000  0.4922750000000  0.4330710000000 1.0
C      1  0.4952250000000  0.5762330000000  0.5601470000000 1.0
C      1  0.5585600000000  0.5003740000000  0.4269820000000 1.0
C      1  0.4542260000000  0.4943010000000  0.5777760000000 1.0
C      1  0.5528340000000  0.5134850000000  0.4806050000000 1.0
C      1  0.4171670000000  0.5453100000000  0.5363390000000 1.0
C      1  0.5829680000000  0.4916090000000  0.5043760000000 1.0
C      1  0.5767040000000  0.5181330000000  0.4395090000000 1.0
C      1  0.5290130000000  0.5658890000000  0.4724500000000 1.0
C      1  0.4234880000000  0.4707680000000  0.5326520000000 1.0
C      1  0.5148840000000  0.4554540000000  0.5062590000000 1.0
C      1  0.4170690000000  0.5024440000000  0.4583300000000 1.0
C      1  0.4545500000000  0.5092570000000  0.4220750000000 1.0
C      1  0.5192310000000  0.5264150000000  0.5184020000000 1.0
C      1  0.5112460000000  0.5606590000000  0.4176330000000 1.0
C      1  0.5338620000000  0.5448760000000  0.4245780000000 1.0
C      1  0.4785180000000  0.5608530000000  0.5777050000000 1.0
C      1  0.4544600000000  0.5835090000000  0.4792410000000 1.0
C      1  0.5057910000000  0.5192310000000  0.4738730000000 1.0
C      1  0.5483030000000  0.4397020000000  0.4763520000000 1.0
C      1  0.5049470000000  0.5804390000000  0.5123980000000 1.0
C      1  0.5583200000000  0.4985900000000  0.5405330000000 1.0
C      1  0.5691320000000  0.5360670000000  0.5202180000000 1.0
C      1  0.5190230000000  0.5080500000000  0.3944500000000 1.0
C      1  0.4701680000000  0.4993460000000  0.4010420000000 1.0
C      1  0.5423480000000  0.5710220000000  0.5426360000000 1.0
C      1  0.5617340000000  0.4722820000000  0.5129600000000 1.0
C      1  0.5663210000000  0.5342400000000  0.4614530000000 1.0
C      1  0.5453760000000  0.5522030000000  0.4501420000000 1.0
C      1  0.4177680000000  0.4991130000000  0.5267310000000 1.0
C      1  0.4584890000000  0.4670120000000  0.5675910000000 1.0
C      1  0.4383600000000  0.4357080000000  0.5047070000000 1.0
C      1  0.5426350000000  0.5324030000000  0.5682990000000 1.0
C      1  0.4472810000000  0.5352330000000  0.5140010000000 1.0
C      1  0.4957910000000  0.4905770000000  0.3934630000000 1.0
C      1  0.5135930000000  0.5217190000000  0.5621090000000 1.0
C      1  0.4538630000000  0.4647020000000  0.5380310000000 1.0
C      1  0.4848630000000  0.4566740000000  0.5761620000000 1.0
C      1  0.5557870000000  0.4746490000000  0.4462630000000 1.0
C      1  0.4906940000000  0.5490600000000  0.4327220000000 1.0
C      1  0.4541500000000  0.5765940000000  0.5275690000000 1.0
C      1  0.4498480000000  0.4937780000000  0.4906520000000 1.0
C      1  0.4697480000000  0.4189850000000  0.4699120000000 1.0
C      1  0.4881340000000  0.5215630000000  0.5217010000000 1.0
C      1  0.5067830000000  0.4159620000000  0.5311410000000 1.0
C      1  0.5108320000000  0.4258260000000  0.5580020000000 1.0
C      1  0.5343960000000  0.4629930000000  0.5755490000000 1.0
C      1  0.5395160000000  0.4660960000000  0.4912570000000 1.0
C      1  0.5354690000000  0.4145620000000  0.4900200000000 1.0
C      1  0.5079680000000  0.4739140000000  0.5665950000000 1.0
C      1  0.5093740000000  0.4775930000000  0.5329360000000 1.0
C      1  0.4819930000000  0.4891950000000  0.5257640000000 1.0
C      1  0.4427730000000  0.5067630000000  0.5155610000000 1.0
C      1  0.4959740000000  0.4511510000000  0.4239980000000 1.0
C      1  0.4327280000000  0.5101330000000  0.5687980000000 1.0
C      1  0.5383470000000  0.4375390000000  0.5609980000000 1.0
C      1  0.5003920000000  0.5225600000000  0.4436000000000 1.0
C      1  0.4565360000000  0.5472790000000  0.5663340000000 1.0
C      1  0.5479420000000  0.5692250000000  0.4949160000000 1.0
C      1  0.4732120000000  0.5638770000000  0.4490640000000 1.0
C      1  0.5392130000000  0.4459520000000  0.4480630000000 1.0
C      1  0.4969490000000  0.4925590000000  0.4823590000000 1.0
C      1  0.5811770000000  0.4694050000000  0.4628400000000 1.0
C      1  0.4560260000000  0.5180900000000  0.4725870000000 1.0
C      1  0.5386300000000  0.4879500000000  0.4685150000000 1.0
C      1  0.4777730000000  0.5053040000000  0.5877120000000 1.0
C      1  0.5284670000000  0.4282660000000  0.5154850000000 1.0
C      1  0.4889030000000  0.4288460000000  0.5754490000000 1.0
C      1  0.4586150000000  0.4360480000000  0.5260280000000 1.0
C      1  0.4925710000000  0.4488710000000  0.4804190000000 1.0
C      1  0.5291700000000  0.5643530000000  0.5173830000000 1.0
C      1  0.4863270000000  0.4804900000000  0.4557910000000 1.0
C      1  0.4185770000000  0.4578440000000  0.5066430000000 1.0
C      1  0.5522060000000  0.4336950000000  0.5330750000000 1.0
C      1  0.4841740000000  0.5756590000000  0.5321880000000 1.0
C      1  0.5041060000000  0.5006710000000  0.5794690000000 1.0
C      1  0.5351230000000  0.5165150000000  0.4170570000000 1.0
C      1  0.5125250000000  0.4743760000000  0.4135300000000 1.0
C      1  0.4714840000000  0.5083640000000  0.4471500000000 1.0
C      1  0.5277700000000  0.5308910000000  0.4887790000000 1.0
C      1  0.4248910000000  0.4770910000000  0.4803920000000 1.0
C      1  0.4682560000000  0.4554550000000  0.4255760000000 1.0
C      1  0.5700320000000  0.5509060000000  0.4951780000000 1.0
C      1  0.4501040000000  0.4372000000000  0.4784900000000 1.0
C      1  0.5251380000000  0.5732420000000  0.5663830000000 1.0
C      1  0.4382660000000  0.5762990000000  0.5010940000000 1.0
C      1  0.4889120000000  0.5355020000000  0.5499930000000 1.0
C      1  0.4756310000000  0.5653050000000  0.4769960000000 1.0
C      1  0.4362210000000  0.4563060000000  0.4628560000000 1.0
C      1  0.5606440000000  0.5065840000000  0.5700830000000 1.0
END
