TITL C-3577089-586-322 -2.33557047225735e-07 125000 -91.105802265172 0 0 16 (C2) n - 1
REM
REM in /home/bkarasulu/work/CARBON/AIRSS/Generating-Clusters/EDIP-Nigel-Params/with-SteepDescent/Higher-Symm/SD-CG/HFTN-CG
REM
REM
REM
REM
REM
REM ./C.cell (12c818d87b63d06a65506943cc24bca4)
REM
REM compiler GCC version 9.2.1 20190827 (Red Hat 9.2.1-1)
REM options -cpp -mtune=generic -march=x86-64 -g -O0 -fpre-include=/usr/include/finclude/math-vector-fortran.h
REM seed -158912709 1331454706 1894684630 1430270423 1867326634 -1989999395 1149158555 1070396373 -1445705536 2047815988 1488665551 287254042 1495996779 -1434939301 1641918659 1102188617 494303302 -1801065976 95579687 -294646234 -802024941 -2011326056 236323182 1953610017 1515797339 -1566475402 -1616670271 1200202379 -878378709 -1338590517 -2089229024 1656003590 1344214737
REM
CELL 1.54180   50.00000   50.00000   50.00000   90.00000   90.00000   90.00000
LATT -1
SFAC C  
C      1  0.5327640000000  0.5136450000000  0.4932750000000 1.0
C      1  0.4674240000000  0.4887680000000  0.4913630000000 1.0
C      1  0.4672570000000  0.5136860000000  0.5067470000000 1.0
C      1  0.5325580000000  0.4887030000000  0.5086190000000 1.0
C      1  0.5253140000000  0.5377970000000  0.5069450000000 1.0
C      1  0.4726150000000  0.4648360000000  0.5072920000000 1.0
C      1  0.4747450000000  0.5378480000000  0.4931160000000 1.0
C      1  0.5273300000000  0.4648050000000  0.4926520000000 1.0
C      1  0.4998210000000  0.5362650000000  0.4786150000000 1.0
C      1  0.5005250000000  0.4614110000000  0.4805860000000 1.0
C      1  0.5002360000000  0.5362300000000  0.5214430000000 1.0
C      1  0.4994140000000  0.4613810000000  0.5193530000000 1.0
C      1  0.5055300000000  0.5103580000000  0.4664950000000 1.0
C      1  0.4882350000000  0.4870110000000  0.4698910000000 1.0
C      1  0.4944860000000  0.5103130000000  0.5335220000000 1.0
C      1  0.5117440000000  0.4869440000000  0.5300890000000 1.0
END
