TITL C-3577078-809-75 -5.74340194082054e-06 125000 -403.58400707097 0 0 66 (C1) n - 1
REM
REM in /home/bkarasulu/work/CARBON/AIRSS/Generating-Clusters/EDIP-Nigel-Params/with-SteepDescent/Higher-Symm/SD-CG/HFTN-CG
REM
REM
REM
REM
REM
REM ./C.cell (12c818d87b63d06a65506943cc24bca4)
REM
REM compiler GCC version 9.2.1 20190827 (Red Hat 9.2.1-1)
REM options -cpp -mtune=generic -march=x86-64 -g -O0 -fpre-include=/usr/include/finclude/math-vector-fortran.h
REM seed -1168798433 -1122219592 1358643904 -1548595015 -394851438 -1526474982 -1522692637 -354680575 342418005 617315648 816183573 333739467 173246349 -611495295 1962511168 -2051121612 -1479787751 -570843891 -1528321473 1301646230 -37621234 1584762423 353220403 1477639423 863943966 919333530 1193210959 -1875705597 -1987040429 1191996096 162564496 -1789818415 -941688812
REM
CELL 1.54180   50.00000   50.00000   50.00000   90.00000   90.00000   90.00000
LATT -1
SFAC C  
C      1  0.5486440000000  0.5689670000000  0.4692680000000 1.0
C      1  0.4702420000000  0.5463930000000  0.5717090000000 1.0
C      1  0.5656010000000  0.4683900000000  0.5388450000000 1.0
C      1  0.4543120000000  0.4358040000000  0.4861650000000 1.0
C      1  0.4646010000000  0.5637800000000  0.5252220000000 1.0
C      1  0.5473850000000  0.4296000000000  0.5126430000000 1.0
C      1  0.5194990000000  0.4537490000000  0.5507170000000 1.0
C      1  0.5210120000000  0.5350830000000  0.4450170000000 1.0
C      1  0.4788830000000  0.4653250000000  0.4535680000000 1.0
C      1  0.4377230000000  0.5248850000000  0.5415770000000 1.0
C      1  0.4298060000000  0.4728000000000  0.4594850000000 1.0
C      1  0.5666620000000  0.5276470000000  0.4677610000000 1.0
C      1  0.5612740000000  0.5507670000000  0.4863430000000 1.0
C      1  0.5406340000000  0.4766800000000  0.5515610000000 1.0
C      1  0.4827090000000  0.5604580000000  0.5496100000000 1.0
C      1  0.4326990000000  0.4485030000000  0.4735680000000 1.0
C      1  0.5708480000000  0.4467870000000  0.5195210000000 1.0
C      1  0.4377670000000  0.5480810000000  0.5231170000000 1.0
C      1  0.4527590000000  0.5255750000000  0.5661430000000 1.0
C      1  0.5419490000000  0.5175070000000  0.4550110000000 1.0
C      1  0.4543150000000  0.4813860000000  0.4443480000000 1.0
C      1  0.5266900000000  0.4332420000000  0.5315740000000 1.0
C      1  0.4745380000000  0.4366560000000  0.4644000000000 1.0
C      1  0.5256580000000  0.5630740000000  0.4540540000000 1.0
C      1  0.4801760000000  0.5540590000000  0.4596800000000 1.0
C      1  0.4769780000000  0.4846860000000  0.5580650000000 1.0
C      1  0.5699370000000  0.4554170000000  0.4813210000000 1.0
C      1  0.5223560000000  0.4444460000000  0.4679480000000 1.0
C      1  0.5076400000000  0.5467970000000  0.5417690000000 1.0
C      1  0.4745000000000  0.4395970000000  0.5366270000000 1.0
C      1  0.5353540000000  0.5062360000000  0.5468500000000 1.0
C      1  0.5415670000000  0.4883950000000  0.4550740000000 1.0
C      1  0.4575140000000  0.5113760000000  0.4480650000000 1.0
C      1  0.4373470000000  0.5433460000000  0.4858710000000 1.0
C      1  0.4508510000000  0.4748320000000  0.5151150000000 1.0
C      1  0.5488580000000  0.5454270000000  0.5141290000000 1.0
C      1  0.5670920000000  0.4803910000000  0.4671090000000 1.0
C      1  0.4900280000000  0.4585950000000  0.5507770000000 1.0
C      1  0.4561850000000  0.5616410000000  0.4741390000000 1.0
C      1  0.4344980000000  0.5211170000000  0.4658260000000 1.0
C      1  0.5538760000000  0.5183020000000  0.5257850000000 1.0
C      1  0.4528770000000  0.4904080000000  0.5400000000000 1.0
C      1  0.5143230000000  0.5239500000000  0.5589080000000 1.0
C      1  0.4863550000000  0.5247350000000  0.4505000000000 1.0
C      1  0.5175470000000  0.4704370000000  0.4532660000000 1.0
C      1  0.5467430000000  0.4378850000000  0.4833490000000 1.0
C      1  0.4674420000000  0.4507120000000  0.5106670000000 1.0
C      1  0.5279810000000  0.5611450000000  0.5268970000000 1.0
C      1  0.4768200000000  0.5464280000000  0.5028980000000 1.0
C      1  0.5142470000000  0.4718490000000  0.5164540000000 1.0
C      1  0.5080810000000  0.5465210000000  0.4977150000000 1.0
C      1  0.4843120000000  0.5113330000000  0.5302000000000 1.0
C      1  0.5442900000000  0.4741800000000  0.5076990000000 1.0
C      1  0.4936010000000  0.4598040000000  0.4972120000000 1.0
C      1  0.5058930000000  0.4999480000000  0.5144470000000 1.0
C      1  0.5177050000000  0.5159630000000  0.4923500000000 1.0
C      1  0.4826670000000  0.4817780000000  0.4786970000000 1.0
C      1  0.4658540000000  0.5183500000000  0.5083450000000 1.0
C      1  0.4564550000000  0.4934440000000  0.4932350000000 1.0
C      1  0.5490040000000  0.5035130000000  0.4999530000000 1.0
C      1  0.5038830000000  0.5649960000000  0.4729100000000 1.0
C      1  0.4887430000000  0.5123880000000  0.5720170000000 1.0
C      1  0.5796760000000  0.5040370000000  0.4789090000000 1.0
C      1  0.4998920000000  0.4289590000000  0.4756350000000 1.0
C      1  0.5025470000000  0.5033130000000  0.4689120000000 1.0
C      1  0.4292370000000  0.4954650000000  0.4784260000000 1.0
END
