TITL C-3577086-586-369 -3.73776367334538e-06 125000 -942.260443922958 0 0 152 (C1) n - 1
REM
REM in /home/bkarasulu/work/CARBON/AIRSS/Generating-Clusters/EDIP-Nigel-Params/with-SteepDescent/Higher-Symm/SD-CG/HFTN-CG
REM
REM
REM
REM
REM
REM ./C.cell (12c818d87b63d06a65506943cc24bca4)
REM
REM compiler GCC version 9.2.1 20190827 (Red Hat 9.2.1-1)
REM options -cpp -mtune=generic -march=x86-64 -g -O0 -fpre-include=/usr/include/finclude/math-vector-fortran.h
REM seed 185428146 -1042131482 -1621696038 1957613778 767036869 1099772960 784125 1204984278 -1278761555 -1704690152 1253926933 -1424902370 95826730 -933243071 -1996038960 -2141356619 141205062 1500794412 1183705813 -634542977 1607328849 -635972841 -854304313 1138471507 -830113645 -1363743792 -620150578 -1293060717 1001636973 1416721608 2052496294 -399518391 1095145018
REM
CELL 1.54180   50.00000   50.00000   50.00000   90.00000   90.00000   90.00000
LATT -1
SFAC C  
C      1  0.4891440000000  0.5352750000000  0.4066580000000 1.0
C      1  0.4248480000000  0.5369230000000  0.5569230000000 1.0
C      1  0.5841020000000  0.5328770000000  0.5331880000000 1.0
C      1  0.4722380000000  0.4686300000000  0.4688060000000 1.0
C      1  0.4813490000000  0.4734230000000  0.5495090000000 1.0
C      1  0.5562120000000  0.4674030000000  0.4825620000000 1.0
C      1  0.5386220000000  0.4624100000000  0.5746190000000 1.0
C      1  0.5476280000000  0.4619290000000  0.4269260000000 1.0
C      1  0.4151290000000  0.4628100000000  0.4948580000000 1.0
C      1  0.5530770000000  0.5345120000000  0.4952290000000 1.0
C      1  0.4624470000000  0.5349280000000  0.4544310000000 1.0
C      1  0.4758550000000  0.5370120000000  0.5561410000000 1.0
C      1  0.4398670000000  0.4463810000000  0.4961240000000 1.0
C      1  0.5268970000000  0.4591430000000  0.5454250000000 1.0
C      1  0.5337100000000  0.4444940000000  0.4464980000000 1.0
C      1  0.5048700000000  0.4021230000000  0.4516420000000 1.0
C      1  0.4559060000000  0.4048720000000  0.5205580000000 1.0
C      1  0.5416980000000  0.4053080000000  0.5295600000000 1.0
C      1  0.5288950000000  0.5250660000000  0.3900940000000 1.0
C      1  0.3918850000000  0.5279020000000  0.5289620000000 1.0
C      1  0.5790670000000  0.5255470000000  0.5766850000000 1.0
C      1  0.5605750000000  0.5475860000000  0.4361330000000 1.0
C      1  0.4141600000000  0.5466670000000  0.4807320000000 1.0
C      1  0.5248000000000  0.5479430000000  0.5852270000000 1.0
C      1  0.4790780000000  0.5342300000000  0.5996430000000 1.0
C      1  0.5939130000000  0.5286710000000  0.4729240000000 1.0
C      1  0.4250360000000  0.5337100000000  0.4329100000000 1.0
C      1  0.5726080000000  0.5223610000000  0.4258180000000 1.0
C      1  0.4003860000000  0.5212580000000  0.4743570000000 1.0
C      1  0.5285590000000  0.5228580000000  0.6015240000000 1.0
C      1  0.4881160000000  0.5770320000000  0.5700310000000 1.0
C      1  0.5624820000000  0.5738310000000  0.4767330000000 1.0
C      1  0.4450390000000  0.5755120000000  0.4580570000000 1.0
C      1  0.5147660000000  0.5524250000000  0.5274190000000 1.0
C      1  0.5098260000000  0.5489490000000  0.4722190000000 1.0
C      1  0.4638980000000  0.5540810000000  0.5048260000000 1.0
C      1  0.4243890000000  0.5034170000000  0.4835250000000 1.0
C      1  0.5272470000000  0.5049810000000  0.5752340000000 1.0
C      1  0.5507110000000  0.5041200000000  0.4381120000000 1.0
C      1  0.5524260000000  0.5140790000000  0.4718180000000 1.0
C      1  0.4491200000000  0.5099930000000  0.4670900000000 1.0
C      1  0.4997380000000  0.5172240000000  0.5645060000000 1.0
C      1  0.5231730000000  0.5398460000000  0.4997900000000 1.0
C      1  0.4782860000000  0.5519190000000  0.4753140000000 1.0
C      1  0.4840630000000  0.5424600000000  0.5273470000000 1.0
C      1  0.5079260000000  0.4896040000000  0.4083880000000 1.0
C      1  0.4190470000000  0.4918270000000  0.5405370000000 1.0
C      1  0.5754920000000  0.4872860000000  0.5505810000000 1.0
C      1  0.4137320000000  0.4827790000000  0.4457230000000 1.0
C      1  0.4969510000000  0.4840400000000  0.5998460000000 1.0
C      1  0.5862070000000  0.4820900000000  0.4532660000000 1.0
C      1  0.4567750000000  0.4303650000000  0.5632940000000 1.0
C      1  0.5819310000000  0.4245820000000  0.5039110000000 1.0
C      1  0.4665270000000  0.4291110000000  0.4312260000000 1.0
C      1  0.5932210000000  0.5105800000000  0.4473820000000 1.0
C      1  0.4062320000000  0.5123060000000  0.4444370000000 1.0
C      1  0.4995580000000  0.5127760000000  0.6086430000000 1.0
C      1  0.5363260000000  0.5844000000000  0.4719080000000 1.0
C      1  0.4529320000000  0.5903600000000  0.4826300000000 1.0
C      1  0.5057040000000  0.5891510000000  0.5500650000000 1.0
C      1  0.5166760000000  0.3941500000000  0.4771190000000 1.0
C      1  0.4724110000000  0.3973700000000  0.4983840000000 1.0
C      1  0.5136690000000  0.3990540000000  0.5268440000000 1.0
C      1  0.4809480000000  0.5199360000000  0.4326580000000 1.0
C      1  0.4500600000000  0.5205260000000  0.5546340000000 1.0
C      1  0.5656350000000  0.5149810000000  0.5163620000000 1.0
C      1  0.4883160000000  0.5958210000000  0.5279150000000 1.0
C      1  0.5261420000000  0.5929370000000  0.4972030000000 1.0
C      1  0.4810730000000  0.5958130000000  0.4785090000000 1.0
C      1  0.4540130000000  0.5119440000000  0.4191870000000 1.0
C      1  0.4511790000000  0.5135650000000  0.5834050000000 1.0
C      1  0.5882530000000  0.5074180000000  0.4968830000000 1.0
C      1  0.5735830000000  0.5516820000000  0.4618630000000 1.0
C      1  0.4240720000000  0.5558780000000  0.4551070000000 1.0
C      1  0.4970860000000  0.5568490000000  0.5891200000000 1.0
C      1  0.4941970000000  0.5113180000000  0.4739800000000 1.0
C      1  0.4873850000000  0.5129790000000  0.5195760000000 1.0
C      1  0.5079320000000  0.5144130000000  0.4992860000000 1.0
C      1  0.5192200000000  0.5082490000000  0.4322870000000 1.0
C      1  0.4353960000000  0.5113980000000  0.5111330000000 1.0
C      1  0.5486540000000  0.5041060000000  0.5429250000000 1.0
C      1  0.4340370000000  0.4678730000000  0.4299020000000 1.0
C      1  0.4724730000000  0.4699260000000  0.5919130000000 1.0
C      1  0.5978670000000  0.4654220000000  0.4749970000000 1.0
C      1  0.4884790000000  0.4339310000000  0.5172730000000 1.0
C      1  0.5237640000000  0.4322160000000  0.4978530000000 1.0
C      1  0.4933690000000  0.4319560000000  0.4803530000000 1.0
C      1  0.5365330000000  0.4897260000000  0.4766610000000 1.0
C      1  0.4694610000000  0.4952020000000  0.4805990000000 1.0
C      1  0.4985870000000  0.4974210000000  0.5421900000000 1.0
C      1  0.4932150000000  0.4687470000000  0.4491550000000 1.0
C      1  0.4579700000000  0.4727670000000  0.5313940000000 1.0
C      1  0.5570020000000  0.4657850000000  0.5121780000000 1.0
C      1  0.5691450000000  0.5742900000000  0.5045700000000 1.0
C      1  0.4640190000000  0.5755610000000  0.4364230000000 1.0
C      1  0.4603540000000  0.5777970000000  0.5623300000000 1.0
C      1  0.5361530000000  0.4784030000000  0.4049750000000 1.0
C      1  0.4040450000000  0.4811390000000  0.5161410000000 1.0
C      1  0.5631370000000  0.4792010000000  0.5767660000000 1.0
C      1  0.4828760000000  0.4425490000000  0.4122330000000 1.0
C      1  0.4330580000000  0.4439070000000  0.5573740000000 1.0
C      1  0.5917770000000  0.4387270000000  0.5265830000000 1.0
C      1  0.5008580000000  0.5116160000000  0.3883140000000 1.0
C      1  0.4035660000000  0.5143150000000  0.5535520000000 1.0
C      1  0.5947950000000  0.5105630000000  0.5550740000000 1.0
C      1  0.4561790000000  0.4436010000000  0.5208230000000 1.0
C      1  0.5413940000000  0.4435110000000  0.5235480000000 1.0
C      1  0.5049740000000  0.4408340000000  0.4497000000000 1.0
C      1  0.5115340000000  0.4930060000000  0.4578040000000 1.0
C      1  0.4625120000000  0.4972010000000  0.5107710000000 1.0
C      1  0.5255080000000  0.4868760000000  0.5349570000000 1.0
C      1  0.5301730000000  0.5501740000000  0.4365880000000 1.0
C      1  0.4332260000000  0.5420300000000  0.5059490000000 1.0
C      1  0.5344680000000  0.5434010000000  0.5556380000000 1.0
C      1  0.4572180000000  0.4432080000000  0.4722360000000 1.0
C      1  0.4986000000000  0.4489040000000  0.5445930000000 1.0
C      1  0.5446680000000  0.4408630000000  0.4734260000000 1.0
C      1  0.4053210000000  0.4689570000000  0.4689920000000 1.0
C      1  0.5201910000000  0.4684370000000  0.5954370000000 1.0
C      1  0.5742350000000  0.4679550000000  0.4324970000000 1.0
C      1  0.4765910000000  0.4070750000000  0.4482020000000 1.0
C      1  0.4670420000000  0.4089550000000  0.5464220000000 1.0
C      1  0.5583970000000  0.4062800000000  0.5062560000000 1.0
C      1  0.4160080000000  0.5490480000000  0.5294330000000 1.0
C      1  0.5651080000000  0.5433300000000  0.5557300000000 1.0
C      1  0.5179980000000  0.5462150000000  0.4097800000000 1.0
C      1  0.5992100000000  0.4804420000000  0.5008150000000 1.0
C      1  0.4555910000000  0.4827340000000  0.4172010000000 1.0
C      1  0.4480700000000  0.4843040000000  0.5845320000000 1.0
C      1  0.4438050000000  0.5866690000000  0.5103910000000 1.0
C      1  0.5340550000000  0.5810940000000  0.5456180000000 1.0
C      1  0.5205130000000  0.5776790000000  0.4478830000000 1.0
C      1  0.5440380000000  0.3986220000000  0.4829250000000 1.0
C      1  0.4632810000000  0.4016970000000  0.4722770000000 1.0
C      1  0.4950890000000  0.4053530000000  0.5468210000000 1.0
C      1  0.3907710000000  0.5068310000000  0.5068660000000 1.0
C      1  0.5620470000000  0.5058220000000  0.5919560000000 1.0
C      1  0.5500260000000  0.5054150000000  0.3993700000000 1.0
C      1  0.4510230000000  0.5546280000000  0.5803570000000 1.0
C      1  0.5879920000000  0.5508490000000  0.5041140000000 1.0
C      1  0.4562930000000  0.5525130000000  0.4188200000000 1.0
C      1  0.4778930000000  0.4448490000000  0.5774020000000 1.0
C      1  0.5831960000000  0.4386660000000  0.4777300000000 1.0
C      1  0.4407240000000  0.4406790000000  0.4378230000000 1.0
C      1  0.4891140000000  0.5823330000000  0.4530240000000 1.0
C      1  0.4613980000000  0.5873420000000  0.5334890000000 1.0
C      1  0.5441000000000  0.5840180000000  0.5178930000000 1.0
C      1  0.4835730000000  0.4707230000000  0.4200240000000 1.0
C      1  0.4323250000000  0.4725270000000  0.5612390000000 1.0
C      1  0.5839440000000  0.4666700000000  0.5233040000000 1.0
C      1  0.4982370000000  0.5939140000000  0.5012980000000 1.0
C      1  0.5009900000000  0.3946270000000  0.5013840000000 1.0
END
