TITL C-3578197-9521-420 2.47865881867817e-06 125000 -459.617602929327 0 0 74 (C1) n - 1
REM
REM in /home/bkarasulu/work/CARBON/AIRSS/Generating-Clusters/EDIP-Nigel-Params/with-SteepDescent/Higher-Symm/SD-CG/HFTN-CG
REM
REM
REM
REM
REM
REM ./C.cell (12c818d87b63d06a65506943cc24bca4)
REM
REM compiler GCC version 9.2.1 20190827 (Red Hat 9.2.1-1)
REM options -cpp -mtune=generic -march=x86-64 -g -O0 -fpre-include=/usr/include/finclude/math-vector-fortran.h
REM seed 1787234044 -327755180 364357653 -321430286 -1192575841 991449932 1734289335 1917017955 1187485447 250933296 1864214108 -587255312 1168207930 782600900 348463897 -1770578028 -1443939600 771050982 1916378866 -417412647 1933774437 1257077155 1106378121 -1868213030 -2019379641 2076165856 1471268966 -1916008944 1552600208 1525209242 1488821917 1921856732 1682575727
REM
CELL 1.54180   50.00000   50.00000   50.00000   90.00000   90.00000   90.00000
LATT -1
SFAC C  
C      1  0.4675390000000  0.4370480000000  0.5185530000000 1.0
C      1  0.5616410000000  0.4973740000000  0.5204750000000 1.0
C      1  0.4698660000000  0.5535300000000  0.5198720000000 1.0
C      1  0.4330060000000  0.4703160000000  0.5064180000000 1.0
C      1  0.5587610000000  0.4521600000000  0.5027500000000 1.0
C      1  0.5108930000000  0.5737180000000  0.5039930000000 1.0
C      1  0.5270360000000  0.4861980000000  0.4301410000000 1.0
C      1  0.4983670000000  0.5285700000000  0.4308270000000 1.0
C      1  0.4761820000000  0.4824970000000  0.4306920000000 1.0
C      1  0.5686990000000  0.4793890000000  0.4965320000000 1.0
C      1  0.4822430000000  0.5692510000000  0.4966550000000 1.0
C      1  0.4511990000000  0.4481570000000  0.4971630000000 1.0
C      1  0.5470830000000  0.4723130000000  0.4469040000000 1.0
C      1  0.5002920000000  0.5526650000000  0.4478900000000 1.0
C      1  0.4550840000000  0.4716030000000  0.4483580000000 1.0
C      1  0.5026570000000  0.4698420000000  0.4284960000000 1.0
C      1  0.5247150000000  0.5155410000000  0.4292640000000 1.0
C      1  0.4741420000000  0.5118460000000  0.4296940000000 1.0
C      1  0.4735660000000  0.5140000000000  0.5659570000000 1.0
C      1  0.5001950000000  0.4716830000000  0.5652490000000 1.0
C      1  0.5236380000000  0.5167650000000  0.5666940000000 1.0
C      1  0.5188380000000  0.5033800000000  0.5252370000000 1.0
C      1  0.4850170000000  0.5178350000000  0.5236910000000 1.0
C      1  0.4939020000000  0.4753810000000  0.5223520000000 1.0
C      1  0.5577390000000  0.4464150000000  0.5314240000000 1.0
C      1  0.5160200000000  0.5768960000000  0.5329870000000 1.0
C      1  0.4275010000000  0.4733970000000  0.5366410000000 1.0
C      1  0.4308590000000  0.5032560000000  0.5438530000000 1.0
C      1  0.5306620000000  0.4419060000000  0.5404950000000 1.0
C      1  0.5357950000000  0.5570450000000  0.5427660000000 1.0
C      1  0.4419450000000  0.5425970000000  0.5143310000000 1.0
C      1  0.4937260000000  0.4262420000000  0.5124900000000 1.0
C      1  0.5649360000000  0.5268810000000  0.5151220000000 1.0
C      1  0.4542700000000  0.5393500000000  0.4667100000000 1.0
C      1  0.4893850000000  0.4384020000000  0.4652500000000 1.0
C      1  0.5578710000000  0.5183470000000  0.4666750000000 1.0
C      1  0.4709270000000  0.5413920000000  0.5565840000000 1.0
C      1  0.4763800000000  0.4564750000000  0.5508340000000 1.0
C      1  0.5487300000000  0.5063940000000  0.5560900000000 1.0
C      1  0.4361930000000  0.4947350000000  0.4523720000000 1.0
C      1  0.5366140000000  0.4438270000000  0.4490100000000 1.0
C      1  0.5302070000000  0.5572570000000  0.4509520000000 1.0
C      1  0.5369000000000  0.5343960000000  0.5226320000000 1.0
C      1  0.4495540000000  0.5144600000000  0.5227550000000 1.0
C      1  0.5117850000000  0.4493460000000  0.5185270000000 1.0
C      1  0.4114430000000  0.5224520000000  0.4833380000000 1.0
C      1  0.5243620000000  0.4078910000000  0.4796990000000 1.0
C      1  0.5669400000000  0.5632080000000  0.4828300000000 1.0
C      1  0.5072040000000  0.4441320000000  0.4421930000000 1.0
C      1  0.5446380000000  0.5317760000000  0.4437130000000 1.0
C      1  0.4501010000000  0.5203130000000  0.4444250000000 1.0
C      1  0.5287030000000  0.4587110000000  0.4955350000000 1.0
C      1  0.5214650000000  0.5443960000000  0.4982700000000 1.0
C      1  0.4504330000000  0.4951210000000  0.4995500000000 1.0
C      1  0.5259430000000  0.4901340000000  0.4964860000000 1.0
C      1  0.4957490000000  0.5272050000000  0.4961440000000 1.0
C      1  0.4788690000000  0.4829490000000  0.4969470000000 1.0
C      1  0.5388270000000  0.5658870000000  0.4778150000000 1.0
C      1  0.4248680000000  0.4973590000000  0.4795450000000 1.0
C      1  0.5404160000000  0.4310970000000  0.4753290000000 1.0
C      1  0.5199410000000  0.5461790000000  0.5647020000000 1.0
C      1  0.4490260000000  0.4973390000000  0.5669790000000 1.0
C      1  0.5280920000000  0.4613890000000  0.5614600000000 1.0
C      1  0.4498750000000  0.4667700000000  0.5594570000000 1.0
C      1  0.5526880000000  0.4779150000000  0.5535760000000 1.0
C      1  0.4938150000000  0.5580960000000  0.5564710000000 1.0
C      1  0.5697850000000  0.5355400000000  0.4870930000000 1.0
C      1  0.4327310000000  0.5405970000000  0.4864390000000 1.0
C      1  0.4987540000000  0.4184900000000  0.4843220000000 1.0
C      1  0.4636750000000  0.4517960000000  0.4697170000000 1.0
C      1  0.5602600000000  0.4891360000000  0.4689730000000 1.0
C      1  0.4780840000000  0.5568910000000  0.4689050000000 1.0
C      1  0.4992810000000  0.5008300000000  0.5649700000000 1.0
C      1  0.4999460000000  0.5001310000000  0.4852380000000 1.0
END
