TITL C-3577087-600-703 7.12097396840681e-07 125000 -418.461971198111 0 0 70 (C1) n - 1
REM
REM in /home/bkarasulu/work/CARBON/AIRSS/Generating-Clusters/EDIP-Nigel-Params/with-SteepDescent/Higher-Symm/SD-CG/HFTN-CG
REM
REM
REM
REM
REM
REM ./C.cell (12c818d87b63d06a65506943cc24bca4)
REM
REM compiler GCC version 9.2.1 20190827 (Red Hat 9.2.1-1)
REM options -cpp -mtune=generic -march=x86-64 -g -O0 -fpre-include=/usr/include/finclude/math-vector-fortran.h
REM seed 782908219 1125663099 -493492546 1915063497 -1541162679 -155267923 1119631226 448835417 -334023917 264069525 1170047026 1301536119 -1021451302 1144384686 586485516 -1595271731 1460182484 1316414759 -1390098776 -1959409869 827109986 176447893 -445170404 -396233087 563355147 -777904283 -1041916077 113105879 1273022633 1317582626 -221997522 480183296 189827984
REM
CELL 1.54180   50.00000   50.00000   50.00000   90.00000   90.00000   90.00000
LATT -1
SFAC C  
C      1  0.5533270000000  0.5141470000000  0.4420160000000 1.0
C      1  0.4599980000000  0.5393360000000  0.4428790000000 1.0
C      1  0.4851930000000  0.4452030000000  0.4417980000000 1.0
C      1  0.5274850000000  0.5027960000000  0.4369500000000 1.0
C      1  0.4824980000000  0.5225530000000  0.4371870000000 1.0
C      1  0.4879200000000  0.4733990000000  0.4367320000000 1.0
C      1  0.4773550000000  0.5725920000000  0.5278480000000 1.0
C      1  0.4484730000000  0.4441000000000  0.5268900000000 1.0
C      1  0.5729060000000  0.4836220000000  0.5273730000000 1.0
C      1  0.5123740000000  0.4517350000000  0.4765260000000 1.0
C      1  0.5343650000000  0.5351870000000  0.4765080000000 1.0
C      1  0.4512560000000  0.5129600000000  0.4776560000000 1.0
C      1  0.5131220000000  0.4748390000000  0.5505820000000 1.0
C      1  0.5143520000000  0.5245540000000  0.5506430000000 1.0
C      1  0.4705440000000  0.5006390000000  0.5506270000000 1.0
C      1  0.5287150000000  0.4484310000000  0.5174150000000 1.0
C      1  0.5296090000000  0.5512060000000  0.5173530000000 1.0
C      1  0.4397240000000  0.5010920000000  0.5179640000000 1.0
C      1  0.4733110000000  0.5555060000000  0.5511730000000 1.0
C      1  0.4648210000000  0.4492150000000  0.5505370000000 1.0
C      1  0.5604430000000  0.4954900000000  0.5509210000000 1.0
C      1  0.4701760000000  0.4967770000000  0.4335900000000 1.0
C      1  0.5163940000000  0.4758610000000  0.4327440000000 1.0
C      1  0.5113700000000  0.5263250000000  0.4329980000000 1.0
C      1  0.4544300000000  0.4760560000000  0.5573850000000 1.0
C      1  0.5421890000000  0.4733150000000  0.5579170000000 1.0
C      1  0.5015610000000  0.5506320000000  0.5581350000000 1.0
C      1  0.4343110000000  0.5364040000000  0.4926040000000 1.0
C      1  0.5014420000000  0.4251180000000  0.4922930000000 1.0
C      1  0.5630560000000  0.5386310000000  0.4919920000000 1.0
C      1  0.5060030000000  0.5785240000000  0.5320030000000 1.0
C      1  0.4288610000000  0.4658700000000  0.5306820000000 1.0
C      1  0.5642420000000  0.4557310000000  0.5316930000000 1.0
C      1  0.5700520000000  0.5008940000000  0.4612460000000 1.0
C      1  0.4633110000000  0.5610310000000  0.4614170000000 1.0
C      1  0.4654570000000  0.4368260000000  0.4609300000000 1.0
C      1  0.4345420000000  0.5384230000000  0.5231970000000 1.0
C      1  0.4997060000000  0.4246090000000  0.5229260000000 1.0
C      1  0.5645270000000  0.5377580000000  0.5227230000000 1.0
C      1  0.5280410000000  0.5010490000000  0.5088450000000 1.0
C      1  0.4838260000000  0.5251840000000  0.5094160000000 1.0
C      1  0.4855600000000  0.4742320000000  0.5087870000000 1.0
C      1  0.4419730000000  0.5619160000000  0.4812940000000 1.0
C      1  0.4757970000000  0.4183790000000  0.4810400000000 1.0
C      1  0.5813310000000  0.5191750000000  0.4809360000000 1.0
C      1  0.4440240000000  0.5038620000000  0.4481950000000 1.0
C      1  0.5237310000000  0.4497350000000  0.4470520000000 1.0
C      1  0.5305600000000  0.5456640000000  0.4470770000000 1.0
C      1  0.4351390000000  0.4784790000000  0.4759330000000 1.0
C      1  0.5466060000000  0.4544930000000  0.4782020000000 1.0
C      1  0.5156110000000  0.5638060000000  0.4781910000000 1.0
C      1  0.5182180000000  0.5056410000000  0.4800090000000 1.0
C      1  0.4837070000000  0.5147630000000  0.4805740000000 1.0
C      1  0.4946720000000  0.4794140000000  0.4798880000000 1.0
C      1  0.5147480000000  0.4754970000000  0.5201170000000 1.0
C      1  0.5128000000000  0.5258320000000  0.5202310000000 1.0
C      1  0.4700850000000  0.4989700000000  0.5200850000000 1.0
C      1  0.5228500000000  0.5784490000000  0.5046150000000 1.0
C      1  0.4220210000000  0.4817660000000  0.5028930000000 1.0
C      1  0.5557200000000  0.4410630000000  0.5045820000000 1.0
C      1  0.4676170000000  0.4484120000000  0.5044410000000 1.0
C      1  0.5593560000000  0.4978680000000  0.5048230000000 1.0
C      1  0.4714620000000  0.5540500000000  0.5051400000000 1.0
C      1  0.4936550000000  0.4449840000000  0.5445570000000 1.0
C      1  0.5498130000000  0.5225290000000  0.5446040000000 1.0
C      1  0.4551840000000  0.5328740000000  0.5446730000000 1.0
C      1  0.4559250000000  0.4579520000000  0.4785800000000 1.0
C      1  0.5560470000000  0.4826650000000  0.4792750000000 1.0
C      1  0.4862640000000  0.5588310000000  0.4795030000000 1.0
C      1  0.4993030000000  0.4999880000000  0.5589730000000 1.0
END
