TITL C-3578206-1180-653 9.22791599214899e-07 125000 -582.043699735106 0 0 96 (C1) n - 1
REM
REM in /home/bkarasulu/work/CARBON/AIRSS/Generating-Clusters/EDIP-Nigel-Params/with-SteepDescent/Higher-Symm/SD-CG/HFTN-CG
REM
REM
REM
REM
REM
REM ./C.cell (12c818d87b63d06a65506943cc24bca4)
REM
REM compiler GCC version 9.2.1 20190827 (Red Hat 9.2.1-1)
REM options -cpp -mtune=generic -march=x86-64 -g -O0 -fpre-include=/usr/include/finclude/math-vector-fortran.h
REM seed -1242870440 -1452533294 -573167438 88898805 1167247011 1607460748 -1858164080 1622523944 -571286732 -1530162979 98568525 -1102282898 2036985636 1656874855 367787423 -584100072 1360153251 933021565 40822688 588028522 -2011587749 -1675795349 -1697801756 -1624607710 84457842 -269122913 -970746544 -2088736465 -554649586 -793748649 -583523175 -1835330109 153746552
REM
CELL 1.54180   50.00000   50.00000   50.00000   90.00000   90.00000   90.00000
LATT -1
SFAC C  
C      1  0.5654190000000  0.4665470000000  0.4705250000000 1.0
C      1  0.5532690000000  0.4560010000000  0.5593340000000 1.0
C      1  0.4762600000000  0.4605050000000  0.5645040000000 1.0
C      1  0.4319030000000  0.4610710000000  0.4822140000000 1.0
C      1  0.4871790000000  0.4583970000000  0.4205380000000 1.0
C      1  0.5631470000000  0.5402130000000  0.4688770000000 1.0
C      1  0.5533380000000  0.5370700000000  0.5526350000000 1.0
C      1  0.4673340000000  0.5369230000000  0.5696080000000 1.0
C      1  0.4292270000000  0.5387330000000  0.4754840000000 1.0
C      1  0.4965670000000  0.5349280000000  0.4250240000000 1.0
C      1  0.5612030000000  0.4940770000000  0.4295860000000 1.0
C      1  0.5859580000000  0.4961610000000  0.5234530000000 1.0
C      1  0.5113830000000  0.4859840000000  0.5870080000000 1.0
C      1  0.4022340000000  0.4957720000000  0.5332140000000 1.0
C      1  0.4488160000000  0.4862480000000  0.4175550000000 1.0
C      1  0.5526850000000  0.5196200000000  0.4265360000000 1.0
C      1  0.5889220000000  0.5227620000000  0.5207600000000 1.0
C      1  0.5057390000000  0.5126890000000  0.5903350000000 1.0
C      1  0.4058650000000  0.5225780000000  0.5392020000000 1.0
C      1  0.4529670000000  0.5132410000000  0.4160500000000 1.0
C      1  0.4924340000000  0.5806100000000  0.5382500000000 1.0
C      1  0.4601450000000  0.5778590000000  0.5021880000000 1.0
C      1  0.4853910000000  0.5842440000000  0.4606520000000 1.0
C      1  0.5312800000000  0.5855290000000  0.4728610000000 1.0
C      1  0.5371990000000  0.5861410000000  0.5212820000000 1.0
C      1  0.4933940000000  0.4145720000000  0.5371760000000 1.0
C      1  0.4596970000000  0.4220330000000  0.5027050000000 1.0
C      1  0.4797640000000  0.4115620000000  0.4607920000000 1.0
C      1  0.5257540000000  0.4167460000000  0.4709850000000 1.0
C      1  0.5363970000000  0.4156620000000  0.5187440000000 1.0
C      1  0.4243810000000  0.5124050000000  0.4683060000000 1.0
C      1  0.5080510000000  0.5078430000000  0.4199590000000 1.0
C      1  0.5785590000000  0.5168500000000  0.4712090000000 1.0
C      1  0.5549830000000  0.5113220000000  0.5685270000000 1.0
C      1  0.4582120000000  0.5105450000000  0.5737730000000 1.0
C      1  0.4247380000000  0.4859270000000  0.4721010000000 1.0
C      1  0.4970390000000  0.4833720000000  0.4113930000000 1.0
C      1  0.5791530000000  0.4905150000000  0.4799500000000 1.0
C      1  0.5568330000000  0.4824080000000  0.5713150000000 1.0
C      1  0.4635880000000  0.4838110000000  0.5736390000000 1.0
C      1  0.4621160000000  0.5756770000000  0.4735410000000 1.0
C      1  0.5115890000000  0.5763610000000  0.4553940000000 1.0
C      1  0.5459120000000  0.5793160000000  0.4957470000000 1.0
C      1  0.5209820000000  0.5767500000000  0.5420110000000 1.0
C      1  0.4651920000000  0.5731510000000  0.5302990000000 1.0
C      1  0.4579180000000  0.4213000000000  0.4747070000000 1.0
C      1  0.5051010000000  0.4188370000000  0.4521800000000 1.0
C      1  0.5416070000000  0.4243690000000  0.4926870000000 1.0
C      1  0.5199010000000  0.4222330000000  0.5405390000000 1.0
C      1  0.4691210000000  0.4247770000000  0.5288490000000 1.0
C      1  0.4662280000000  0.5209240000000  0.4588610000000 1.0
C      1  0.5246500000000  0.5105420000000  0.4645960000000 1.0
C      1  0.5399370000000  0.5192100000000  0.5129570000000 1.0
C      1  0.5036070000000  0.5267970000000  0.5464190000000 1.0
C      1  0.4326630000000  0.5314790000000  0.5305320000000 1.0
C      1  0.4651430000000  0.4779670000000  0.4587400000000 1.0
C      1  0.5204300000000  0.4738470000000  0.4450060000000 1.0
C      1  0.5615910000000  0.4822700000000  0.5248190000000 1.0
C      1  0.5096680000000  0.4833500000000  0.5405760000000 1.0
C      1  0.4269180000000  0.4840130000000  0.5248110000000 1.0
C      1  0.5271880000000  0.4723980000000  0.4956520000000 1.0
C      1  0.5053800000000  0.4682310000000  0.5167110000000 1.0
C      1  0.4765040000000  0.4728420000000  0.5068570000000 1.0
C      1  0.4828400000000  0.4666350000000  0.4786170000000 1.0
C      1  0.5106190000000  0.4690740000000  0.4724470000000 1.0
C      1  0.5175210000000  0.5363320000000  0.5053350000000 1.0
C      1  0.4970130000000  0.5446710000000  0.5238190000000 1.0
C      1  0.4705500000000  0.5359750000000  0.5072110000000 1.0
C      1  0.4804920000000  0.5355560000000  0.4791730000000 1.0
C      1  0.5061520000000  0.5246860000000  0.4829420000000 1.0
C      1  0.5605650000000  0.5544530000000  0.4949500000000 1.0
C      1  0.5291840000000  0.5536990000000  0.5593260000000 1.0
C      1  0.4535770000000  0.5494140000000  0.5457300000000 1.0
C      1  0.4467880000000  0.5553300000000  0.4581250000000 1.0
C      1  0.5168420000000  0.5511820000000  0.4406870000000 1.0
C      1  0.5507010000000  0.4525910000000  0.4952190000000 1.0
C      1  0.5261980000000  0.4438940000000  0.5608020000000 1.0
C      1  0.4626610000000  0.4490610000000  0.5414930000000 1.0
C      1  0.4442760000000  0.4437940000000  0.4620060000000 1.0
C      1  0.5067280000000  0.4402360000000  0.4326430000000 1.0
C      1  0.5061820000000  0.4666270000000  0.5654670000000 1.0
C      1  0.4434740000000  0.4615310000000  0.5109110000000 1.0
C      1  0.4599130000000  0.4634600000000  0.4321570000000 1.0
C      1  0.5505640000000  0.4732530000000  0.4449560000000 1.0
C      1  0.5631270000000  0.4544130000000  0.5316550000000 1.0
C      1  0.4982070000000  0.5362870000000  0.5749460000000 1.0
C      1  0.4328560000000  0.5438610000000  0.5035490000000 1.0
C      1  0.4661060000000  0.5342600000000  0.4314080000000 1.0
C      1  0.5401980000000  0.5326230000000  0.4491820000000 1.0
C      1  0.5639890000000  0.5372540000000  0.5217910000000 1.0
C      1  0.5370500000000  0.4992280000000  0.5367290000000 1.0
C      1  0.4450550000000  0.5053430000000  0.5266570000000 1.0
C      1  0.4882700000000  0.5002610000000  0.4509460000000 1.0
C      1  0.5427130000000  0.4997390000000  0.4886330000000 1.0
C      1  0.4861340000000  0.5027230000000  0.5437800000000 1.0
C      1  0.4718560000000  0.5038340000000  0.5171670000000 1.0
END
