TITL C-3577083-591-765 -4.50181545630731e-06 125000 -628.037038067149 0 0 102 (C1) n - 1
REM
REM in /home/bkarasulu/work/CARBON/AIRSS/Generating-Clusters/EDIP-Nigel-Params/with-SteepDescent/Higher-Symm/SD-CG/HFTN-CG
REM
REM
REM
REM
REM
REM ./C.cell (12c818d87b63d06a65506943cc24bca4)
REM
REM compiler GCC version 9.2.1 20190827 (Red Hat 9.2.1-1)
REM options -cpp -mtune=generic -march=x86-64 -g -O0 -fpre-include=/usr/include/finclude/math-vector-fortran.h
REM seed 1636634682 709587608 -1651056792 1323546523 -1035448169 662017009 -1495982008 739017355 540208036 -142585524 -1828276469 1906291326 134286576 -744950082 1792362300 -106675048 -1985818082 307625603 110459555 94603288 1894885489 -1739292812 -650069082 -571787804 -1340863249 224958302 -526706892 700302373 -1470102558 923304804 1411148229 952900051 762494993
REM
CELL 1.54180   50.00000   50.00000   50.00000   90.00000   90.00000   90.00000
LATT -1
SFAC C  
C      1  0.4323130000000  0.5264960000000  0.4448890000000 1.0
C      1  0.4355880000000  0.4232440000000  0.5294270000000 1.0
C      1  0.5280820000000  0.4464200000000  0.4322900000000 1.0
C      1  0.5726520000000  0.4723560000000  0.4364500000000 1.0
C      1  0.5693220000000  0.5247310000000  0.5530950000000 1.0
C      1  0.4328520000000  0.4663950000000  0.5604260000000 1.0
C      1  0.5574580000000  0.5717870000000  0.5248780000000 1.0
C      1  0.5592940000000  0.4244300000000  0.4720250000000 1.0
C      1  0.4422780000000  0.5728060000000  0.4737380000000 1.0
C      1  0.4758490000000  0.5557590000000  0.4298440000000 1.0
C      1  0.4649680000000  0.4457850000000  0.5684540000000 1.0
C      1  0.5260760000000  0.5540310000000  0.5670840000000 1.0
C      1  0.4230150000000  0.5248300000000  0.5595110000000 1.0
C      1  0.4430740000000  0.4266280000000  0.4729180000000 1.0
C      1  0.5227930000000  0.4405310000000  0.5726340000000 1.0
C      1  0.5668180000000  0.4668040000000  0.5514390000000 1.0
C      1  0.5765980000000  0.5287520000000  0.4379580000000 1.0
C      1  0.4314850000000  0.4712740000000  0.4428740000000 1.0
C      1  0.5565600000000  0.5736140000000  0.4653850000000 1.0
C      1  0.5568830000000  0.4355380000000  0.5313060000000 1.0
C      1  0.4392690000000  0.5711890000000  0.5316860000000 1.0
C      1  0.4713500000000  0.5568270000000  0.5705270000000 1.0
C      1  0.4763750000000  0.4422610000000  0.4274920000000 1.0
C      1  0.5352980000000  0.5627360000000  0.4349590000000 1.0
C      1  0.5320740000000  0.4189540000000  0.4744500000000 1.0
C      1  0.4778100000000  0.5278650000000  0.4327880000000 1.0
C      1  0.4210930000000  0.4697830000000  0.5338610000000 1.0
C      1  0.4704580000000  0.5753050000000  0.4729790000000 1.0
C      1  0.4638810000000  0.4234500000000  0.5281690000000 1.0
C      1  0.5297320000000  0.5753020000000  0.5233200000000 1.0
C      1  0.5267930000000  0.4725320000000  0.4220250000000 1.0
C      1  0.5229810000000  0.5262070000000  0.5644790000000 1.0
C      1  0.4726530000000  0.4708000000000  0.5824070000000 1.0
C      1  0.5780540000000  0.5270810000000  0.5267040000000 1.0
C      1  0.5690050000000  0.4716330000000  0.4646110000000 1.0
C      1  0.4343920000000  0.5262290000000  0.4729280000000 1.0
C      1  0.5301740000000  0.4237180000000  0.5283690000000 1.0
C      1  0.4692630000000  0.5287800000000  0.5690370000000 1.0
C      1  0.4341330000000  0.4729090000000  0.4710790000000 1.0
C      1  0.4671340000000  0.5720590000000  0.5270270000000 1.0
C      1  0.4713710000000  0.4276550000000  0.4730190000000 1.0
C      1  0.5312220000000  0.5875640000000  0.4718930000000 1.0
C      1  0.5243330000000  0.4681200000000  0.5760800000000 1.0
C      1  0.5313560000000  0.5359330000000  0.4261120000000 1.0
C      1  0.4757890000000  0.4696760000000  0.4217480000000 1.0
C      1  0.5711770000000  0.5279590000000  0.4656880000000 1.0
C      1  0.5792490000000  0.4739540000000  0.5255780000000 1.0
C      1  0.4209540000000  0.5233320000000  0.5317900000000 1.0
C      1  0.5731690000000  0.4469800000000  0.4810190000000 1.0
C      1  0.4849810000000  0.5761820000000  0.4469440000000 1.0
C      1  0.4495760000000  0.4868710000000  0.5721830000000 1.0
C      1  0.4279580000000  0.5516190000000  0.4863050000000 1.0
C      1  0.4285890000000  0.4473730000000  0.5160060000000 1.0
C      1  0.5696820000000  0.5509760000000  0.5109310000000 1.0
C      1  0.5153030000000  0.4314330000000  0.4529750000000 1.0
C      1  0.5126660000000  0.5649190000000  0.5450940000000 1.0
C      1  0.4804700000000  0.4263230000000  0.5529570000000 1.0
C      1  0.5481580000000  0.5112700000000  0.5657580000000 1.0
C      1  0.5506580000000  0.4881620000000  0.4278480000000 1.0
C      1  0.4522940000000  0.5136810000000  0.4297340000000 1.0
C      1  0.5692260000000  0.4513980000000  0.5100670000000 1.0
C      1  0.4843690000000  0.5720070000000  0.5506480000000 1.0
C      1  0.4542180000000  0.4847860000000  0.4335170000000 1.0
C      1  0.4311190000000  0.5480590000000  0.5165470000000 1.0
C      1  0.4285290000000  0.4474890000000  0.4858320000000 1.0
C      1  0.5714270000000  0.5533690000000  0.4808460000000 1.0
C      1  0.5105030000000  0.4298110000000  0.5500650000000 1.0
C      1  0.5148050000000  0.5755240000000  0.4505980000000 1.0
C      1  0.4864720000000  0.4260320000000  0.4480510000000 1.0
C      1  0.5535130000000  0.5174920000000  0.4263620000000 1.0
C      1  0.5451530000000  0.4824220000000  0.5619040000000 1.0
C      1  0.4442030000000  0.5155550000000  0.5753860000000 1.0
C      1  0.5168740000000  0.4701960000000  0.4649400000000 1.0
C      1  0.4604080000000  0.5152330000000  0.4839460000000 1.0
C      1  0.4725180000000  0.4502840000000  0.5166300000000 1.0
C      1  0.4902720000000  0.5184340000000  0.4587940000000 1.0
C      1  0.4771480000000  0.4768720000000  0.5394160000000 1.0
C      1  0.5076500000000  0.5165010000000  0.5400480000000 1.0
C      1  0.5431770000000  0.4849230000000  0.4732480000000 1.0
C      1  0.5423500000000  0.5178970000000  0.5038140000000 1.0
C      1  0.4571010000000  0.4808280000000  0.5117650000000 1.0
C      1  0.5173720000000  0.5335060000000  0.5144310000000 1.0
C      1  0.5110440000000  0.4538350000000  0.4908170000000 1.0
C      1  0.4834120000000  0.5527850000000  0.4856880000000 1.0
C      1  0.5075760000000  0.4845700000000  0.5391860000000 1.0
C      1  0.4617620000000  0.5242630000000  0.5152770000000 1.0
C      1  0.4831590000000  0.4475700000000  0.4903800000000 1.0
C      1  0.4764150000000  0.5149020000000  0.5426860000000 1.0
C      1  0.4902870000000  0.4872200000000  0.4587840000000 1.0
C      1  0.5187480000000  0.5327940000000  0.4618410000000 1.0
C      1  0.5429230000000  0.4860310000000  0.5043020000000 1.0
C      1  0.5436900000000  0.5170380000000  0.4725270000000 1.0
C      1  0.4608790000000  0.4845920000000  0.4809930000000 1.0
C      1  0.5126070000000  0.5506630000000  0.4870420000000 1.0
C      1  0.5176610000000  0.4744160000000  0.5125770000000 1.0
C      1  0.4798540000000  0.5477860000000  0.5142570000000 1.0
C      1  0.5213250000000  0.4180220000000  0.5013290000000 1.0
C      1  0.5203430000000  0.5870570000000  0.4989030000000 1.0
C      1  0.4234940000000  0.4963120000000  0.5213090000000 1.0
C      1  0.5006460000000  0.4840590000000  0.4218030000000 1.0
C      1  0.5778770000000  0.5012050000000  0.5131160000000 1.0
C      1  0.4992460000000  0.4812010000000  0.5772570000000 1.0
END
