TITL C-3578209-2550-308 -3.23722283735644e-07 125000 -221.72764569793 0 0 37 (C1) n - 1
REM
REM in /home/bkarasulu/work/CARBON/AIRSS/Generating-Clusters/EDIP-Nigel-Params/with-SteepDescent/Higher-Symm/SD-CG/HFTN-CG
REM
REM
REM
REM
REM
REM ./C.cell (12c818d87b63d06a65506943cc24bca4)
REM
REM compiler GCC version 9.2.1 20190827 (Red Hat 9.2.1-1)
REM options -cpp -mtune=generic -march=x86-64 -g -O0 -fpre-include=/usr/include/finclude/math-vector-fortran.h
REM seed 1788697065 1058604007 -202974953 -1378506209 1712157172 1855572128 230597943 1651038038 761807793 1028787937 -1627454128 1988907308 1267765933 -537331436 -1186917528 20379409 -348922510 1988695849 -107623587 1174661550 -552442420 2145162439 -985654760 244291197 1724737302 -2117143200 -1723780253 -95341395 -1508220981 -1349127385 -946779577 260539268 -63596616
REM
CELL 1.54180   50.00000   50.00000   50.00000   90.00000   90.00000   90.00000
LATT -1
SFAC C  
C      1  0.4688530000000  0.4731580000000  0.4869200000000 1.0
C      1  0.5298660000000  0.4898870000000  0.4884420000000 1.0
C      1  0.4914470000000  0.5399420000000  0.4873920000000 1.0
C      1  0.5308370000000  0.4737490000000  0.5136420000000 1.0
C      1  0.4666850000000  0.4879490000000  0.5120770000000 1.0
C      1  0.5061470000000  0.5351020000000  0.5121860000000 1.0
C      1  0.5362590000000  0.5330430000000  0.5130460000000 1.0
C      1  0.4547620000000  0.5152360000000  0.5130720000000 1.0
C      1  0.5091240000000  0.4525730000000  0.5134170000000 1.0
C      1  0.4618120000000  0.5317110000000  0.4878680000000 1.0
C      1  0.5448450000000  0.5170060000000  0.4880310000000 1.0
C      1  0.4918620000000  0.4526780000000  0.4868670000000 1.0
C      1  0.4635050000000  0.4897100000000  0.5599940000000 1.0
C      1  0.5321460000000  0.4741420000000  0.5628250000000 1.0
C      1  0.5089890000000  0.5385770000000  0.5599900000000 1.0
C      1  0.5416510000000  0.4864770000000  0.4410840000000 1.0
C      1  0.4685950000000  0.4747500000000  0.4372220000000 1.0
C      1  0.4925130000000  0.5409230000000  0.4380580000000 1.0
C      1  0.5441940000000  0.5134680000000  0.4409370000000 1.0
C      1  0.4669950000000  0.5319150000000  0.4406540000000 1.0
C      1  0.4915620000000  0.4605110000000  0.4389990000000 1.0
C      1  0.4557190000000  0.5155110000000  0.5625440000000 1.0
C      1  0.5355150000000  0.5366590000000  0.5521100000000 1.0
C      1  0.5103930000000  0.4577740000000  0.5615730000000 1.0
C      1  0.4654610000000  0.4883570000000  0.4616920000000 1.0
C      1  0.5324720000000  0.4727930000000  0.4638810000000 1.0
C      1  0.5058430000000  0.5345920000000  0.4620760000000 1.0
C      1  0.5325440000000  0.4885820000000  0.5386860000000 1.0
C      1  0.4714360000000  0.4750760000000  0.5375340000000 1.0
C      1  0.4926620000000  0.5362030000000  0.5374860000000 1.0
C      1  0.5455800000000  0.5146400000000  0.5365790000000 1.0
C      1  0.4640220000000  0.5288680000000  0.5388470000000 1.0
C      1  0.4930770000000  0.4549500000000  0.5393000000000 1.0
C      1  0.4563270000000  0.5166580000000  0.4619140000000 1.0
C      1  0.5351680000000  0.5294750000000  0.4623700000000 1.0
C      1  0.5084400000000  0.4549060000000  0.4609580000000 1.0
C      1  0.5047990000000  0.4983120000000  0.4875470000000 1.0
END
