TITL C-3577090-796-666 3.03874792874701e-06 125000 -638.989358937439 0 0 105 (C1) n - 1
REM
REM in /home/bkarasulu/work/CARBON/AIRSS/Generating-Clusters/EDIP-Nigel-Params/with-SteepDescent/Higher-Symm/SD-CG/HFTN-CG
REM
REM
REM
REM
REM
REM ./C.cell (12c818d87b63d06a65506943cc24bca4)
REM
REM compiler GCC version 9.2.1 20190827 (Red Hat 9.2.1-1)
REM options -cpp -mtune=generic -march=x86-64 -g -O0 -fpre-include=/usr/include/finclude/math-vector-fortran.h
REM seed 855268460 -1052308038 1701669721 -1812843402 -97971722 -1911869206 1118677311 -1931675418 56133155 -414065969 547272329 1679954586 721764003 -2109240005 -2031326336 -172121146 -1672084609 -2145357297 1968556995 1896235005 1178108831 -948275376 1627886512 1444692077 -1397288187 2006184878 -1719829941 1481172195 105425881 -954193857 -1075397557 -1343881752 -366443284
REM
CELL 1.54180   50.00000   50.00000   50.00000   90.00000   90.00000   90.00000
LATT -1
SFAC C  
C      1  0.4261190000000  0.4337360000000  0.4839830000000 1.0
C      1  0.4278740000000  0.5189500000000  0.5698860000000 1.0
C      1  0.4267450000000  0.5266870000000  0.4517290000000 1.0
C      1  0.5771140000000  0.4343180000000  0.4843040000000 1.0
C      1  0.5750430000000  0.5190930000000  0.5614890000000 1.0
C      1  0.5759270000000  0.5452840000000  0.4505620000000 1.0
C      1  0.4220390000000  0.5755090000000  0.5007320000000 1.0
C      1  0.4254440000000  0.4803640000000  0.5658210000000 1.0
C      1  0.4299130000000  0.4513600000000  0.4496320000000 1.0
C      1  0.5764370000000  0.5657830000000  0.4837760000000 1.0
C      1  0.5752530000000  0.4801130000000  0.5627670000000 1.0
C      1  0.5765580000000  0.4552160000000  0.4510970000000 1.0
C      1  0.4342200000000  0.5189550000000  0.5237630000000 1.0
C      1  0.4411450000000  0.5144690000000  0.4747010000000 1.0
C      1  0.4306470000000  0.4751730000000  0.4988430000000 1.0
C      1  0.5538500000000  0.5147770000000  0.5235380000000 1.0
C      1  0.5547390000000  0.5140100000000  0.4728160000000 1.0
C      1  0.5571140000000  0.4710630000000  0.4991840000000 1.0
C      1  0.4368450000000  0.4872340000000  0.5244950000000 1.0
C      1  0.4418620000000  0.4847590000000  0.4738850000000 1.0
C      1  0.4262070000000  0.5268700000000  0.4963530000000 1.0
C      1  0.5555980000000  0.4855830000000  0.5243960000000 1.0
C      1  0.5546230000000  0.4855370000000  0.4734300000000 1.0
C      1  0.5563340000000  0.5290210000000  0.4983550000000 1.0
C      1  0.4440900000000  0.4335450000000  0.5073960000000 1.0
C      1  0.4449670000000  0.5415600000000  0.5636590000000 1.0
C      1  0.4452220000000  0.5215210000000  0.4308930000000 1.0
C      1  0.5609270000000  0.4266810000000  0.5084070000000 1.0
C      1  0.5584200000000  0.5426850000000  0.5570040000000 1.0
C      1  0.5593870000000  0.5295180000000  0.4321780000000 1.0
C      1  0.4435040000000  0.5688480000000  0.5172070000000 1.0
C      1  0.4424750000000  0.4582820000000  0.5571560000000 1.0
C      1  0.4496490000000  0.4662140000000  0.4347360000000 1.0
C      1  0.5592310000000  0.5726170000000  0.5071420000000 1.0
C      1  0.5583960000000  0.4568730000000  0.5575310000000 1.0
C      1  0.5603880000000  0.4712370000000  0.4324180000000 1.0
C      1  0.5309520000000  0.4650490000000  0.4373160000000 1.0
C      1  0.5288610000000  0.4645940000000  0.5585360000000 1.0
C      1  0.5296770000000  0.5723930000000  0.4992380000000 1.0
C      1  0.4764630000000  0.4651760000000  0.4471080000000 1.0
C      1  0.4714260000000  0.4658550000000  0.5546780000000 1.0
C      1  0.4716930000000  0.5639120000000  0.5048850000000 1.0
C      1  0.5296340000000  0.5358610000000  0.4374400000000 1.0
C      1  0.5289260000000  0.5345070000000  0.5584110000000 1.0
C      1  0.5315490000000  0.4271070000000  0.5016600000000 1.0
C      1  0.4716950000000  0.5319100000000  0.4456560000000 1.0
C      1  0.4722820000000  0.5336080000000  0.5556400000000 1.0
C      1  0.4743390000000  0.4360290000000  0.5026260000000 1.0
C      1  0.5155850000000  0.5607480000000  0.5566460000000 1.0
C      1  0.5153200000000  0.5190280000000  0.4181580000000 1.0
C      1  0.5160500000000  0.4190170000000  0.5264640000000 1.0
C      1  0.4868970000000  0.5603520000000  0.5524930000000 1.0
C      1  0.4888210000000  0.5138990000000  0.4281260000000 1.0
C      1  0.4863950000000  0.4228570000000  0.5265780000000 1.0
C      1  0.5149840000000  0.4382810000000  0.5564670000000 1.0
C      1  0.5161810000000  0.4809260000000  0.4176200000000 1.0
C      1  0.5155400000000  0.5796600000000  0.5247470000000 1.0
C      1  0.4858850000000  0.4391180000000  0.5518710000000 1.0
C      1  0.4896140000000  0.4845150000000  0.4279780000000 1.0
C      1  0.4865620000000  0.5763340000000  0.5272770000000 1.0
C      1  0.4181210000000  0.5529750000000  0.4577450000000 1.0
C      1  0.4098170000000  0.4574220000000  0.4884160000000 1.0
C      1  0.4124940000000  0.5172890000000  0.5456210000000 1.0
C      1  0.5910150000000  0.5277810000000  0.4673540000000 1.0
C      1  0.5851640000000  0.4604320000000  0.4936840000000 1.0
C      1  0.5897170000000  0.5128570000000  0.5380370000000 1.0
C      1  0.4093220000000  0.4673730000000  0.4607930000000 1.0
C      1  0.4164510000000  0.5525670000000  0.4860850000000 1.0
C      1  0.4059010000000  0.4887840000000  0.5466030000000 1.0
C      1  0.5913180000000  0.4725870000000  0.4681700000000 1.0
C      1  0.5847860000000  0.5395770000000  0.4930620000000 1.0
C      1  0.5909620000000  0.4846270000000  0.5394520000000 1.0
C      1  0.5161600000000  0.5157900000000  0.5799310000000 1.0
C      1  0.5132590000000  0.5640870000000  0.4459210000000 1.0
C      1  0.5183410000000  0.4182540000000  0.4756570000000 1.0
C      1  0.4859630000000  0.5146230000000  0.5758500000000 1.0
C      1  0.4826770000000  0.5608940000000  0.4478970000000 1.0
C      1  0.4881770000000  0.4241310000000  0.4759670000000 1.0
C      1  0.5159840000000  0.4824860000000  0.5803080000000 1.0
C      1  0.5190810000000  0.4369970000000  0.4448070000000 1.0
C      1  0.5131930000000  0.5800340000000  0.4734440000000 1.0
C      1  0.4852730000000  0.4842110000000  0.5761420000000 1.0
C      1  0.4893820000000  0.4379980000000  0.4491800000000 1.0
C      1  0.4826860000000  0.5753050000000  0.4759730000000 1.0
C      1  0.4658710000000  0.5200440000000  0.5286190000000 1.0
C      1  0.4715850000000  0.5218330000000  0.4758310000000 1.0
C      1  0.4811860000000  0.4663010000000  0.5043170000000 1.0
C      1  0.5242380000000  0.5178710000000  0.5331940000000 1.0
C      1  0.5258140000000  0.5226270000000  0.4644430000000 1.0
C      1  0.5294880000000  0.4563230000000  0.4953690000000 1.0
C      1  0.4679120000000  0.4813250000000  0.5284220000000 1.0
C      1  0.4736680000000  0.4781920000000  0.4753530000000 1.0
C      1  0.4793520000000  0.5338880000000  0.5049980000000 1.0
C      1  0.5252380000000  0.4819180000000  0.5335760000000 1.0
C      1  0.5262360000000  0.4780670000000  0.4637230000000 1.0
C      1  0.5270830000000  0.5426030000000  0.4929970000000 1.0
C      1  0.5649270000000  0.4409930000000  0.5337660000000 1.0
C      1  0.4365640000000  0.5590820000000  0.5429220000000 1.0
C      1  0.4352270000000  0.4436670000000  0.5331830000000 1.0
C      1  0.5635940000000  0.5586610000000  0.5327760000000 1.0
C      1  0.4441670000000  0.4932150000000  0.4266720000000 1.0
C      1  0.5645390000000  0.5004640000000  0.4314210000000 1.0
C      1  0.5025450000000  0.4997660000000  0.4671510000000 1.0
C      1  0.5085620000000  0.5304320000000  0.5109980000000 1.0
C      1  0.5100970000000  0.4694680000000  0.5112860000000 1.0
END
