TITL C-3577087-600-206 -1.49251361934176e-06 125000 -1204.03012741588 0 0 193 (C1) n - 1
REM
REM in /home/bkarasulu/work/CARBON/AIRSS/Generating-Clusters/EDIP-Nigel-Params/with-SteepDescent/Higher-Symm/SD-CG/HFTN-CG
REM
REM
REM
REM
REM
REM ./C.cell (12c818d87b63d06a65506943cc24bca4)
REM
REM compiler GCC version 9.2.1 20190827 (Red Hat 9.2.1-1)
REM options -cpp -mtune=generic -march=x86-64 -g -O0 -fpre-include=/usr/include/finclude/math-vector-fortran.h
REM seed 394743653 1188321896 1722779428 -1787268387 -100881698 828312652 1660984698 -1269280021 1066403290 -538674245 -326543166 874058837 -1543418201 1028363788 -940256332 2123101307 -85020213 -944245442 994681931 1773895840 38985371 1569959668 -1713490996 1640180122 319684676 1835530335 -890248766 -1625678493 887480760 28116713 -135397187 -1386195157 594284448
REM
CELL 1.54180   50.00000   50.00000   50.00000   90.00000   90.00000   90.00000
LATT -1
SFAC C  
C      1  0.4136190000000  0.5591960000000  0.5405950000000 1.0
C      1  0.4159260000000  0.5408970000000  0.4420370000000 1.0
C      1  0.4141350000000  0.4407290000000  0.4596080000000 1.0
C      1  0.4144740000000  0.4593650000000  0.5590040000000 1.0
C      1  0.6015900000000  0.4937630000000  0.4730630000000 1.0
C      1  0.5944590000000  0.4792040000000  0.5176440000000 1.0
C      1  0.5974480000000  0.5094430000000  0.5184380000000 1.0
C      1  0.6011240000000  0.5185450000000  0.4890610000000 1.0
C      1  0.4379280000000  0.5286080000000  0.5873900000000 1.0
C      1  0.4370220000000  0.5909730000000  0.4725600000000 1.0
C      1  0.4376870000000  0.4716950000000  0.4116910000000 1.0
C      1  0.4395080000000  0.4124030000000  0.5284770000000 1.0
C      1  0.5134010000000  0.5197100000000  0.4550170000000 1.0
C      1  0.5136120000000  0.4542220000000  0.4718120000000 1.0
C      1  0.5145460000000  0.4754520000000  0.5461090000000 1.0
C      1  0.5076950000000  0.5425910000000  0.5286440000000 1.0
C      1  0.4188350000000  0.4289380000000  0.5156170000000 1.0
C      1  0.4178740000000  0.5154950000000  0.5708370000000 1.0
C      1  0.4176540000000  0.5720350000000  0.4846000000000 1.0
C      1  0.4163810000000  0.4842120000000  0.4277290000000 1.0
C      1  0.4932140000000  0.4604890000000  0.5637090000000 1.0
C      1  0.4925150000000  0.5644140000000  0.5400420000000 1.0
C      1  0.4935400000000  0.5373030000000  0.4375920000000 1.0
C      1  0.4947670000000  0.4347850000000  0.4601640000000 1.0
C      1  0.4571590000000  0.4076570000000  0.4494160000000 1.0
C      1  0.4564490000000  0.4486850000000  0.5934450000000 1.0
C      1  0.4574290000000  0.5935720000000  0.5511450000000 1.0
C      1  0.4572090000000  0.5523840000000  0.4078840000000 1.0
C      1  0.4694970000000  0.4701530000000  0.5188670000000 1.0
C      1  0.4715690000000  0.5180290000000  0.5300400000000 1.0
C      1  0.4684800000000  0.5314160000000  0.4803620000000 1.0
C      1  0.4723850000000  0.4795580000000  0.4666910000000 1.0
C      1  0.5491630000000  0.5042440000000  0.4832940000000 1.0
C      1  0.5690240000000  0.4803590000000  0.4893840000000 1.0
C      1  0.5471860000000  0.5013350000000  0.5299400000000 1.0
C      1  0.5612630000000  0.5195300000000  0.5078670000000 1.0
C      1  0.4995380000000  0.5281620000000  0.4075210000000 1.0
C      1  0.5024850000000  0.4064780000000  0.4731150000000 1.0
C      1  0.4997860000000  0.4718630000000  0.5945270000000 1.0
C      1  0.5024550000000  0.5923970000000  0.5269420000000 1.0
C      1  0.4032990000000  0.4474950000000  0.5331990000000 1.0
C      1  0.4028740000000  0.5329580000000  0.5519570000000 1.0
C      1  0.4030000000000  0.5530420000000  0.4665600000000 1.0
C      1  0.4022530000000  0.4662350000000  0.4474380000000 1.0
C      1  0.5724680000000  0.4293480000000  0.4853870000000 1.0
C      1  0.5721730000000  0.4834160000000  0.5722160000000 1.0
C      1  0.5705610000000  0.5717390000000  0.5167000000000 1.0
C      1  0.5706930000000  0.5151170000000  0.4266000000000 1.0
C      1  0.5085300000000  0.5424350000000  0.4985150000000 1.0
C      1  0.5117460000000  0.5142700000000  0.4866290000000 1.0
C      1  0.5130680000000  0.4560840000000  0.5022680000000 1.0
C      1  0.5194730000000  0.4832770000000  0.5163290000000 1.0
C      1  0.5788580000000  0.5439320000000  0.4260770000000 1.0
C      1  0.5804990000000  0.4319030000000  0.4554790000000 1.0
C      1  0.5803090000000  0.4544640000000  0.5764120000000 1.0
C      1  0.5786850000000  0.5714530000000  0.5449510000000 1.0
C      1  0.4488970000000  0.4468600000000  0.4250810000000 1.0
C      1  0.4499920000000  0.4252910000000  0.5534870000000 1.0
C      1  0.4491930000000  0.5533650000000  0.5743860000000 1.0
C      1  0.4410140000000  0.5850130000000  0.4437680000000 1.0
C      1  0.4852740000000  0.5544000000000  0.4863740000000 1.0
C      1  0.4878950000000  0.4831020000000  0.4408850000000 1.0
C      1  0.4869230000000  0.4478790000000  0.5123830000000 1.0
C      1  0.4872940000000  0.5142340000000  0.5559140000000 1.0
C      1  0.5835730000000  0.4585610000000  0.4424160000000 1.0
C      1  0.5824700000000  0.4406690000000  0.5497090000000 1.0
C      1  0.5831750000000  0.5451160000000  0.5567200000000 1.0
C      1  0.5853930000000  0.5561930000000  0.4529860000000 1.0
C      1  0.5562180000000  0.4544300000000  0.4849710000000 1.0
C      1  0.5602380000000  0.4788020000000  0.5452190000000 1.0
C      1  0.5509910000000  0.5487070000000  0.5137550000000 1.0
C      1  0.5572900000000  0.5122600000000  0.4543320000000 1.0
C      1  0.4789330000000  0.6147750000000  0.4453660000000 1.0
C      1  0.4788040000000  0.4439650000000  0.3872990000000 1.0
C      1  0.4812530000000  0.3884100000000  0.5567270000000 1.0
C      1  0.4789080000000  0.5564620000000  0.6124360000000 1.0
C      1  0.5097770000000  0.4815830000000  0.3905530000000 1.0
C      1  0.5138360000000  0.3884140000000  0.5203470000000 1.0
C      1  0.5109730000000  0.5205330000000  0.6051420000000 1.0
C      1  0.5134980000000  0.6057170000000  0.4788300000000 1.0
C      1  0.4435800000000  0.5372770000000  0.4940050000000 1.0
C      1  0.4458650000000  0.4929250000000  0.4637100000000 1.0
C      1  0.4445480000000  0.4635110000000  0.5048170000000 1.0
C      1  0.4457940000000  0.5042020000000  0.5346670000000 1.0
C      1  0.5244200000000  0.4305360000000  0.5908140000000 1.0
C      1  0.5243000000000  0.5877340000000  0.5703950000000 1.0
C      1  0.5240940000000  0.5694220000000  0.4142940000000 1.0
C      1  0.5215410000000  0.4083050000000  0.4283490000000 1.0
C      1  0.5737640000000  0.5824280000000  0.4550760000000 1.0
C      1  0.5715020000000  0.4606210000000  0.4165340000000 1.0
C      1  0.5732370000000  0.4132230000000  0.5483100000000 1.0
C      1  0.5753560000000  0.5434730000000  0.5835760000000 1.0
C      1  0.5458020000000  0.5384980000000  0.3915760000000 1.0
C      1  0.5485910000000  0.3954370000000  0.4610800000000 1.0
C      1  0.5464600000000  0.4636960000000  0.6097380000000 1.0
C      1  0.5483290000000  0.6079290000000  0.5391810000000 1.0
C      1  0.5479010000000  0.5118070000000  0.4041060000000 1.0
C      1  0.5523660000000  0.4035520000000  0.4889630000000 1.0
C      1  0.5481770000000  0.4888540000000  0.5942900000000 1.0
C      1  0.5519540000000  0.5968760000000  0.5119800000000 1.0
C      1  0.4186450000000  0.4936760000000  0.4780370000000 1.0
C      1  0.4182810000000  0.4784740000000  0.5053340000000 1.0
C      1  0.4186460000000  0.5057680000000  0.5207920000000 1.0
C      1  0.4181880000000  0.5213540000000  0.4935140000000 1.0
C      1  0.5180230000000  0.5033230000000  0.4092610000000 1.0
C      1  0.5235330000000  0.4071960000000  0.4990290000000 1.0
C      1  0.5180700000000  0.4964950000000  0.5896640000000 1.0
C      1  0.5236070000000  0.5896370000000  0.5019800000000 1.0
C      1  0.5339160000000  0.5452000000000  0.5380990000000 1.0
C      1  0.5382260000000  0.5337860000000  0.4507390000000 1.0
C      1  0.5400220000000  0.4516320000000  0.4604770000000 1.0
C      1  0.5389180000000  0.4601210000000  0.5524680000000 1.0
C      1  0.4764020000000  0.5757180000000  0.4144050000000 1.0
C      1  0.4751900000000  0.4109970000000  0.4247030000000 1.0
C      1  0.4761550000000  0.4251420000000  0.5896280000000 1.0
C      1  0.4760140000000  0.5890270000000  0.5753740000000 1.0
C      1  0.4646770000000  0.5483890000000  0.5386040000000 1.0
C      1  0.4648910000000  0.5349040000000  0.4506420000000 1.0
C      1  0.4659030000000  0.4498330000000  0.4604850000000 1.0
C      1  0.4651210000000  0.4612940000000  0.5486010000000 1.0
C      1  0.5316530000000  0.5388380000000  0.6026190000000 1.0
C      1  0.5323430000000  0.6085620000000  0.4589220000000 1.0
C      1  0.5301970000000  0.4630510000000  0.3891780000000 1.0
C      1  0.5329780000000  0.3845790000000  0.5402590000000 1.0
C      1  0.4125190000000  0.4271730000000  0.4863590000000 1.0
C      1  0.4122670000000  0.4862170000000  0.5720500000000 1.0
C      1  0.4111910000000  0.5722570000000  0.5137810000000 1.0
C      1  0.4119310000000  0.5141900000000  0.4289510000000 1.0
C      1  0.5925120000000  0.5660820000000  0.4989100000000 1.0
C      1  0.5948900000000  0.4990570000000  0.4257210000000 1.0
C      1  0.5942400000000  0.4327930000000  0.5042500000000 1.0
C      1  0.5943940000000  0.5017770000000  0.5674180000000 1.0
C      1  0.5609830000000  0.5900500000000  0.5586240000000 1.0
C      1  0.5604110000000  0.5577830000000  0.4081560000000 1.0
C      1  0.5546820000000  0.4197780000000  0.4446460000000 1.0
C      1  0.5608350000000  0.4428740000000  0.5951110000000 1.0
C      1  0.5157290000000  0.4933730000000  0.4382540000000 1.0
C      1  0.5287500000000  0.4331600000000  0.5121030000000 1.0
C      1  0.5144860000000  0.5031440000000  0.5604400000000 1.0
C      1  0.5315640000000  0.5604600000000  0.4930890000000 1.0
C      1  0.4333040000000  0.4274930000000  0.4420040000000 1.0
C      1  0.4339060000000  0.4420060000000  0.5724050000000 1.0
C      1  0.4336740000000  0.5725900000000  0.5574230000000 1.0
C      1  0.4384960000000  0.5576350000000  0.4323830000000 1.0
C      1  0.4725260000000  0.3956440000000  0.4747610000000 1.0
C      1  0.4701800000000  0.4745610000000  0.6049780000000 1.0
C      1  0.4728840000000  0.6048310000000  0.5256960000000 1.0
C      1  0.4704850000000  0.5263590000000  0.3964050000000 1.0
C      1  0.5391690000000  0.5215020000000  0.5542190000000 1.0
C      1  0.5440100000000  0.5594250000000  0.4650640000000 1.0
C      1  0.5423670000000  0.4734860000000  0.4393850000000 1.0
C      1  0.5412100000000  0.4333270000000  0.5391010000000 1.0
C      1  0.4823200000000  0.4717300000000  0.3882120000000 1.0
C      1  0.4861080000000  0.3916690000000  0.5294880000000 1.0
C      1  0.4834120000000  0.5292250000000  0.6083550000000 1.0
C      1  0.4852460000000  0.6089050000000  0.4717680000000 1.0
C      1  0.4486680000000  0.4414950000000  0.4856810000000 1.0
C      1  0.4483090000000  0.4861650000000  0.5574120000000 1.0
C      1  0.4475990000000  0.5584260000000  0.5140090000000 1.0
C      1  0.4483620000000  0.5112210000000  0.4416130000000 1.0
C      1  0.4595760000000  0.4890290000000  0.3980210000000 1.0
C      1  0.4631650000000  0.4011060000000  0.5118590000000 1.0
C      1  0.4605390000000  0.5115620000000  0.5993840000000 1.0
C      1  0.4621290000000  0.6003880000000  0.4891660000000 1.0
C      1  0.3928490000000  0.5348340000000  0.4855460000000 1.0
C      1  0.3928270000000  0.4856980000000  0.4653870000000 1.0
C      1  0.3929730000000  0.4651720000000  0.5138490000000 1.0
C      1  0.3930520000000  0.5137300000000  0.5339930000000 1.0
C      1  0.5437090000000  0.4569750000000  0.4127790000000 1.0
C      1  0.5457530000000  0.4055960000000  0.5533230000000 1.0
C      1  0.5499030000000  0.5313900000000  0.5824270000000 1.0
C      1  0.5458670000000  0.5865160000000  0.4488130000000 1.0
C      1  0.4703020000000  0.5737690000000  0.5027160000000 1.0
C      1  0.4696540000000  0.4998960000000  0.4244640000000 1.0
C      1  0.4718070000000  0.4270850000000  0.4974820000000 1.0
C      1  0.4701930000000  0.4975260000000  0.5737090000000 1.0
C      1  0.6010810000000  0.4816050000000  0.4468130000000 1.0
C      1  0.5965120000000  0.4508330000000  0.5256100000000 1.0
C      1  0.5973520000000  0.5211680000000  0.5470880000000 1.0
C      1  0.5954510000000  0.5461490000000  0.4795160000000 1.0
C      1  0.5203590000000  0.3929620000000  0.4527240000000 1.0
C      1  0.5188050000000  0.4527700000000  0.6085840000000 1.0
C      1  0.5202530000000  0.6053820000000  0.5478180000000 1.0
C      1  0.5180970000000  0.5486850000000  0.3946210000000 1.0
C      1  0.4629850000000  0.4298550000000  0.4056340000000 1.0
C      1  0.4644560000000  0.4060210000000  0.5705620000000 1.0
C      1  0.4630220000000  0.5705080000000  0.5941430000000 1.0
C      1  0.4628660000000  0.5979310000000  0.4295610000000 1.0
C      1  0.4999710000000  0.5667070000000  0.4308170000000 1.0
C      1  0.4994720000000  0.4261980000000  0.4311060000000 1.0
C      1  0.5003850000000  0.4321910000000  0.5737930000000 1.0
C      1  0.4995940000000  0.5720980000000  0.5688250000000 1.0
C      1  0.4835000000000  0.4999370000000  0.4975720000000 1.0
END
