TITL C-3578208-4450-383 -1.29451947419262e-06 125000 -634.64477802403 0 0 102 (C1) n - 1
REM
REM in /home/bkarasulu/work/CARBON/AIRSS/Generating-Clusters/EDIP-Nigel-Params/with-SteepDescent/Higher-Symm/SD-CG/HFTN-CG
REM
REM
REM
REM
REM
REM ./C.cell (12c818d87b63d06a65506943cc24bca4)
REM
REM compiler GCC version 9.2.1 20190827 (Red Hat 9.2.1-1)
REM options -cpp -mtune=generic -march=x86-64 -g -O0 -fpre-include=/usr/include/finclude/math-vector-fortran.h
REM seed -630448382 157338922 939821145 650562102 -149547308 -452381793 -367140097 -2120212518 1514169416 -905377897 112084431 1627981333 1928094047 -1972911432 326679322 75011008 1051649639 -1669497703 -362052880 712370071 538721574 -1931364881 2130349759 -1765838345 645658329 -1516250361 -996887250 2016257789 1471927045 -597926970 -1782422842 712632441 -1885023629
REM
CELL 1.54180   50.00000   50.00000   50.00000   90.00000   90.00000   90.00000
LATT -1
SFAC C  
C      1  0.4633180000000  0.5277850000000  0.4311540000000 1.0
C      1  0.5363850000000  0.4694620000000  0.5687660000000 1.0
C      1  0.5719080000000  0.5128220000000  0.5225620000000 1.0
C      1  0.4240010000000  0.4850710000000  0.4728990000000 1.0
C      1  0.5178730000000  0.5039430000000  0.5081490000000 1.0
C      1  0.4723930000000  0.4896690000000  0.4935490000000 1.0
C      1  0.4701600000000  0.5341960000000  0.5148490000000 1.0
C      1  0.5282560000000  0.4662400000000  0.4804160000000 1.0
C      1  0.4073640000000  0.4495460000000  0.5342640000000 1.0
C      1  0.5923270000000  0.5487070000000  0.4628080000000 1.0
C      1  0.4364740000000  0.4639550000000  0.4565990000000 1.0
C      1  0.5618050000000  0.5338410000000  0.5398950000000 1.0
C      1  0.4425440000000  0.5064260000000  0.4342290000000 1.0
C      1  0.5534970000000  0.4911420000000  0.5599600000000 1.0
C      1  0.5896690000000  0.5210940000000  0.4551610000000 1.0
C      1  0.4096680000000  0.4770220000000  0.5418020000000 1.0
C      1  0.4091990000000  0.4760800000000  0.4960610000000 1.0
C      1  0.5887100000000  0.5219580000000  0.5011300000000 1.0
C      1  0.5576830000000  0.4763580000000  0.4277220000000 1.0
C      1  0.4417350000000  0.5211230000000  0.5693590000000 1.0
C      1  0.4057260000000  0.4953510000000  0.5180550000000 1.0
C      1  0.5938760000000  0.5028680000000  0.4793760000000 1.0
C      1  0.4625990000000  0.5487330000000  0.5393680000000 1.0
C      1  0.5378030000000  0.4489620000000  0.4591870000000 1.0
C      1  0.4971750000000  0.4890810000000  0.4214080000000 1.0
C      1  0.5068260000000  0.5088960000000  0.5827750000000 1.0
C      1  0.4793250000000  0.5709850000000  0.5478430000000 1.0
C      1  0.5209100000000  0.4267180000000  0.4523980000000 1.0
C      1  0.5098530000000  0.4113690000000  0.4988450000000 1.0
C      1  0.4951200000000  0.5900970000000  0.5073020000000 1.0
C      1  0.4381910000000  0.5355740000000  0.4712740000000 1.0
C      1  0.5576960000000  0.4626770000000  0.5231280000000 1.0
C      1  0.5734040000000  0.4726980000000  0.4501030000000 1.0
C      1  0.4259710000000  0.5258020000000  0.5471920000000 1.0
C      1  0.4910120000000  0.5478190000000  0.4957810000000 1.0
C      1  0.5062510000000  0.4552970000000  0.4958560000000 1.0
C      1  0.5072190000000  0.5606570000000  0.4469620000000 1.0
C      1  0.4901810000000  0.4425980000000  0.5589060000000 1.0
C      1  0.5494840000000  0.5564380000000  0.5265470000000 1.0
C      1  0.4500960000000  0.4426760000000  0.4714170000000 1.0
C      1  0.5170800000000  0.5161780000000  0.5362230000000 1.0
C      1  0.4770280000000  0.4894350000000  0.4642140000000 1.0
C      1  0.5389500000000  0.4147510000000  0.5082550000000 1.0
C      1  0.4672540000000  0.5895540000000  0.4959890000000 1.0
C      1  0.4254020000000  0.5117660000000  0.4589270000000 1.0
C      1  0.5689490000000  0.4863320000000  0.5356680000000 1.0
C      1  0.5551260000000  0.5544600000000  0.4395990000000 1.0
C      1  0.4442350000000  0.4508090000000  0.5671610000000 1.0
C      1  0.5062870000000  0.4463980000000  0.5340720000000 1.0
C      1  0.4830790000000  0.5613480000000  0.4658430000000 1.0
C      1  0.4869200000000  0.4684390000000  0.5705750000000 1.0
C      1  0.5135560000000  0.5337850000000  0.4356580000000 1.0
C      1  0.5316280000000  0.4666320000000  0.4362850000000 1.0
C      1  0.4684280000000  0.5308460000000  0.5622350000000 1.0
C      1  0.4909600000000  0.5193660000000  0.4202500000000 1.0
C      1  0.5124880000000  0.4789180000000  0.5839160000000 1.0
C      1  0.4996490000000  0.5692640000000  0.5267510000000 1.0
C      1  0.5009320000000  0.4286660000000  0.4745740000000 1.0
C      1  0.4731090000000  0.5890390000000  0.4684720000000 1.0
C      1  0.5433940000000  0.4172660000000  0.5363270000000 1.0
C      1  0.4366080000000  0.4804530000000  0.5558450000000 1.0
C      1  0.5614880000000  0.5162070000000  0.4431690000000 1.0
C      1  0.5187970000000  0.5571010000000  0.5699350000000 1.0
C      1  0.4819460000000  0.4417250000000  0.4305530000000 1.0
C      1  0.4603520000000  0.5452630000000  0.4547300000000 1.0
C      1  0.5374650000000  0.4456580000000  0.5402360000000 1.0
C      1  0.5421500000000  0.5340050000000  0.4240600000000 1.0
C      1  0.4601240000000  0.4688680000000  0.5840530000000 1.0
C      1  0.5819130000000  0.5481650000000  0.4892710000000 1.0
C      1  0.4170430000000  0.4498850000000  0.5076610000000 1.0
C      1  0.4610350000000  0.4228310000000  0.5170130000000 1.0
C      1  0.5398560000000  0.5792720000000  0.4813080000000 1.0
C      1  0.5410680000000  0.5180300000000  0.5545620000000 1.0
C      1  0.4568710000000  0.4814640000000  0.4428550000000 1.0
C      1  0.5257760000000  0.5662070000000  0.5412290000000 1.0
C      1  0.4751300000000  0.4341450000000  0.4590640000000 1.0
C      1  0.4435040000000  0.4391780000000  0.4995980000000 1.0
C      1  0.5572830000000  0.5620440000000  0.4986430000000 1.0
C      1  0.5434000000000  0.5097710000000  0.4653840000000 1.0
C      1  0.4573870000000  0.4889600000000  0.5363080000000 1.0
C      1  0.4918910000000  0.4213470000000  0.5202100000000 1.0
C      1  0.5177820000000  0.5933850000000  0.4914350000000 1.0
C      1  0.4937490000000  0.5109300000000  0.5549690000000 1.0
C      1  0.5044950000000  0.4892080000000  0.4519110000000 1.0
C      1  0.4735370000000  0.4693330000000  0.4209090000000 1.0
C      1  0.5295360000000  0.5298950000000  0.5795660000000 1.0
C      1  0.4311710000000  0.5464870000000  0.4977900000000 1.0
C      1  0.5714700000000  0.4533630000000  0.4990280000000 1.0
C      1  0.4848720000000  0.4841690000000  0.5440660000000 1.0
C      1  0.5161510000000  0.5158690000000  0.4603630000000 1.0
C      1  0.5085930000000  0.5247650000000  0.4884290000000 1.0
C      1  0.4960680000000  0.4817990000000  0.5099020000000 1.0
C      1  0.4470250000000  0.5702140000000  0.5040020000000 1.0
C      1  0.5584000000000  0.4287640000000  0.4925470000000 1.0
C      1  0.5349680000000  0.5701150000000  0.4536810000000 1.0
C      1  0.4632340000000  0.4332750000000  0.5521990000000 1.0
C      1  0.5743310000000  0.4784940000000  0.4788710000000 1.0
C      1  0.4252710000000  0.5196310000000  0.5186480000000 1.0
C      1  0.5104430000000  0.4367230000000  0.4265590000000 1.0
C      1  0.4898070000000  0.5606870000000  0.5733620000000 1.0
C      1  0.4545100000000  0.5071220000000  0.5124040000000 1.0
C      1  0.5453570000000  0.4902070000000  0.4876190000000 1.0
END
