TITL C-3578209-2550-326 -1.41340616063656e-06 125000 -519.451612789732 0 0 85 (C1) n - 1
REM
REM in /home/bkarasulu/work/CARBON/AIRSS/Generating-Clusters/EDIP-Nigel-Params/with-SteepDescent/Higher-Symm/SD-CG/HFTN-CG
REM
REM
REM
REM
REM
REM ./C.cell (12c818d87b63d06a65506943cc24bca4)
REM
REM compiler GCC version 9.2.1 20190827 (Red Hat 9.2.1-1)
REM options -cpp -mtune=generic -march=x86-64 -g -O0 -fpre-include=/usr/include/finclude/math-vector-fortran.h
REM seed 1381574149 -1054467156 157294186 -826207300 -122860883 -272360848 384608495 830870786 2142669682 -1198703612 -56856074 -725653431 -1267447137 1166769733 1611327051 -140286438 1668618422 -585552337 434369635 -950778543 -713827719 1313115856 1681583351 615924803 -1381030355 84722951 -775877113 -998066003 1842864226 1641765588 -1318290312 1801421991 940426437
REM
CELL 1.54180   50.00000   50.00000   50.00000   90.00000   90.00000   90.00000
LATT -1
SFAC C  
C      1  0.5097470000000  0.5880710000000  0.4661520000000 1.0
C      1  0.5150910000000  0.5246910000000  0.5905150000000 1.0
C      1  0.5097310000000  0.4105530000000  0.5276970000000 1.0
C      1  0.5096300000000  0.4773950000000  0.4102470000000 1.0
C      1  0.4832980000000  0.5913050000000  0.4691370000000 1.0
C      1  0.4884130000000  0.5280240000000  0.5896420000000 1.0
C      1  0.4831010000000  0.4083000000000  0.5275330000000 1.0
C      1  0.4826750000000  0.4729780000000  0.4090550000000 1.0
C      1  0.5604020000000  0.4500800000000  0.4898650000000 1.0
C      1  0.5677990000000  0.5103910000000  0.4453690000000 1.0
C      1  0.5603200000000  0.5488660000000  0.5054580000000 1.0
C      1  0.5677120000000  0.4891550000000  0.5521810000000 1.0
C      1  0.4350160000000  0.4450480000000  0.4972000000000 1.0
C      1  0.4404470000000  0.5035270000000  0.4474120000000 1.0
C      1  0.4355260000000  0.5482590000000  0.5057150000000 1.0
C      1  0.4307640000000  0.4903100000000  0.5556520000000 1.0
C      1  0.4603860000000  0.5756810000000  0.4694020000000 1.0
C      1  0.4648120000000  0.5244710000000  0.5750410000000 1.0
C      1  0.4587850000000  0.4215460000000  0.5264220000000 1.0
C      1  0.4673360000000  0.4713680000000  0.4324690000000 1.0
C      1  0.5302900000000  0.5698000000000  0.4709940000000 1.0
C      1  0.5384970000000  0.5224670000000  0.5757810000000 1.0
C      1  0.5321660000000  0.4263290000000  0.5237610000000 1.0
C      1  0.5306710000000  0.4816550000000  0.4279480000000 1.0
C      1  0.4267680000000  0.4582600000000  0.5464200000000 1.0
C      1  0.4376690000000  0.4569200000000  0.4699300000000 1.0
C      1  0.4425270000000  0.5304990000000  0.4579220000000 1.0
C      1  0.4485580000000  0.5311330000000  0.5282480000000 1.0
C      1  0.5639430000000  0.4626150000000  0.5390780000000 1.0
C      1  0.5633410000000  0.4628240000000  0.4625680000000 1.0
C      1  0.5669800000000  0.5376170000000  0.4579300000000 1.0
C      1  0.5621950000000  0.5351610000000  0.5322770000000 1.0
C      1  0.4543940000000  0.4976660000000  0.5716680000000 1.0
C      1  0.4420920000000  0.4187540000000  0.5039510000000 1.0
C      1  0.4529070000000  0.4936520000000  0.4237710000000 1.0
C      1  0.4480080000000  0.5705600000000  0.4940530000000 1.0
C      1  0.5527300000000  0.4984650000000  0.5742770000000 1.0
C      1  0.5386350000000  0.4323710000000  0.4967640000000 1.0
C      1  0.5444600000000  0.5078200000000  0.4275440000000 1.0
C      1  0.5377050000000  0.5674160000000  0.4998880000000 1.0
C      1  0.5716910000000  0.5079440000000  0.5304440000000 1.0
C      1  0.5679530000000  0.4682640000000  0.5108310000000 1.0
C      1  0.5682510000000  0.4907280000000  0.4666370000000 1.0
C      1  0.5599920000000  0.5299880000000  0.4843790000000 1.0
C      1  0.4349990000000  0.5037300000000  0.5289000000000 1.0
C      1  0.4198210000000  0.4584700000000  0.5175640000000 1.0
C      1  0.4330600000000  0.4850070000000  0.4682310000000 1.0
C      1  0.4346070000000  0.5285660000000  0.4849240000000 1.0
C      1  0.4711820000000  0.4786640000000  0.5432530000000 1.0
C      1  0.4792960000000  0.4413710000000  0.4692560000000 1.0
C      1  0.4900020000000  0.5407060000000  0.4527350000000 1.0
C      1  0.4791860000000  0.5638220000000  0.5461130000000 1.0
C      1  0.5164730000000  0.4690840000000  0.5490890000000 1.0
C      1  0.5179210000000  0.4614490000000  0.4825400000000 1.0
C      1  0.5296040000000  0.5320250000000  0.4347000000000 1.0
C      1  0.5176350000000  0.5556170000000  0.5197270000000 1.0
C      1  0.5012350000000  0.5664480000000  0.5640580000000 1.0
C      1  0.4744370000000  0.4539760000000  0.5601190000000 1.0
C      1  0.4959180000000  0.4358880000000  0.4467000000000 1.0
C      1  0.4896350000000  0.5533410000000  0.4258110000000 1.0
C      1  0.5241200000000  0.5626370000000  0.5480260000000 1.0
C      1  0.5024570000000  0.4457910000000  0.5597980000000 1.0
C      1  0.5220060000000  0.4431020000000  0.4574960000000 1.0
C      1  0.5171660000000  0.5519740000000  0.4193500000000 1.0
C      1  0.4515410000000  0.4802750000000  0.5180410000000 1.0
C      1  0.4641230000000  0.4851900000000  0.4904760000000 1.0
C      1  0.4709330000000  0.5156920000000  0.4878430000000 1.0
C      1  0.4763060000000  0.5282650000000  0.5153680000000 1.0
C      1  0.5390960000000  0.4919100000000  0.5189670000000 1.0
C      1  0.5361170000000  0.4872140000000  0.4871580000000 1.0
C      1  0.5240140000000  0.5164620000000  0.4866270000000 1.0
C      1  0.5222040000000  0.5235120000000  0.5177380000000 1.0
C      1  0.4514030000000  0.4393050000000  0.5491470000000 1.0
C      1  0.4585250000000  0.4478860000000  0.4494750000000 1.0
C      1  0.4616560000000  0.5526000000000  0.4500240000000 1.0
C      1  0.4576630000000  0.5442030000000  0.5541000000000 1.0
C      1  0.5381740000000  0.4468990000000  0.5451120000000 1.0
C      1  0.5421300000000  0.4577210000000  0.4417570000000 1.0
C      1  0.5446630000000  0.5554860000000  0.4470530000000 1.0
C      1  0.5424370000000  0.5405640000000  0.5534370000000 1.0
C      1  0.4979480000000  0.4853760000000  0.5339450000000 1.0
C      1  0.4874590000000  0.4649020000000  0.4849240000000 1.0
C      1  0.4961880000000  0.5197230000000  0.4722830000000 1.0
C      1  0.4873970000000  0.5572870000000  0.5174320000000 1.0
C      1  0.4978850000000  0.5129950000000  0.5290260000000 1.0
END
