TITL C-3578201-9217-652 -3.26104124654941e-06 125000 -1049.0235107208 0 0 169 (C1) n - 1
REM
REM in /home/bkarasulu/work/CARBON/AIRSS/Generating-Clusters/EDIP-Nigel-Params/with-SteepDescent/Higher-Symm/SD-CG/HFTN-CG
REM
REM
REM
REM
REM
REM ./C.cell (12c818d87b63d06a65506943cc24bca4)
REM
REM compiler GCC version 9.2.1 20190827 (Red Hat 9.2.1-1)
REM options -cpp -mtune=generic -march=x86-64 -g -O0 -fpre-include=/usr/include/finclude/math-vector-fortran.h
REM seed -405366334 -1498825074 1957324761 -900580107 1512629023 -1766370251 -210588690 -1851109553 962179146 929740739 332745786 1079948585 -728670526 1838385740 24077489 1526702032 776295283 556432066 1954040556 -888466888 -296872011 -1899082970 -1007047571 447639894 -2085849500 1575130014 844846143 -938419042 -952260448 71196420 1894242470 -610035814 -1235759148
REM
CELL 1.54180   50.00000   50.00000   50.00000   90.00000   90.00000   90.00000
LATT -1
SFAC C  
C      1  0.4401710000000  0.5425030000000  0.5801200000000 1.0
C      1  0.5603060000000  0.4568920000000  0.4202250000000 1.0
C      1  0.5051870000000  0.4232940000000  0.4331690000000 1.0
C      1  0.4963960000000  0.5762230000000  0.5656690000000 1.0
C      1  0.4869250000000  0.5612970000000  0.5922680000000 1.0
C      1  0.5147650000000  0.4391170000000  0.4072940000000 1.0
C      1  0.4136150000000  0.5490960000000  0.5408850000000 1.0
C      1  0.5833880000000  0.4498800000000  0.4627690000000 1.0
C      1  0.5821520000000  0.5074570000000  0.5668470000000 1.0
C      1  0.4164710000000  0.4917250000000  0.4320920000000 1.0
C      1  0.5578060000000  0.5744290000000  0.5033650000000 1.0
C      1  0.4432110000000  0.4274660000000  0.4963560000000 1.0
C      1  0.5252480000000  0.4865150000000  0.5438780000000 1.0
C      1  0.4751650000000  0.5153570000000  0.4578560000000 1.0
C      1  0.5280820000000  0.4243810000000  0.4519430000000 1.0
C      1  0.4712490000000  0.5776310000000  0.5490560000000 1.0
C      1  0.4595210000000  0.5569970000000  0.5958000000000 1.0
C      1  0.5418270000000  0.4431070000000  0.4032610000000 1.0
C      1  0.5256670000000  0.5578920000000  0.5483440000000 1.0
C      1  0.4797280000000  0.4427030000000  0.4439090000000 1.0
C      1  0.3993980000000  0.4957990000000  0.4843660000000 1.0
C      1  0.5996680000000  0.5043050000000  0.5147820000000 1.0
C      1  0.4563390000000  0.4167990000000  0.5208120000000 1.0
C      1  0.5448770000000  0.5848900000000  0.4783960000000 1.0
C      1  0.5646630000000  0.5221830000000  0.5843230000000 1.0
C      1  0.4329130000000  0.4785280000000  0.4126600000000 1.0
C      1  0.5416470000000  0.5109380000000  0.5978550000000 1.0
C      1  0.4588650000000  0.4893860000000  0.4039940000000 1.0
C      1  0.4502490000000  0.5617450000000  0.5126150000000 1.0
C      1  0.5460430000000  0.4419640000000  0.4888520000000 1.0
C      1  0.5764960000000  0.5571720000000  0.5543090000000 1.0
C      1  0.4216550000000  0.4414760000000  0.4429610000000 1.0
C      1  0.4841970000000  0.5456340000000  0.4004060000000 1.0
C      1  0.5155650000000  0.4548980000000  0.5978060000000 1.0
C      1  0.5089160000000  0.4663430000000  0.4721480000000 1.0
C      1  0.4913830000000  0.5356150000000  0.5261960000000 1.0
C      1  0.5477760000000  0.5063340000000  0.4125080000000 1.0
C      1  0.4516980000000  0.4939350000000  0.5869340000000 1.0
C      1  0.5408670000000  0.5356890000000  0.4004620000000 1.0
C      1  0.4589200000000  0.4647800000000  0.5988550000000 1.0
C      1  0.5581820000000  0.4154470000000  0.4501390000000 1.0
C      1  0.4411990000000  0.5851520000000  0.5522790000000 1.0
C      1  0.5321290000000  0.4514380000000  0.4634600000000 1.0
C      1  0.4674620000000  0.5508130000000  0.5359540000000 1.0
C      1  0.4345550000000  0.4500250000000  0.4188730000000 1.0
C      1  0.5597440000000  0.5490170000000  0.5752560000000 1.0
C      1  0.5506370000000  0.5576620000000  0.4187210000000 1.0
C      1  0.4494690000000  0.4431300000000  0.5801360000000 1.0
C      1  0.5212030000000  0.4268330000000  0.5010080000000 1.0
C      1  0.4671750000000  0.5841260000000  0.5018730000000 1.0
C      1  0.4877950000000  0.4614500000000  0.6055480000000 1.0
C      1  0.5121010000000  0.5389690000000  0.3932220000000 1.0
C      1  0.6034570000000  0.5114480000000  0.4380500000000 1.0
C      1  0.3962590000000  0.4888420000000  0.5616660000000 1.0
C      1  0.5189860000000  0.5190330000000  0.4509620000000 1.0
C      1  0.4811420000000  0.4824350000000  0.5484760000000 1.0
C      1  0.5475440000000  0.5155270000000  0.4429160000000 1.0
C      1  0.4524630000000  0.4856810000000  0.5563500000000 1.0
C      1  0.4808990000000  0.5115510000000  0.5153630000000 1.0
C      1  0.5185330000000  0.4898920000000  0.4842030000000 1.0
C      1  0.4454870000000  0.5713600000000  0.4598330000000 1.0
C      1  0.5537490000000  0.4277090000000  0.5391720000000 1.0
C      1  0.5102040000000  0.4456490000000  0.5245240000000 1.0
C      1  0.4935160000000  0.5558930000000  0.4799390000000 1.0
C      1  0.5833280000000  0.5435740000000  0.4673220000000 1.0
C      1  0.4172010000000  0.4573330000000  0.5323210000000 1.0
C      1  0.4634350000000  0.4395600000000  0.5388370000000 1.0
C      1  0.5374060000000  0.5620750000000  0.4601430000000 1.0
C      1  0.5261650000000  0.5359960000000  0.6009460000000 1.0
C      1  0.4746130000000  0.4642460000000  0.4024210000000 1.0
C      1  0.3993680000000  0.5493500000000  0.4988010000000 1.0
C      1  0.6023480000000  0.4517400000000  0.5028450000000 1.0
C      1  0.4509260000000  0.5105890000000  0.5120550000000 1.0
C      1  0.5488000000000  0.4915370000000  0.4878020000000 1.0
C      1  0.6020340000000  0.4677070000000  0.4794060000000 1.0
C      1  0.3974070000000  0.5321930000000  0.5210870000000 1.0
C      1  0.5680660000000  0.5948460000000  0.5215940000000 1.0
C      1  0.4319000000000  0.4070620000000  0.4788680000000 1.0
C      1  0.5715130000000  0.4847880000000  0.4110510000000 1.0
C      1  0.4285930000000  0.5148810000000  0.5891390000000 1.0
C      1  0.5804500000000  0.4501860000000  0.5220480000000 1.0
C      1  0.4193620000000  0.5489650000000  0.4783470000000 1.0
C      1  0.5039920000000  0.4076410000000  0.5367470000000 1.0
C      1  0.4961560000000  0.5838930000000  0.4663390000000 1.0
C      1  0.4868440000000  0.4691130000000  0.4545190000000 1.0
C      1  0.5135240000000  0.5319740000000  0.5441710000000 1.0
C      1  0.4679750000000  0.4409190000000  0.4822930000000 1.0
C      1  0.5319800000000  0.5609490000000  0.5164470000000 1.0
C      1  0.4939260000000  0.4863650000000  0.5763630000000 1.0
C      1  0.5056580000000  0.5153100000000  0.4233710000000 1.0
C      1  0.5182340000000  0.5960390000000  0.5521200000000 1.0
C      1  0.4837580000000  0.3997600000000  0.4491520000000 1.0
C      1  0.5472990000000  0.4683790000000  0.4447220000000 1.0
C      1  0.4527330000000  0.5330860000000  0.5546070000000 1.0
C      1  0.5999260000000  0.4975780000000  0.4850690000000 1.0
C      1  0.3991490000000  0.5026560000000  0.5143980000000 1.0
C      1  0.4620450000000  0.4402370000000  0.4170480000000 1.0
C      1  0.5415060000000  0.5679950000000  0.5865340000000 1.0
C      1  0.3971220000000  0.4472680000000  0.4908540000000 1.0
C      1  0.6036100000000  0.5527890000000  0.5091990000000 1.0
C      1  0.5929140000000  0.4658130000000  0.5437830000000 1.0
C      1  0.4076750000000  0.5311310000000  0.4583830000000 1.0
C      1  0.4949760000000  0.5766700000000  0.5119690000000 1.0
C      1  0.4937080000000  0.4211830000000  0.4795080000000 1.0
C      1  0.4210300000000  0.4470270000000  0.5051610000000 1.0
C      1  0.5800520000000  0.5547210000000  0.4944200000000 1.0
C      1  0.4452640000000  0.4837300000000  0.4995420000000 1.0
C      1  0.5553670000000  0.5181520000000  0.4994820000000 1.0
C      1  0.6105690000000  0.4827520000000  0.5303700000000 1.0
C      1  0.3864190000000  0.5160420000000  0.4682550000000 1.0
C      1  0.4768370000000  0.5124790000000  0.4284750000000 1.0
C      1  0.5221040000000  0.4902210000000  0.5723400000000 1.0
C      1  0.4585280000000  0.5280000000000  0.3983690000000 1.0
C      1  0.5412640000000  0.4719740000000  0.6000960000000 1.0
C      1  0.5603470000000  0.4605960000000  0.5800170000000 1.0
C      1  0.4409110000000  0.5371730000000  0.4210380000000 1.0
C      1  0.5196270000000  0.4353030000000  0.5768320000000 1.0
C      1  0.4807340000000  0.5635890000000  0.4229380000000 1.0
C      1  0.5859330000000  0.4896420000000  0.4368990000000 1.0
C      1  0.4134090000000  0.5109040000000  0.5632350000000 1.0
C      1  0.4829320000000  0.4602140000000  0.5264570000000 1.0
C      1  0.5188600000000  0.5410370000000  0.4732980000000 1.0
C      1  0.5188440000000  0.4914080000000  0.4088830000000 1.0
C      1  0.4811150000000  0.5104510000000  0.5901890000000 1.0
C      1  0.5765020000000  0.4786150000000  0.5631280000000 1.0
C      1  0.4234810000000  0.5197080000000  0.4374940000000 1.0
C      1  0.5336930000000  0.5122780000000  0.5362900000000 1.0
C      1  0.4656090000000  0.4882540000000  0.4626530000000 1.0
C      1  0.5611020000000  0.4915780000000  0.4567420000000 1.0
C      1  0.4387500000000  0.5098880000000  0.5427790000000 1.0
C      1  0.4541530000000  0.5599220000000  0.4339650000000 1.0
C      1  0.5467810000000  0.4376260000000  0.5666630000000 1.0
C      1  0.5697200000000  0.4266750000000  0.4769480000000 1.0
C      1  0.4267420000000  0.5728060000000  0.5282260000000 1.0
C      1  0.4193300000000  0.5602690000000  0.5693040000000 1.0
C      1  0.5777510000000  0.4374840000000  0.4349840000000 1.0
C      1  0.4572500000000  0.4070130000000  0.4364290000000 1.0
C      1  0.5446100000000  0.5916650000000  0.5670240000000 1.0
C      1  0.4362670000000  0.4179490000000  0.4533020000000 1.0
C      1  0.5661180000000  0.5836680000000  0.5475010000000 1.0
C      1  0.4805920000000  0.4004110000000  0.5163100000000 1.0
C      1  0.5193290000000  0.5988370000000  0.4835880000000 1.0
C      1  0.6103130000000  0.5307250000000  0.5245730000000 1.0
C      1  0.3899020000000  0.4686570000000  0.4749010000000 1.0
C      1  0.5924310000000  0.5318350000000  0.5493640000000 1.0
C      1  0.4075060000000  0.4675490000000  0.4499290000000 1.0
C      1  0.4849100000000  0.3941730000000  0.4872810000000 1.0
C      1  0.5141250000000  0.5991550000000  0.5136500000000 1.0
C      1  0.4675780000000  0.5414330000000  0.4710660000000 1.0
C      1  0.5349040000000  0.4612120000000  0.5321300000000 1.0
C      1  0.5030690000000  0.4657180000000  0.4063270000000 1.0
C      1  0.4982930000000  0.5349120000000  0.5951130000000 1.0
C      1  0.6013050000000  0.5199880000000  0.4649010000000 1.0
C      1  0.3988340000000  0.4805250000000  0.5348230000000 1.0
C      1  0.5600260000000  0.5443690000000  0.4467330000000 1.0
C      1  0.4406610000000  0.4568360000000  0.5523540000000 1.0
C      1  0.4714010000000  0.4240000000000  0.5733650000000 1.0
C      1  0.5290520000000  0.5770990000000  0.4255270000000 1.0
C      1  0.4289220000000  0.4892230000000  0.4745740000000 1.0
C      1  0.5705970000000  0.5110790000000  0.5241570000000 1.0
C      1  0.5025010000000  0.5762980000000  0.4374150000000 1.0
C      1  0.4978030000000  0.4245760000000  0.5611200000000 1.0
C      1  0.5548230000000  0.4642580000000  0.5081760000000 1.0
C      1  0.4454410000000  0.5385870000000  0.4927920000000 1.0
C      1  0.5292090000000  0.5332970000000  0.5026130000000 1.0
C      1  0.4722090000000  0.4683580000000  0.4964640000000 1.0
C      1  0.4657690000000  0.5897420000000  0.4728240000000 1.0
C      1  0.5335890000000  0.4088200000000  0.5249170000000 1.0
C      1  0.4973660000000  0.5041970000000  0.4947210000000 1.0
END
