TITL C-3578208-4450-212 3.6303291879387e-07 125000 -219.193113279064 0 0 37 (C1) n - 1
REM
REM in /home/bkarasulu/work/CARBON/AIRSS/Generating-Clusters/EDIP-Nigel-Params/with-SteepDescent/Higher-Symm/SD-CG/HFTN-CG
REM
REM
REM
REM
REM
REM ./C.cell (12c818d87b63d06a65506943cc24bca4)
REM
REM compiler GCC version 9.2.1 20190827 (Red Hat 9.2.1-1)
REM options -cpp -mtune=generic -march=x86-64 -g -O0 -fpre-include=/usr/include/finclude/math-vector-fortran.h
REM seed -591766730 383666949 -1579729563 -2076784234 1068574012 1271246204 -358456095 -1828934313 121743106 -586183521 -736154848 989711458 1530279942 -1591973405 -811305254 -265133323 273030393 -2042303350 -432439289 1302574216 380386981 1526079543 -30092875 198780609 -1628874879 921269947 -1645259600 375057370 -1444297010 -1772811755 2096572987 -348245247 1614489631
REM
CELL 1.54180   50.00000   50.00000   50.00000   90.00000   90.00000   90.00000
LATT -1
SFAC C  
C      1  0.4813750000000  0.5154510000000  0.5129830000000 1.0
C      1  0.5268960000000  0.5327630000000  0.5416620000000 1.0
C      1  0.5335200000000  0.5212080000000  0.5138100000000 1.0
C      1  0.5113440000000  0.5340720000000  0.4615330000000 1.0
C      1  0.4831530000000  0.5311090000000  0.4561640000000 1.0
C      1  0.4669930000000  0.5331060000000  0.4813600000000 1.0
C      1  0.4596600000000  0.4653600000000  0.5085790000000 1.0
C      1  0.5124320000000  0.4784850000000  0.5338360000000 1.0
C      1  0.5409790000000  0.4680370000000  0.5310470000000 1.0
C      1  0.5113290000000  0.4798700000000  0.4815740000000 1.0
C      1  0.4840560000000  0.4763580000000  0.4666040000000 1.0
C      1  0.4588450000000  0.4771620000000  0.4818450000000 1.0
C      1  0.4405370000000  0.4979610000000  0.4770420000000 1.0
C      1  0.4492130000000  0.4798870000000  0.5305290000000 1.0
C      1  0.5077950000000  0.4900200000000  0.5599110000000 1.0
C      1  0.5605550000000  0.4852670000000  0.5220920000000 1.0
C      1  0.5290280000000  0.4935650000000  0.4636110000000 1.0
C      1  0.4817950000000  0.4837580000000  0.4395160000000 1.0
C      1  0.4394070000000  0.5250300000000  0.4783550000000 1.0
C      1  0.4624470000000  0.5034370000000  0.5306330000000 1.0
C      1  0.5151880000000  0.5156940000000  0.5600260000000 1.0
C      1  0.5601120000000  0.5102680000000  0.5130720000000 1.0
C      1  0.5308730000000  0.5170540000000  0.4504270000000 1.0
C      1  0.4773010000000  0.5102410000000  0.4387860000000 1.0
C      1  0.4951700000000  0.5726580000000  0.4847210000000 1.0
C      1  0.4738460000000  0.5585600000000  0.4967980000000 1.0
C      1  0.4838870000000  0.5448100000000  0.5208830000000 1.0
C      1  0.5096540000000  0.5543460000000  0.5311110000000 1.0
C      1  0.5331530000000  0.5492390000000  0.5011270000000 1.0
C      1  0.5178860000000  0.5568960000000  0.4781410000000 1.0
C      1  0.5090360000000  0.4306670000000  0.4757920000000 1.0
C      1  0.4863770000000  0.4284810000000  0.4906760000000 1.0
C      1  0.4785020000000  0.4434230000000  0.5133040000000 1.0
C      1  0.5002300000000  0.4507320000000  0.5308170000000 1.0
C      1  0.5343830000000  0.4458580000000  0.5132250000000 1.0
C      1  0.5235310000000  0.4521480000000  0.4870130000000 1.0
C      1  0.5087240000000  0.4989060000000  0.5094920000000 1.0
END
