TITL C-3578197-9521-159 -9.10788310600726e-07 125000 -339.874566120374 0 0 54 (D6h) n - 1
REM
REM in /home/bkarasulu/work/CARBON/AIRSS/Generating-Clusters/EDIP-Nigel-Params/with-SteepDescent/Higher-Symm/SD-CG/HFTN-CG
REM
REM
REM
REM
REM
REM ./C.cell (12c818d87b63d06a65506943cc24bca4)
REM
REM compiler GCC version 9.2.1 20190827 (Red Hat 9.2.1-1)
REM options -cpp -mtune=generic -march=x86-64 -g -O0 -fpre-include=/usr/include/finclude/math-vector-fortran.h
REM seed -701730748 -1331403302 1402260116 1492997967 -1548078581 -147633087 -1838298320 812285357 1358943138 1283929306 -1707719545 -374970055 335655646 302852975 -536262688 -351283097 -268491788 -900888492 -343114062 -606210497 -1596343526 -273940152 -1852342092 1662252201 1008255406 -2085057773 -1738857667 -1598799434 1355212231 -82285833 -1804402850 -659923132 -2038354586
REM
CELL 1.54180   50.00000   50.00000   50.00000   90.00000   90.00000   90.00000
LATT -1
SFAC C  
C      1  0.5165060000000  0.5499510000000  0.4542660000000 1.0
C      1  0.4686450000000  0.5499510000000  0.4628390000000 1.0
C      1  0.4521380000000  0.5499500000000  0.5085750000000 1.0
C      1  0.4834940000000  0.5499490000000  0.5457370000000 1.0
C      1  0.5313550000000  0.5499490000000  0.5371640000000 1.0
C      1  0.5478610000000  0.5499500000000  0.4914280000000 1.0
C      1  0.5165060000000  0.4529880000000  0.4542630000000 1.0
C      1  0.4686450000000  0.4529880000000  0.4628360000000 1.0
C      1  0.4521390000000  0.4529870000000  0.5085720000000 1.0
C      1  0.4834940000000  0.4529860000000  0.5457340000000 1.0
C      1  0.5313550000000  0.4529860000000  0.5371610000000 1.0
C      1  0.5478620000000  0.4529870000000  0.4914250000000 1.0
C      1  0.5372000000000  0.4365880000000  0.4686110000000 1.0
C      1  0.4914180000000  0.4365880000000  0.4520880000000 1.0
C      1  0.4542180000000  0.4365870000000  0.4834750000000 1.0
C      1  0.4628000000000  0.4365850000000  0.5313850000000 1.0
C      1  0.5085820000000  0.4365850000000  0.5479080000000 1.0
C      1  0.5457820000000  0.4365860000000  0.5165210000000 1.0
C      1  0.5372000000000  0.5663520000000  0.4686150000000 1.0
C      1  0.4914180000000  0.5663520000000  0.4520920000000 1.0
C      1  0.4542180000000  0.5663510000000  0.4834790000000 1.0
C      1  0.4628000000000  0.5663500000000  0.5313890000000 1.0
C      1  0.5085820000000  0.5663490000000  0.5479120000000 1.0
C      1  0.5457820000000  0.5663500000000  0.5165250000000 1.0
C      1  0.4893140000000  0.5248100000000  0.5296110000000 1.0
C      1  0.5203000000000  0.5248110000000  0.5240600000000 1.0
C      1  0.5309860000000  0.5248120000000  0.4944500000000 1.0
C      1  0.5106860000000  0.5248120000000  0.4703910000000 1.0
C      1  0.4797000000000  0.5248120000000  0.4759410000000 1.0
C      1  0.4690140000000  0.5248110000000  0.5055510000000 1.0
C      1  0.4893140000000  0.4781250000000  0.5296090000000 1.0
C      1  0.5203000000000  0.4781250000000  0.5240590000000 1.0
C      1  0.5309860000000  0.4781260000000  0.4944490000000 1.0
C      1  0.5106860000000  0.4781270000000  0.4703890000000 1.0
C      1  0.4797000000000  0.4781260000000  0.4759400000000 1.0
C      1  0.4690140000000  0.4781250000000  0.5055500000000 1.0
C      1  0.5053750000000  0.4123080000000  0.5300050000000 1.0
C      1  0.5286750000000  0.4123090000000  0.5103460000000 1.0
C      1  0.5233000000000  0.4123100000000  0.4803390000000 1.0
C      1  0.4946250000000  0.4123100000000  0.4699900000000 1.0
C      1  0.4713260000000  0.4123090000000  0.4896490000000 1.0
C      1  0.4767010000000  0.4123080000000  0.5196560000000 1.0
C      1  0.5053750000000  0.5906270000000  0.5300100000000 1.0
C      1  0.5286740000000  0.5906280000000  0.5103510000000 1.0
C      1  0.5232990000000  0.5906290000000  0.4803440000000 1.0
C      1  0.4946250000000  0.5906290000000  0.4699950000000 1.0
C      1  0.4713250000000  0.5906280000000  0.4896540000000 1.0
C      1  0.4767000000000  0.5906270000000  0.5196610000000 1.0
C      1  0.4524010000000  0.5014680000000  0.5085260000000 1.0
C      1  0.5164160000000  0.5014700000000  0.4545150000000 1.0
C      1  0.5475990000000  0.5014690000000  0.4914740000000 1.0
C      1  0.4688170000000  0.5014700000000  0.4630410000000 1.0
C      1  0.5311830000000  0.5014680000000  0.5369590000000 1.0
C      1  0.4835840000000  0.5014670000000  0.5454850000000 1.0
END
