TITL C-3577084-3642-731 9.18736910924245e-07 125000 -811.073159491542 0 0 129 (C1) n - 1
REM
REM in /home/bkarasulu/work/CARBON/AIRSS/Generating-Clusters/EDIP-Nigel-Params/with-SteepDescent/Higher-Symm/SD-CG/HFTN-CG
REM
REM
REM
REM
REM
REM ./C.cell (12c818d87b63d06a65506943cc24bca4)
REM
REM compiler GCC version 9.2.1 20190827 (Red Hat 9.2.1-1)
REM options -cpp -mtune=generic -march=x86-64 -g -O0 -fpre-include=/usr/include/finclude/math-vector-fortran.h
REM seed 1765165371 -648155694 -1919013801 1134315446 -1632085429 1708469347 1460735155 193781034 -846797287 2097998973 -1242125671 -39135935 1537584179 -1239907121 -753309096 2056422212 -1844795022 -664008250 -1487668348 220806388 -1288836269 1963222149 954661286 1539385735 -160042786 816199971 -167203333 -2093407438 -1309459054 1434039536 457977818 1356952957 -687707374
REM
CELL 1.54180   50.00000   50.00000   50.00000   90.00000   90.00000   90.00000
LATT -1
SFAC C  
C      1  0.5115740000000  0.4612410000000  0.5601490000000 1.0
C      1  0.4854230000000  0.4449160000000  0.5564530000000 1.0
C      1  0.4547850000000  0.4586510000000  0.5762740000000 1.0
C      1  0.4360690000000  0.4796120000000  0.5650690000000 1.0
C      1  0.4479380000000  0.5063800000000  0.5677290000000 1.0
C      1  0.4776890000000  0.5575090000000  0.5743140000000 1.0
C      1  0.4957670000000  0.5769780000000  0.5857010000000 1.0
C      1  0.5240300000000  0.5743660000000  0.5735320000000 1.0
C      1  0.5636640000000  0.5295400000000  0.5722790000000 1.0
C      1  0.5738030000000  0.5013470000000  0.5703250000000 1.0
C      1  0.5414200000000  0.4439910000000  0.5625270000000 1.0
C      1  0.5076230000000  0.4421510000000  0.4206140000000 1.0
C      1  0.4768020000000  0.4453090000000  0.4192200000000 1.0
C      1  0.4526200000000  0.4649790000000  0.4183350000000 1.0
C      1  0.4411890000000  0.4928230000000  0.4142740000000 1.0
C      1  0.4514230000000  0.5196580000000  0.4076710000000 1.0
C      1  0.4781220000000  0.5456220000000  0.4178010000000 1.0
C      1  0.5042750000000  0.5535300000000  0.4271420000000 1.0
C      1  0.5307910000000  0.5386720000000  0.4269910000000 1.0
C      1  0.5497650000000  0.5140950000000  0.4253570000000 1.0
C      1  0.5511260000000  0.4830760000000  0.4238020000000 1.0
C      1  0.5360410000000  0.4557580000000  0.4214610000000 1.0
C      1  0.5593770000000  0.4267970000000  0.5261650000000 1.0
C      1  0.5123990000000  0.4161250000000  0.5244050000000 1.0
C      1  0.4613040000000  0.4174620000000  0.5244970000000 1.0
C      1  0.4229090000000  0.4496850000000  0.5248140000000 1.0
C      1  0.4135080000000  0.5001550000000  0.5224750000000 1.0
C      1  0.4208820000000  0.5506900000000  0.5208890000000 1.0
C      1  0.4587320000000  0.5848690000000  0.5251250000000 1.0
C      1  0.5088860000000  0.5949840000000  0.5293670000000 1.0
C      1  0.5558980000000  0.5677900000000  0.5322740000000 1.0
C      1  0.5864170000000  0.5241770000000  0.5304990000000 1.0
C      1  0.5809250000000  0.4725770000000  0.5289080000000 1.0
C      1  0.4689400000000  0.4661180000000  0.6014370000000 1.0
C      1  0.4639200000000  0.4921300000000  0.6104190000000 1.0
C      1  0.4641430000000  0.5120140000000  0.5910160000000 1.0
C      1  0.4787520000000  0.5366360000000  0.5942800000000 1.0
C      1  0.5039360000000  0.5598300000000  0.6100410000000 1.0
C      1  0.5329600000000  0.5581950000000  0.5994900000000 1.0
C      1  0.5414340000000  0.5307920000000  0.5930500000000 1.0
C      1  0.5640620000000  0.4801290000000  0.5858070000000 1.0
C      1  0.5450190000000  0.4600260000000  0.5893700000000 1.0
C      1  0.5158090000000  0.4680590000000  0.5893420000000 1.0
C      1  0.4953540000000  0.4573540000000  0.6051880000000 1.0
C      1  0.5377520000000  0.4124670000000  0.4823600000000 1.0
C      1  0.4880830000000  0.4189120000000  0.4821480000000 1.0
C      1  0.4386870000000  0.4276290000000  0.4816810000000 1.0
C      1  0.4180280000000  0.4741160000000  0.4807240000000 1.0
C      1  0.4158320000000  0.5256910000000  0.4771540000000 1.0
C      1  0.4398930000000  0.5730610000000  0.4798750000000 1.0
C      1  0.4848530000000  0.5952220000000  0.4847790000000 1.0
C      1  0.5341740000000  0.5815190000000  0.4876940000000 1.0
C      1  0.5736800000000  0.5476080000000  0.4872440000000 1.0
C      1  0.5877920000000  0.4985100000000  0.4862410000000 1.0
C      1  0.5744130000000  0.4494250000000  0.4841220000000 1.0
C      1  0.4165720000000  0.4724640000000  0.4510100000000 1.0
C      1  0.4233660000000  0.5218130000000  0.4483180000000 1.0
C      1  0.4464050000000  0.5730500000000  0.4527940000000 1.0
C      1  0.4864900000000  0.5924830000000  0.4568960000000 1.0
C      1  0.5312200000000  0.5765200000000  0.4585720000000 1.0
C      1  0.5695260000000  0.5459010000000  0.4575050000000 1.0
C      1  0.5845070000000  0.4990090000000  0.4569380000000 1.0
C      1  0.5724910000000  0.4514090000000  0.4547280000000 1.0
C      1  0.5356730000000  0.4181260000000  0.4529900000000 1.0
C      1  0.4874770000000  0.4105250000000  0.4528410000000 1.0
C      1  0.4439150000000  0.4321800000000  0.4529040000000 1.0
C      1  0.4982730000000  0.5343840000000  0.4928550000000 1.0
C      1  0.5202000000000  0.5494280000000  0.5059410000000 1.0
C      1  0.5430860000000  0.5283120000000  0.5017350000000 1.0
C      1  0.5323510000000  0.5058240000000  0.4856660000000 1.0
C      1  0.5417500000000  0.4779230000000  0.4905750000000 1.0
C      1  0.5200030000000  0.4604740000000  0.4775430000000 1.0
C      1  0.4927440000000  0.4508990000000  0.4863610000000 1.0
C      1  0.4708490000000  0.4687040000000  0.4792680000000 1.0
C      1  0.4532070000000  0.4872000000000  0.4931220000000 1.0
C      1  0.4578720000000  0.5144800000000  0.4855060000000 1.0
C      1  0.4707620000000  0.5355840000000  0.4994290000000 1.0
C      1  0.5732250000000  0.5213710000000  0.4425570000000 1.0
C      1  0.5745800000000  0.4767650000000  0.4412320000000 1.0
C      1  0.5523220000000  0.4374300000000  0.4389610000000 1.0
C      1  0.5110970000000  0.4175670000000  0.4374250000000 1.0
C      1  0.4667610000000  0.4236330000000  0.4373420000000 1.0
C      1  0.4327710000000  0.4531310000000  0.4369670000000 1.0
C      1  0.4206010000000  0.4961760000000  0.4351590000000 1.0
C      1  0.4355650000000  0.5368010000000  0.4254690000000 1.0
C      1  0.4543520000000  0.5573410000000  0.4310470000000 1.0
C      1  0.5059020000000  0.5760590000000  0.4455930000000 1.0
C      1  0.5457830000000  0.5562270000000  0.4452970000000 1.0
C      1  0.4820200000000  0.5932550000000  0.5405200000000 1.0
C      1  0.5331580000000  0.5848910000000  0.5460620000000 1.0
C      1  0.5723320000000  0.5468910000000  0.5466730000000 1.0
C      1  0.5850900000000  0.4974220000000  0.5440180000000 1.0
C      1  0.5640000000000  0.4515910000000  0.5410920000000 1.0
C      1  0.5367770000000  0.4141210000000  0.5392410000000 1.0
C      1  0.4871310000000  0.4205430000000  0.5388150000000 1.0
C      1  0.4376040000000  0.4283610000000  0.5363910000000 1.0
C      1  0.4228690000000  0.4762260000000  0.5379890000000 1.0
C      1  0.4149290000000  0.5259450000000  0.5344750000000 1.0
C      1  0.4373550000000  0.5689340000000  0.5358980000000 1.0
C      1  0.5118810000000  0.4068270000000  0.4966770000000 1.0
C      1  0.4612630000000  0.4140380000000  0.4955620000000 1.0
C      1  0.4216500000000  0.4481600000000  0.4956130000000 1.0
C      1  0.4110570000000  0.5003970000000  0.4932870000000 1.0
C      1  0.4243020000000  0.5504460000000  0.4917590000000 1.0
C      1  0.4600120000000  0.5863260000000  0.4965750000000 1.0
C      1  0.5094070000000  0.5916550000000  0.5007180000000 1.0
C      1  0.5581030000000  0.5693140000000  0.5027330000000 1.0
C      1  0.5869980000000  0.5242080000000  0.5006420000000 1.0
C      1  0.5843600000000  0.4725870000000  0.4996960000000 1.0
C      1  0.5583450000000  0.4283700000000  0.4970720000000 1.0
C      1  0.5483850000000  0.5155610000000  0.5283510000000 1.0
C      1  0.5390890000000  0.4854880000000  0.5282750000000 1.0
C      1  0.5289490000000  0.4558190000000  0.5143190000000 1.0
C      1  0.4970600000000  0.4563900000000  0.5154930000000 1.0
C      1  0.4637480000000  0.4594790000000  0.5377780000000 1.0
C      1  0.4628490000000  0.4885170000000  0.5227930000000 1.0
C      1  0.4513410000000  0.5141790000000  0.5389920000000 1.0
C      1  0.4629820000000  0.5411330000000  0.5281700000000 1.0
C      1  0.4847780000000  0.5554950000000  0.5449570000000 1.0
C      1  0.5151770000000  0.5518900000000  0.5363890000000 1.0
C      1  0.5319170000000  0.5300700000000  0.5498730000000 1.0
C      1  0.5128040000000  0.4874430000000  0.5438500000000 1.0
C      1  0.4926820000000  0.5005810000000  0.4606930000000 1.0
C      1  0.5199770000000  0.5121380000000  0.5887900000000 1.0
C      1  0.4969850000000  0.4974590000000  0.4342590000000 1.0
C      1  0.5013970000000  0.4991710000000  0.4089640000000 1.0
C      1  0.4930490000000  0.4872850000000  0.5189770000000 1.0
C      1  0.5036010000000  0.5065930000000  0.4867000000000 1.0
C      1  0.5131600000000  0.5114750000000  0.5614330000000 1.0
END
