TITL C-3577083-591-130 -1.82693331842294e-06 125000 -844.293073718336 0 0 135 (C1) n - 1
REM
REM in /home/bkarasulu/work/CARBON/AIRSS/Generating-Clusters/EDIP-Nigel-Params/with-SteepDescent/Higher-Symm/SD-CG/HFTN-CG
REM
REM
REM
REM
REM
REM ./C.cell (12c818d87b63d06a65506943cc24bca4)
REM
REM compiler GCC version 9.2.1 20190827 (Red Hat 9.2.1-1)
REM options -cpp -mtune=generic -march=x86-64 -g -O0 -fpre-include=/usr/include/finclude/math-vector-fortran.h
REM seed -2032132113 -684863741 -298093654 -535601706 319830635 611400157 -779149456 2054135937 -239140801 -1590251634 -582000599 522980078 537955103 -1845270417 -385448893 -1034191964 647768243 -52675201 329048513 1950465111 -1683040995 761286148 330858803 -446836941 935258862 -1665081788 594461021 1532483394 271316067 -99360373 1837306277 2053108071 -460126527
REM
CELL 1.54180   50.00000   50.00000   50.00000   90.00000   90.00000   90.00000
LATT -1
SFAC C  
C      1  0.4369290000000  0.4889020000000  0.4135530000000 1.0
C      1  0.4410510000000  0.5797600000000  0.5279460000000 1.0
C      1  0.4405810000000  0.4312700000000  0.5525570000000 1.0
C      1  0.5586040000000  0.4856460000000  0.4153360000000 1.0
C      1  0.5633090000000  0.5788570000000  0.5343560000000 1.0
C      1  0.5628670000000  0.4321140000000  0.5528050000000 1.0
C      1  0.5953810000000  0.5195650000000  0.4675480000000 1.0
C      1  0.5990220000000  0.5165370000000  0.5382050000000 1.0
C      1  0.5987860000000  0.4623710000000  0.4981050000000 1.0
C      1  0.3997490000000  0.5219570000000  0.4659810000000 1.0
C      1  0.4057070000000  0.5169390000000  0.5333280000000 1.0
C      1  0.4042060000000  0.4612460000000  0.4979690000000 1.0
C      1  0.4759980000000  0.5749070000000  0.4455380000000 1.0
C      1  0.4779430000000  0.5130300000000  0.5967220000000 1.0
C      1  0.4811720000000  0.4145930000000  0.4588970000000 1.0
C      1  0.5204870000000  0.5789520000000  0.4459640000000 1.0
C      1  0.5222940000000  0.5129730000000  0.5955550000000 1.0
C      1  0.5255990000000  0.4160640000000  0.4614250000000 1.0
C      1  0.5575080000000  0.4328410000000  0.5057000000000 1.0
C      1  0.5536530000000  0.5306840000000  0.4357350000000 1.0
C      1  0.5565800000000  0.5390560000000  0.5584920000000 1.0
C      1  0.4462250000000  0.4294620000000  0.5055890000000 1.0
C      1  0.4424600000000  0.5286400000000  0.4378490000000 1.0
C      1  0.4454060000000  0.5404520000000  0.5575210000000 1.0
C      1  0.5290320000000  0.4544090000000  0.4400770000000 1.0
C      1  0.5344920000000  0.5741030000000  0.4931950000000 1.0
C      1  0.5325080000000  0.4689760000000  0.5704930000000 1.0
C      1  0.4662030000000  0.4567790000000  0.4387470000000 1.0
C      1  0.4718340000000  0.5741410000000  0.4893640000000 1.0
C      1  0.4688410000000  0.4692020000000  0.5702780000000 1.0
C      1  0.4182120000000  0.4558920000000  0.4747260000000 1.0
C      1  0.4127190000000  0.5460860000000  0.4715590000000 1.0
C      1  0.4177030000000  0.4997260000000  0.5517440000000 1.0
C      1  0.5875930000000  0.4539000000000  0.4738820000000 1.0
C      1  0.5824290000000  0.5429130000000  0.4747480000000 1.0
C      1  0.5850930000000  0.4990650000000  0.5549190000000 1.0
C      1  0.4850740000000  0.4206020000000  0.5705330000000 1.0
C      1  0.4852830000000  0.4775920000000  0.3986110000000 1.0
C      1  0.4848350000000  0.6009170000000  0.5288370000000 1.0
C      1  0.5155490000000  0.4210260000000  0.5695910000000 1.0
C      1  0.5150380000000  0.4759810000000  0.3978810000000 1.0
C      1  0.5146260000000  0.5996730000000  0.5306530000000 1.0
C      1  0.5634000000000  0.5129840000000  0.5695610000000 1.0
C      1  0.5683580000000  0.4322520000000  0.4788250000000 1.0
C      1  0.5607070000000  0.5502130000000  0.4561720000000 1.0
C      1  0.4390970000000  0.5134830000000  0.5667370000000 1.0
C      1  0.4401520000000  0.4366970000000  0.4782100000000 1.0
C      1  0.4321580000000  0.5524920000000  0.4503980000000 1.0
C      1  0.4471890000000  0.4871180000000  0.4874060000000 1.0
C      1  0.4489690000000  0.5203960000000  0.4918390000000 1.0
C      1  0.4479820000000  0.4934950000000  0.5200350000000 1.0
C      1  0.5526120000000  0.4841430000000  0.4843820000000 1.0
C      1  0.5535340000000  0.5161500000000  0.4951720000000 1.0
C      1  0.5523460000000  0.4952840000000  0.5215090000000 1.0
C      1  0.4842400000000  0.4518460000000  0.4989800000000 1.0
C      1  0.4864380000000  0.5263620000000  0.4578260000000 1.0
C      1  0.4841830000000  0.5236910000000  0.5433330000000 1.0
C      1  0.5155830000000  0.4515250000000  0.4988150000000 1.0
C      1  0.5168550000000  0.5243800000000  0.4594520000000 1.0
C      1  0.5154870000000  0.5241380000000  0.5449630000000 1.0
C      1  0.4504380000000  0.5735100000000  0.4572580000000 1.0
C      1  0.4589740000000  0.4966120000000  0.5822290000000 1.0
C      1  0.4590500000000  0.4326330000000  0.4551030000000 1.0
C      1  0.5419910000000  0.5723160000000  0.4641510000000 1.0
C      1  0.5422710000000  0.4960890000000  0.5833900000000 1.0
C      1  0.5508890000000  0.4273100000000  0.4566120000000 1.0
C      1  0.5581450000000  0.4589480000000  0.5593360000000 1.0
C      1  0.5565860000000  0.4658690000000  0.4353310000000 1.0
C      1  0.5597100000000  0.5704510000000  0.5078530000000 1.0
C      1  0.4436100000000  0.4583190000000  0.5591930000000 1.0
C      1  0.4405800000000  0.4701210000000  0.4341370000000 1.0
C      1  0.4438510000000  0.5720820000000  0.5010360000000 1.0
C      1  0.5757310000000  0.4337170000000  0.5276050000000 1.0
C      1  0.5697980000000  0.5077140000000  0.4291450000000 1.0
C      1  0.5758320000000  0.5565150000000  0.5465860000000 1.0
C      1  0.4277490000000  0.4320520000000  0.5272840000000 1.0
C      1  0.4236330000000  0.5102190000000  0.4268790000000 1.0
C      1  0.4298800000000  0.5568390000000  0.5401810000000 1.0
C      1  0.5152660000000  0.5667740000000  0.5756600000000 1.0
C      1  0.5171000000000  0.4029490000000  0.5159700000000 1.0
C      1  0.5144020000000  0.5345760000000  0.4045550000000 1.0
C      1  0.4852280000000  0.5669230000000  0.5767670000000 1.0
C      1  0.4870250000000  0.4007710000000  0.5156060000000 1.0
C      1  0.4844350000000  0.5339220000000  0.4075220000000 1.0
C      1  0.5118570000000  0.4463800000000  0.4149540000000 1.0
C      1  0.5194830000000  0.5985410000000  0.5013930000000 1.0
C      1  0.5167500000000  0.4473320000000  0.5857150000000 1.0
C      1  0.4810630000000  0.4522470000000  0.4134320000000 1.0
C      1  0.4885500000000  0.6001610000000  0.4951510000000 1.0
C      1  0.4846230000000  0.4476830000000  0.5860820000000 1.0
C      1  0.5169950000000  0.4213510000000  0.4897330000000 1.0
C      1  0.5166610000000  0.5523270000000  0.4318990000000 1.0
C      1  0.5155770000000  0.5341770000000  0.5753010000000 1.0
C      1  0.4856350000000  0.4184670000000  0.4886160000000 1.0
C      1  0.4860070000000  0.5482680000000  0.4361090000000 1.0
C      1  0.4843590000000  0.5349890000000  0.5773410000000 1.0
C      1  0.5291450000000  0.4503250000000  0.5262760000000 1.0
C      1  0.5278120000000  0.5022200000000  0.4419440000000 1.0
C      1  0.5294550000000  0.5477860000000  0.5317350000000 1.0
C      1  0.4727460000000  0.4483140000000  0.5271710000000 1.0
C      1  0.4719030000000  0.5037900000000  0.4439240000000 1.0
C      1  0.4724900000000  0.5490660000000  0.5307410000000 1.0
C      1  0.4832710000000  0.5736900000000  0.5461500000000 1.0
C      1  0.4845110000000  0.4222300000000  0.5385820000000 1.0
C      1  0.4781280000000  0.5045280000000  0.4141290000000 1.0
C      1  0.5214990000000  0.5734650000000  0.5464770000000 1.0
C      1  0.5220580000000  0.4232130000000  0.5386790000000 1.0
C      1  0.5163710000000  0.5042900000000  0.4132820000000 1.0
C      1  0.4112240000000  0.4566430000000  0.5244300000000 1.0
C      1  0.4068020000000  0.5004540000000  0.4496240000000 1.0
C      1  0.4130630000000  0.5413900000000  0.5219840000000 1.0
C      1  0.5912890000000  0.4587470000000  0.5248170000000 1.0
C      1  0.5874920000000  0.4988590000000  0.4508300000000 1.0
C      1  0.5924360000000  0.5412570000000  0.5270720000000 1.0
C      1  0.5253930000000  0.4738030000000  0.4815230000000 1.0
C      1  0.5265170000000  0.5260580000000  0.4877770000000 1.0
C      1  0.5257650000000  0.4980330000000  0.5336220000000 1.0
C      1  0.4740200000000  0.4752970000000  0.4827820000000 1.0
C      1  0.4759480000000  0.5292920000000  0.4855910000000 1.0
C      1  0.4751630000000  0.4971800000000  0.5312480000000 1.0
C      1  0.4856550000000  0.5507990000000  0.5022080000000 1.0
C      1  0.4844000000000  0.4724330000000  0.5439660000000 1.0
C      1  0.4826090000000  0.4771430000000  0.4550090000000 1.0
C      1  0.5180990000000  0.5498350000000  0.5028120000000 1.0
C      1  0.5167490000000  0.4727580000000  0.5444110000000 1.0
C      1  0.5151490000000  0.4765430000000  0.4545950000000 1.0
C      1  0.5720970000000  0.4773680000000  0.5399230000000 1.0
C      1  0.5714270000000  0.4752960000000  0.4606070000000 1.0
C      1  0.5733960000000  0.5443630000000  0.5030260000000 1.0
C      1  0.4295830000000  0.4758380000000  0.5391520000000 1.0
C      1  0.4269430000000  0.4792670000000  0.4590190000000 1.0
C      1  0.4292600000000  0.5452260000000  0.4964900000000 1.0
C      1  0.5045490000000  0.4190490000000  0.4418420000000 1.0
C      1  0.5003620000000  0.4998940000000  0.6071140000000 1.0
C      1  0.4965430000000  0.5906530000000  0.4582000000000 1.0
END
