TITL C-3577077-324-569 -3.3113117540687e-06 125000 -1019.96033457832 0 0 169 (Cs) n - 1
REM
REM in /home/bkarasulu/work/CARBON/AIRSS/Generating-Clusters/EDIP-Nigel-Params/with-SteepDescent/Higher-Symm/SD-CG/HFTN-CG
REM
REM
REM
REM
REM
REM ./C.cell (12c818d87b63d06a65506943cc24bca4)
REM
REM compiler GCC version 9.2.1 20190827 (Red Hat 9.2.1-1)
REM options -cpp -mtune=generic -march=x86-64 -g -O0 -fpre-include=/usr/include/finclude/math-vector-fortran.h
REM seed 1524522201 1610021693 1181312508 -1555566997 1519410125 -1408458371 -1303065398 1819072300 579273039 -741882562 -891312222 -1302327391 -1375386505 -1731120688 -1802103903 -1343484586 2048187264 -1034830795 -1036715919 421840407 1821946115 -205242466 -814293159 1076837843 656914923 -834296901 1561802545 -346014693 821939549 -1781615793 1437820806 -1307509103 242215587
REM
CELL 1.54180   50.00000   50.00000   50.00000   90.00000   90.00000   90.00000
LATT -1
SFAC C  
C      1  0.5348590000000  0.4685210000000  0.5470640000000 1.0
C      1  0.4644340000000  0.4679240000000  0.5477320000000 1.0
C      1  0.4444110000000  0.4652140000000  0.4802380000000 1.0
C      1  0.4981320000000  0.4657410000000  0.4406270000000 1.0
C      1  0.5566190000000  0.4664640000000  0.4821930000000 1.0
C      1  0.5348600000000  0.5322790000000  0.5470640000000 1.0
C      1  0.4644350000000  0.5328790000000  0.5477320000000 1.0
C      1  0.4444120000000  0.5355890000000  0.4802380000000 1.0
C      1  0.4981330000000  0.5350600000000  0.4406270000000 1.0
C      1  0.5566200000000  0.5343360000000  0.4821930000000 1.0
C      1  0.5909880000000  0.4844180000000  0.4162830000000 1.0
C      1  0.6066260000000  0.4844010000000  0.5599530000000 1.0
C      1  0.4760900000000  0.4844390000000  0.6214650000000 1.0
C      1  0.3781250000000  0.4843160000000  0.5142950000000 1.0
C      1  0.4471730000000  0.4843650000000  0.3862070000000 1.0
C      1  0.5909880000000  0.5163810000000  0.4162830000000 1.0
C      1  0.6066260000000  0.5163980000000  0.5599530000000 1.0
C      1  0.4760910000000  0.5163630000000  0.6214650000000 1.0
C      1  0.3781250000000  0.5164890000000  0.5142950000000 1.0
C      1  0.4471730000000  0.5164380000000  0.3862070000000 1.0
C      1  0.4925760000000  0.5757910000000  0.5471360000000 1.0
C      1  0.4536570000000  0.5766140000000  0.5110840000000 1.0
C      1  0.4788310000000  0.5806080000000  0.4616350000000 1.0
C      1  0.5335070000000  0.5773550000000  0.4652630000000 1.0
C      1  0.5443430000000  0.5781500000000  0.5165000000000 1.0
C      1  0.4925740000000  0.4250100000000  0.5471360000000 1.0
C      1  0.4536550000000  0.4241890000000  0.5110840000000 1.0
C      1  0.4788290000000  0.4201940000000  0.4616350000000 1.0
C      1  0.5335050000000  0.4234450000000  0.4652630000000 1.0
C      1  0.5443410000000  0.4226500000000  0.5165000000000 1.0
C      1  0.4817610000000  0.5149700000000  0.5775750000000 1.0
C      1  0.4213580000000  0.5151890000000  0.5044920000000 1.0
C      1  0.4697740000000  0.5157440000000  0.4233550000000 1.0
C      1  0.5613040000000  0.5151870000000  0.4491410000000 1.0
C      1  0.5677550000000  0.5151590000000  0.5386220000000 1.0
C      1  0.4817610000000  0.4858320000000  0.5775750000000 1.0
C      1  0.4213580000000  0.4856150000000  0.5044920000000 1.0
C      1  0.4697740000000  0.4850590000000  0.4233550000000 1.0
C      1  0.5613030000000  0.4856120000000  0.4491410000000 1.0
C      1  0.5677550000000  0.4856410000000  0.5386220000000 1.0
C      1  0.4393580000000  0.5166200000000  0.5589700000000 1.0
C      1  0.4256280000000  0.5194340000000  0.4606590000000 1.0
C      1  0.5136660000000  0.5187230000000  0.4173210000000 1.0
C      1  0.5829510000000  0.5170180000000  0.4882090000000 1.0
C      1  0.5358080000000  0.5167520000000  0.5748860000000 1.0
C      1  0.4393580000000  0.4841830000000  0.5589700000000 1.0
C      1  0.4256270000000  0.4813700000000  0.4606590000000 1.0
C      1  0.5136660000000  0.4820780000000  0.4173210000000 1.0
C      1  0.5829510000000  0.4837810000000  0.4882090000000 1.0
C      1  0.5358070000000  0.4840490000000  0.5748860000000 1.0
C      1  0.5394780000000  0.4668660000000  0.4070970000000 1.0
C      1  0.6011440000000  0.4680040000000  0.5080260000000 1.0
C      1  0.5230400000000  0.4678620000000  0.5978940000000 1.0
C      1  0.4133430000000  0.4683830000000  0.5536550000000 1.0
C      1  0.4242510000000  0.4657980000000  0.4346290000000 1.0
C      1  0.5394780000000  0.5339340000000  0.4070970000000 1.0
C      1  0.6011450000000  0.5327940000000  0.5080260000000 1.0
C      1  0.5230410000000  0.5329390000000  0.5978940000000 1.0
C      1  0.4133440000000  0.5324210000000  0.5536550000000 1.0
C      1  0.4242520000000  0.5350050000000  0.4346290000000 1.0
C      1  0.4888170000000  0.4385950000000  0.4815330000000 1.0
C      1  0.5169160000000  0.4441760000000  0.4804410000000 1.0
C      1  0.5246290000000  0.4457600000000  0.5091650000000 1.0
C      1  0.4984130000000  0.4466570000000  0.5262650000000 1.0
C      1  0.4759090000000  0.4444410000000  0.5067680000000 1.0
C      1  0.4888190000000  0.5622070000000  0.4815330000000 1.0
C      1  0.5169170000000  0.5566250000000  0.4804410000000 1.0
C      1  0.5246300000000  0.5550400000000  0.5091650000000 1.0
C      1  0.4984150000000  0.5541440000000  0.5262650000000 1.0
C      1  0.4759100000000  0.5563610000000  0.5067680000000 1.0
C      1  0.5319890000000  0.3967150000000  0.5051780000000 1.0
C      1  0.4871020000000  0.3977430000000  0.5324790000000 1.0
C      1  0.4657100000000  0.3959810000000  0.5088340000000 1.0
C      1  0.4913110000000  0.3948330000000  0.4796010000000 1.0
C      1  0.5277570000000  0.3950410000000  0.4745370000000 1.0
C      1  0.5319920000000  0.6040860000000  0.5051780000000 1.0
C      1  0.4871050000000  0.6030590000000  0.5324790000000 1.0
C      1  0.4657130000000  0.6048220000000  0.5088340000000 1.0
C      1  0.4913140000000  0.6059680000000  0.4796010000000 1.0
C      1  0.5277610000000  0.6057590000000  0.4745370000000 1.0
C      1  0.3979590000000  0.4694800000000  0.4952400000000 1.0
C      1  0.4744370000000  0.4663680000000  0.3988810000000 1.0
C      1  0.5864000000000  0.4702410000000  0.4436600000000 1.0
C      1  0.5790340000000  0.4705520000000  0.5626970000000 1.0
C      1  0.4640300000000  0.4705650000000  0.5963370000000 1.0
C      1  0.3979600000000  0.5313240000000  0.4952400000000 1.0
C      1  0.4744380000000  0.5344340000000  0.3988810000000 1.0
C      1  0.5864010000000  0.5305580000000  0.4436600000000 1.0
C      1  0.5790350000000  0.5302470000000  0.5626970000000 1.0
C      1  0.4640310000000  0.5302380000000  0.5963360000000 1.0
C      1  0.4757660000000  0.4435050000000  0.5885350000000 1.0
C      1  0.4091500000000  0.4431800000000  0.5056100000000 1.0
C      1  0.4697370000000  0.4414710000000  0.4169110000000 1.0
C      1  0.5721480000000  0.4432620000000  0.4426310000000 1.0
C      1  0.5750620000000  0.4434440000000  0.5490920000000 1.0
C      1  0.4757680000000  0.5572970000000  0.5885350000000 1.0
C      1  0.4091510000000  0.5576240000000  0.5056100000000 1.0
C      1  0.4697390000000  0.5593320000000  0.4169110000000 1.0
C      1  0.5721490000000  0.5575370000000  0.4426310000000 1.0
C      1  0.5750640000000  0.5573550000000  0.5490920000000 1.0
C      1  0.4345040000000  0.4351560000000  0.4874880000000 1.0
C      1  0.4941150000000  0.4345730000000  0.4359660000000 1.0
C      1  0.5622480000000  0.4365620000000  0.4718770000000 1.0
C      1  0.5431460000000  0.4377420000000  0.5494140000000 1.0
C      1  0.4660470000000  0.4380460000000  0.5587490000000 1.0
C      1  0.4345060000000  0.5656480000000  0.4874880000000 1.0
C      1  0.4941160000000  0.5662290000000  0.4359660000000 1.0
C      1  0.5622490000000  0.5642370000000  0.4718770000000 1.0
C      1  0.5431480000000  0.5630580000000  0.5494140000000 1.0
C      1  0.4660490000000  0.5627560000000  0.5587490000000 1.0
C      1  0.3991490000000  0.4709520000000  0.4644470000000 1.0
C      1  0.5037940000000  0.4707340000000  0.3922090000000 1.0
C      1  0.6028770000000  0.4736710000000  0.4694540000000 1.0
C      1  0.5600980000000  0.4743260000000  0.5865490000000 1.0
C      1  0.4354290000000  0.4740710000000  0.5856390000000 1.0
C      1  0.3991500000000  0.5298520000000  0.4644470000000 1.0
C      1  0.5037950000000  0.5300670000000  0.3922090000000 1.0
C      1  0.6028780000000  0.5271280000000  0.4694540000000 1.0
C      1  0.5600990000000  0.5264740000000  0.5865490000000 1.0
C      1  0.4354300000000  0.5267320000000  0.5856390000000 1.0
C      1  0.5261900000000  0.4745590000000  0.4731490000000 1.0
C      1  0.5314270000000  0.4756970000000  0.5168820000000 1.0
C      1  0.4925670000000  0.4750430000000  0.5371740000000 1.0
C      1  0.4638710000000  0.4738090000000  0.5037840000000 1.0
C      1  0.4831360000000  0.4784350000000  0.4644730000000 1.0
C      1  0.5261900000000  0.5262420000000  0.4731490000000 1.0
C      1  0.5314280000000  0.5251040000000  0.5168820000000 1.0
C      1  0.4925680000000  0.5257580000000  0.5371740000000 1.0
C      1  0.4638720000000  0.5269940000000  0.5037840000000 1.0
C      1  0.4831370000000  0.5223670000000  0.4644730000000 1.0
C      1  0.4433700000000  0.4297260000000  0.5387020000000 1.0
C      1  0.4486780000000  0.4263410000000  0.4599050000000 1.0
C      1  0.5250350000000  0.4271010000000  0.4368620000000 1.0
C      1  0.5692440000000  0.4285670000000  0.5015210000000 1.0
C      1  0.5171590000000  0.4273490000000  0.5651140000000 1.0
C      1  0.4433720000000  0.5710770000000  0.5387020000000 1.0
C      1  0.4486800000000  0.5744620000000  0.4599050000000 1.0
C      1  0.5250370000000  0.5737000000000  0.4368610000000 1.0
C      1  0.5692460000000  0.5722320000000  0.5015210000000 1.0
C      1  0.5171610000000  0.5734520000000  0.5651140000000 1.0
C      1  0.5637810000000  0.5155820000000  0.4004510000000 1.0
C      1  0.6152000000000  0.5155670000000  0.5296950000000 1.0
C      1  0.5074740000000  0.5155950000000  0.6186410000000 1.0
C      1  0.3893130000000  0.5154430000000  0.5438000000000 1.0
C      1  0.4274690000000  0.5155810000000  0.4104840000000 1.0
C      1  0.5637810000000  0.4852180000000  0.4004510000000 1.0
C      1  0.6152000000000  0.4852310000000  0.5296950000000 1.0
C      1  0.5074730000000  0.4852060000000  0.6186410000000 1.0
C      1  0.3893130000000  0.4853620000000  0.5438000000000 1.0
C      1  0.4274690000000  0.4852230000000  0.4104840000000 1.0
C      1  0.5467720000000  0.4437300000000  0.4258020000000 1.0
C      1  0.5849550000000  0.4447650000000  0.5201740000000 1.0
C      1  0.5063510000000  0.4436170000000  0.5875780000000 1.0
C      1  0.4190660000000  0.4452230000000  0.5343010000000 1.0
C      1  0.4453880000000  0.4427540000000  0.4351550000000 1.0
C      1  0.5467740000000  0.5570700000000  0.4258020000000 1.0
C      1  0.5849570000000  0.5560340000000  0.5201740000000 1.0
C      1  0.5063530000000  0.5571840000000  0.5875780000000 1.0
C      1  0.4190680000000  0.5555800000000  0.5343010000000 1.0
C      1  0.4453890000000  0.5580490000000  0.4351550000000 1.0
C      1  0.4530890000000  0.5004010000000  0.5201140000000 1.0
C      1  0.4650280000000  0.5004010000000  0.4586970000000 1.0
C      1  0.5260560000000  0.5004000000000  0.4553130000000 1.0
C      1  0.5472320000000  0.5004000000000  0.5087280000000 1.0
C      1  0.5040190000000  0.5004010000000  0.5487880000000 1.0
C      1  0.5036170000000  0.5943500000000  0.5082310000000 1.0
C      1  0.5036140000000  0.4064510000000  0.5082310000000 1.0
C      1  0.4953600000000  0.4851150000000  0.4942890000000 1.0
C      1  0.4953600000000  0.5156870000000  0.4942890000000 1.0
END
