TITL C-3577091-527-459 -8.58325090399216e-07 125000 -563.530880244355 0 0 90 (C1) n - 1
REM
REM in /home/bkarasulu/work/CARBON/AIRSS/Generating-Clusters/EDIP-Nigel-Params/with-SteepDescent/Higher-Symm/SD-CG/HFTN-CG
REM
REM
REM
REM
REM
REM ./C.cell (12c818d87b63d06a65506943cc24bca4)
REM
REM compiler GCC version 9.2.1 20190827 (Red Hat 9.2.1-1)
REM options -cpp -mtune=generic -march=x86-64 -g -O0 -fpre-include=/usr/include/finclude/math-vector-fortran.h
REM seed -528284992 555796652 1403570668 -1252943252 1308995449 1386925677 -974907276 1133371592 -1040607954 804915219 -1699103842 -606175634 1733742945 1302095128 -999072377 -1127464189 -292635302 1280074960 1224002994 1412644370 -46954194 -1845475386 -968074238 399801742 -1107940224 2112379073 -986587777 557674365 -2067065230 -463315919 1034303705 -918039153 1078415802
REM
CELL 1.54180   50.00000   50.00000   50.00000   90.00000   90.00000   90.00000
LATT -1
SFAC C  
C      1  0.5190670000000  0.4402810000000  0.5119660000000 1.0
C      1  0.5053260000000  0.4435730000000  0.4842620000000 1.0
C      1  0.4763020000000  0.4456120000000  0.4952940000000 1.0
C      1  0.5119140000000  0.5556440000000  0.5190910000000 1.0
C      1  0.5131500000000  0.5546870000000  0.4761320000000 1.0
C      1  0.4776910000000  0.5559490000000  0.5010790000000 1.0
C      1  0.5302020000000  0.4801200000000  0.4498580000000 1.0
C      1  0.4426730000000  0.4835680000000  0.4951730000000 1.0
C      1  0.5262890000000  0.4867350000000  0.5557530000000 1.0
C      1  0.5328690000000  0.5109940000000  0.4490660000000 1.0
C      1  0.4400720000000  0.5138840000000  0.4937540000000 1.0
C      1  0.5257480000000  0.5165040000000  0.5536740000000 1.0
C      1  0.5158530000000  0.4726740000000  0.4776130000000 1.0
C      1  0.4721410000000  0.4754790000000  0.4972360000000 1.0
C      1  0.5126590000000  0.4752180000000  0.5286360000000 1.0
C      1  0.5177980000000  0.5241220000000  0.4754160000000 1.0
C      1  0.4712580000000  0.5256850000000  0.4969970000000 1.0
C      1  0.5123430000000  0.5254650000000  0.5257720000000 1.0
C      1  0.4252830000000  0.4724480000000  0.4572080000000 1.0
C      1  0.4970390000000  0.4656530000000  0.5795630000000 1.0
C      1  0.5698720000000  0.4686840000000  0.4635030000000 1.0
C      1  0.4290700000000  0.5350030000000  0.4575960000000 1.0
C      1  0.4968500000000  0.5306860000000  0.5822860000000 1.0
C      1  0.5695130000000  0.5303100000000  0.4611270000000 1.0
C      1  0.4247290000000  0.4727550000000  0.5160610000000 1.0
C      1  0.5541980000000  0.4767520000000  0.5589850000000 1.0
C      1  0.5157180000000  0.4690020000000  0.4260260000000 1.0
C      1  0.4238280000000  0.5248740000000  0.5159350000000 1.0
C      1  0.5521390000000  0.5284820000000  0.5584720000000 1.0
C      1  0.5211290000000  0.5231250000000  0.4248960000000 1.0
C      1  0.4047170000000  0.4910200000000  0.4613930000000 1.0
C      1  0.5154740000000  0.4833470000000  0.5928950000000 1.0
C      1  0.5667820000000  0.4842760000000  0.4397040000000 1.0
C      1  0.4103580000000  0.5167810000000  0.4703390000000 1.0
C      1  0.5165350000000  0.5117430000000  0.5912990000000 1.0
C      1  0.5702840000000  0.5123960000000  0.4388760000000 1.0
C      1  0.5210300000000  0.5514220000000  0.4310960000000 1.0
C      1  0.4280450000000  0.5534240000000  0.5132790000000 1.0
C      1  0.5453540000000  0.5564340000000  0.5550720000000 1.0
C      1  0.5352180000000  0.4347180000000  0.4466110000000 1.0
C      1  0.4283820000000  0.4444110000000  0.5164820000000 1.0
C      1  0.5480410000000  0.4484070000000  0.5543400000000 1.0
C      1  0.4980400000000  0.5678130000000  0.5438250000000 1.0
C      1  0.5468160000000  0.5716350000000  0.4811970000000 1.0
C      1  0.4649390000000  0.5689310000000  0.4770360000000 1.0
C      1  0.5010410000000  0.4334580000000  0.5353180000000 1.0
C      1  0.5581180000000  0.4264360000000  0.4864920000000 1.0
C      1  0.4574480000000  0.4351710000000  0.4736930000000 1.0
C      1  0.4826180000000  0.5151820000000  0.5232300000000 1.0
C      1  0.5296160000000  0.5149320000000  0.5034400000000 1.0
C      1  0.4887200000000  0.5160060000000  0.4730470000000 1.0
C      1  0.4830340000000  0.4844890000000  0.5237390000000 1.0
C      1  0.5301000000000  0.4838670000000  0.5049550000000 1.0
C      1  0.4883330000000  0.4859720000000  0.4737940000000 1.0
C      1  0.4935300000000  0.5132620000000  0.4234860000000 1.0
C      1  0.4360310000000  0.5142390000000  0.5403460000000 1.0
C      1  0.5679550000000  0.5179770000000  0.5359950000000 1.0
C      1  0.4907710000000  0.4839030000000  0.4243960000000 1.0
C      1  0.4361330000000  0.4848130000000  0.5402680000000 1.0
C      1  0.5693610000000  0.4886720000000  0.5366930000000 1.0
C      1  0.5600900000000  0.4462490000000  0.5271090000000 1.0
C      1  0.5100750000000  0.4417670000000  0.4357880000000 1.0
C      1  0.4491220000000  0.4390210000000  0.5360570000000 1.0
C      1  0.5576200000000  0.5605790000000  0.5287180000000 1.0
C      1  0.4930550000000  0.5591420000000  0.4329010000000 1.0
C      1  0.4447180000000  0.5577990000000  0.5370490000000 1.0
C      1  0.5561370000000  0.4420780000000  0.4639370000000 1.0
C      1  0.4317730000000  0.4504560000000  0.4783840000000 1.0
C      1  0.5121720000000  0.4454530000000  0.5605100000000 1.0
C      1  0.5477940000000  0.5522530000000  0.4580000000000 1.0
C      1  0.4377170000000  0.5564060000000  0.4773080000000 1.0
C      1  0.5093990000000  0.5545910000000  0.5678840000000 1.0
C      1  0.4903750000000  0.5661420000000  0.4601490000000 1.0
C      1  0.4704700000000  0.5667980000000  0.5288880000000 1.0
C      1  0.5384680000000  0.5679640000000  0.5094420000000 1.0
C      1  0.4817880000000  0.4447430000000  0.4514300000000 1.0
C      1  0.4743510000000  0.4354520000000  0.5232760000000 1.0
C      1  0.5459470000000  0.4272490000000  0.5111680000000 1.0
C      1  0.5730850000000  0.5156500000000  0.4867740000000 1.0
C      1  0.4496800000000  0.5173430000000  0.4450260000000 1.0
C      1  0.4752890000000  0.5143070000000  0.5696480000000 1.0
C      1  0.5746540000000  0.4849340000000  0.4879140000000 1.0
C      1  0.4484380000000  0.4874380000000  0.4477210000000 1.0
C      1  0.4750180000000  0.4833630000000  0.5693280000000 1.0
C      1  0.4631000000000  0.4725610000000  0.5444270000000 1.0
C      1  0.5596330000000  0.4744830000000  0.5121480000000 1.0
C      1  0.4756240000000  0.4750000000000  0.4482750000000 1.0
C      1  0.4633260000000  0.5264790000000  0.5450260000000 1.0
C      1  0.5575370000000  0.5282980000000  0.5094960000000 1.0
C      1  0.4780010000000  0.5268930000000  0.4454530000000 1.0
END
