TITL C-3578202-4305-225 -5.63201208310632e-06 125000 -1077.48120249232 0 0 171 (C1) n - 1
REM
REM in /home/bkarasulu/work/CARBON/AIRSS/Generating-Clusters/EDIP-Nigel-Params/with-SteepDescent/Higher-Symm/SD-CG/HFTN-CG
REM
REM
REM
REM
REM
REM ./C.cell (12c818d87b63d06a65506943cc24bca4)
REM
REM compiler GCC version 9.2.1 20190827 (Red Hat 9.2.1-1)
REM options -cpp -mtune=generic -march=x86-64 -g -O0 -fpre-include=/usr/include/finclude/math-vector-fortran.h
REM seed -1286116772 63010162 -869026983 -720591714 -1590615005 1651261919 1343014469 1649516248 1632022698 -342498275 -2031334308 -1857452128 787287994 1501241857 562025541 -138809160 -1826148703 -396546546 2079011484 -909181028 -149636221 283547500 122536969 164424157 -1095862500 1637718537 1757026581 -1478269894 1162040238 -864056500 -1403490014 857896269 -930111809
REM
CELL 1.54180   50.00000   50.00000   50.00000   90.00000   90.00000   90.00000
LATT -1
SFAC C  
C      1  0.5094180000000  0.4337720000000  0.5711280000000 1.0
C      1  0.5076070000000  0.5952730000000  0.5237910000000 1.0
C      1  0.5083470000000  0.4695330000000  0.4047050000000 1.0
C      1  0.5081180000000  0.5652580000000  0.5718300000000 1.0
C      1  0.5099490000000  0.4071100000000  0.5198950000000 1.0
C      1  0.5097590000000  0.5258670000000  0.4020430000000 1.0
C      1  0.5524080000000  0.4209180000000  0.4363900000000 1.0
C      1  0.5535930000000  0.4847760000000  0.5981750000000 1.0
C      1  0.5543660000000  0.5911370000000  0.4642690000000 1.0
C      1  0.5541230000000  0.5753370000000  0.4392090000000 1.0
C      1  0.5536210000000  0.5142620000000  0.5985520000000 1.0
C      1  0.5514080000000  0.4085550000000  0.4634190000000 1.0
C      1  0.4364060000000  0.4854590000000  0.4257720000000 1.0
C      1  0.4358740000000  0.4439510000000  0.5497870000000 1.0
C      1  0.4343930000000  0.5718310000000  0.5245620000000 1.0
C      1  0.4369560000000  0.5139080000000  0.4256000000000 1.0
C      1  0.4330730000000  0.5567720000000  0.5492890000000 1.0
C      1  0.4373190000000  0.4300660000000  0.5248430000000 1.0
C      1  0.4974170000000  0.4853060000000  0.4791710000000 1.0
C      1  0.4926290000000  0.4858690000000  0.5260920000000 1.0
C      1  0.4879810000000  0.5282150000000  0.5043610000000 1.0
C      1  0.4978440000000  0.5155100000000  0.4801790000000 1.0
C      1  0.4950110000000  0.5156790000000  0.5289400000000 1.0
C      1  0.4854570000000  0.4729460000000  0.5018270000000 1.0
C      1  0.5740440000000  0.4699980000000  0.4335510000000 1.0
C      1  0.5788130000000  0.4589840000000  0.5588270000000 1.0
C      1  0.5772440000000  0.5739130000000  0.5077380000000 1.0
C      1  0.5771030000000  0.5293130000000  0.4332170000000 1.0
C      1  0.5766760000000  0.5434970000000  0.5618990000000 1.0
C      1  0.5763350000000  0.4292890000000  0.5049800000000 1.0
C      1  0.4830470000000  0.4208430000000  0.5627200000000 1.0
C      1  0.4810170000000  0.5933160000000  0.5383700000000 1.0
C      1  0.4817840000000  0.4837180000000  0.3971000000000 1.0
C      1  0.4814970000000  0.5771050000000  0.5624480000000 1.0
C      1  0.4838980000000  0.4075380000000  0.5366770000000 1.0
C      1  0.4821560000000  0.5130940000000  0.3967800000000 1.0
C      1  0.4598140000000  0.6028040000000  0.4952040000000 1.0
C      1  0.4597510000000  0.4432880000000  0.4128660000000 1.0
C      1  0.4591510000000  0.4517690000000  0.5933060000000 1.0
C      1  0.4582720000000  0.3957140000000  0.4972800000000 1.0
C      1  0.4617810000000  0.5548710000000  0.4128240000000 1.0
C      1  0.4558250000000  0.5494280000000  0.5939980000000 1.0
C      1  0.4820010000000  0.3807280000000  0.4855840000000 1.0
C      1  0.4810640000000  0.5460880000000  0.6114130000000 1.0
C      1  0.4848570000000  0.5710130000000  0.4046520000000 1.0
C      1  0.4831090000000  0.6177380000000  0.4845570000000 1.0
C      1  0.4833420000000  0.4546100000000  0.6102340000000 1.0
C      1  0.4822240000000  0.4258170000000  0.4052890000000 1.0
C      1  0.4455050000000  0.4766990000000  0.5926900000000 1.0
C      1  0.4486020000000  0.5908480000000  0.4724040000000 1.0
C      1  0.4468310000000  0.4330430000000  0.4353340000000 1.0
C      1  0.4488340000000  0.5208120000000  0.5910600000000 1.0
C      1  0.4514040000000  0.4117000000000  0.4737820000000 1.0
C      1  0.4498320000000  0.5662850000000  0.4355620000000 1.0
C      1  0.5101860000000  0.3845350000000  0.4513390000000 1.0
C      1  0.5114290000000  0.5145880000000  0.6246700000000 1.0
C      1  0.5131310000000  0.5964900000000  0.4274800000000 1.0
C      1  0.5127400000000  0.6123350000000  0.4515680000000 1.0
C      1  0.5117060000000  0.4858980000000  0.6242810000000 1.0
C      1  0.5102150000000  0.3985660000000  0.4264060000000 1.0
C      1  0.5244600000000  0.5133220000000  0.5659010000000 1.0
C      1  0.5132500000000  0.5468980000000  0.4461810000000 1.0
C      1  0.5260130000000  0.4420260000000  0.4778280000000 1.0
C      1  0.5101780000000  0.4849840000000  0.5745530000000 1.0
C      1  0.5116730000000  0.4444910000000  0.4495510000000 1.0
C      1  0.5123250000000  0.5735700000000  0.4807500000000 1.0
C      1  0.4819500000000  0.5514320000000  0.4511300000000 1.0
C      1  0.4735660000000  0.4320260000000  0.4753820000000 1.0
C      1  0.4726720000000  0.5136260000000  0.5739360000000 1.0
C      1  0.4794640000000  0.4467160000000  0.4512740000000 1.0
C      1  0.4816750000000  0.5708510000000  0.4739360000000 1.0
C      1  0.4782830000000  0.4853850000000  0.5740410000000 1.0
C      1  0.5336490000000  0.5791890000000  0.5653360000000 1.0
C      1  0.5323940000000  0.5120460000000  0.3884780000000 1.0
C      1  0.5353730000000  0.4054860000000  0.5352280000000 1.0
C      1  0.5348680000000  0.4192780000000  0.5636490000000 1.0
C      1  0.5336640000000  0.4822910000000  0.3931500000000 1.0
C      1  0.5332940000000  0.5959580000000  0.5392210000000 1.0
C      1  0.4819630000000  0.4421460000000  0.5019440000000 1.0
C      1  0.4721640000000  0.5270030000000  0.5476690000000 1.0
C      1  0.4770250000000  0.5244860000000  0.4616030000000 1.0
C      1  0.4774140000000  0.5576380000000  0.5033250000000 1.0
C      1  0.4741080000000  0.4741270000000  0.5455490000000 1.0
C      1  0.4777830000000  0.4767440000000  0.4584400000000 1.0
C      1  0.5375350000000  0.5082620000000  0.5384610000000 1.0
C      1  0.5266900000000  0.5248260000000  0.4745610000000 1.0
C      1  0.5357310000000  0.4677910000000  0.4916900000000 1.0
C      1  0.5458810000000  0.4798120000000  0.5376970000000 1.0
C      1  0.5382430000000  0.4977390000000  0.4667960000000 1.0
C      1  0.5403590000000  0.5347600000000  0.4990720000000 1.0
C      1  0.5692790000000  0.5160550000000  0.5285140000000 1.0
C      1  0.5822080000000  0.5156120000000  0.4816320000000 1.0
C      1  0.5668560000000  0.4711500000000  0.4949130000000 1.0
C      1  0.5715120000000  0.4841910000000  0.5232290000000 1.0
C      1  0.5687970000000  0.4913240000000  0.4719520000000 1.0
C      1  0.5695270000000  0.5312670000000  0.5027760000000 1.0
C      1  0.4245880000000  0.4735810000000  0.5473310000000 1.0
C      1  0.4202080000000  0.5593780000000  0.5008420000000 1.0
C      1  0.4273520000000  0.4749820000000  0.4536020000000 1.0
C      1  0.4243120000000  0.5269090000000  0.5466820000000 1.0
C      1  0.4210140000000  0.4412990000000  0.5021300000000 1.0
C      1  0.4282050000000  0.5254480000000  0.4531330000000 1.0
C      1  0.5075110000000  0.5680020000000  0.5100920000000 1.0
C      1  0.5104360000000  0.4730380000000  0.4349060000000 1.0
C      1  0.5104330000000  0.4596070000000  0.5549270000000 1.0
C      1  0.5107580000000  0.4345870000000  0.5056740000000 1.0
C      1  0.5153690000000  0.5212460000000  0.4306170000000 1.0
C      1  0.5135470000000  0.5409540000000  0.5550440000000 1.0
C      1  0.4505700000000  0.4848890000000  0.4721800000000 1.0
C      1  0.4483530000000  0.4851970000000  0.5311500000000 1.0
C      1  0.4442400000000  0.5280620000000  0.5014480000000 1.0
C      1  0.4507350000000  0.5161040000000  0.4723840000000 1.0
C      1  0.4483930000000  0.5161030000000  0.5313160000000 1.0
C      1  0.4416580000000  0.4747530000000  0.5013740000000 1.0
C      1  0.5092110000000  0.4391830000000  0.4023010000000 1.0
C      1  0.5102370000000  0.4453320000000  0.5992940000000 1.0
C      1  0.5093710000000  0.6137220000000  0.4993260000000 1.0
C      1  0.5113620000000  0.5565960000000  0.4009370000000 1.0
C      1  0.5078740000000  0.5532160000000  0.5991710000000 1.0
C      1  0.5092570000000  0.3892090000000  0.4958650000000 1.0
C      1  0.4589310000000  0.4720330000000  0.4112180000000 1.0
C      1  0.4597380000000  0.4387220000000  0.5673120000000 1.0
C      1  0.4618890000000  0.5825720000000  0.5174770000000 1.0
C      1  0.4600310000000  0.5261590000000  0.4111390000000 1.0
C      1  0.4601760000000  0.5558170000000  0.5641510000000 1.0
C      1  0.4639410000000  0.4181500000000  0.5171070000000 1.0
C      1  0.5705350000000  0.4428980000000  0.4426250000000 1.0
C      1  0.5743680000000  0.4810460000000  0.5776480000000 1.0
C      1  0.5739920000000  0.5756390000000  0.4788970000000 1.0
C      1  0.5725810000000  0.5547230000000  0.4464420000000 1.0
C      1  0.5732340000000  0.5197490000000  0.5781370000000 1.0
C      1  0.5707230000000  0.4255120000000  0.4770120000000 1.0
C      1  0.4027960000000  0.5157880000000  0.5269730000000 1.0
C      1  0.4050780000000  0.5154800000000  0.4716000000000 1.0
C      1  0.4103350000000  0.4739170000000  0.5001080000000 1.0
C      1  0.4024530000000  0.4857770000000  0.5273620000000 1.0
C      1  0.4043410000000  0.4860630000000  0.4716700000000 1.0
C      1  0.4119480000000  0.5275520000000  0.4998600000000 1.0
C      1  0.5536100000000  0.5590480000000  0.5519900000000 1.0
C      1  0.5600060000000  0.5157140000000  0.4135700000000 1.0
C      1  0.5559530000000  0.4261850000000  0.5255620000000 1.0
C      1  0.5571570000000  0.4397170000000  0.5524050000000 1.0
C      1  0.5574770000000  0.4857440000000  0.4134950000000 1.0
C      1  0.5543970000000  0.5759430000000  0.5265200000000 1.0
C      1  0.4853670000000  0.5957020000000  0.4211930000000 1.0
C      1  0.4817210000000  0.3817670000000  0.4555730000000 1.0
C      1  0.4829030000000  0.5193400000000  0.6247070000000 1.0
C      1  0.4821050000000  0.4007570000000  0.4213930000000 1.0
C      1  0.4843890000000  0.6157610000000  0.4548180000000 1.0
C      1  0.4835650000000  0.4803610000000  0.6249260000000 1.0
C      1  0.5965230000000  0.5546020000000  0.5165980000000 1.0
C      1  0.5954310000000  0.4844240000000  0.4448380000000 1.0
C      1  0.5986200000000  0.4614050000000  0.5375130000000 1.0
C      1  0.5951500000000  0.4497550000000  0.5111670000000 1.0
C      1  0.5966690000000  0.5129960000000  0.4465680000000 1.0
C      1  0.5963690000000  0.5403470000000  0.5414700000000 1.0
C      1  0.4281000000000  0.5712290000000  0.4747510000000 1.0
C      1  0.4265520000000  0.4448030000000  0.4517560000000 1.0
C      1  0.4243880000000  0.4854450000000  0.5747920000000 1.0
C      1  0.4254490000000  0.4275950000000  0.4758380000000 1.0
C      1  0.4287880000000  0.5551270000000  0.4510450000000 1.0
C      1  0.4239500000000  0.5147240000000  0.5746250000000 1.0
C      1  0.5262880000000  0.5695280000000  0.4275900000000 1.0
C      1  0.5245800000000  0.3981680000000  0.4720290000000 1.0
C      1  0.5259040000000  0.5280830000000  0.6027480000000 1.0
C      1  0.5231550000000  0.4254570000000  0.4272790000000 1.0
C      1  0.5258670000000  0.5995090000000  0.4749140000000 1.0
C      1  0.5240930000000  0.4739120000000  0.6001160000000 1.0
C      1  0.5268500000000  0.4592540000000  0.5267220000000 1.0
C      1  0.5239940000000  0.5446710000000  0.5231350000000 1.0
C      1  0.5295560000000  0.4958380000000  0.4386210000000 1.0
END
