TITL C-3577089-586-437 -1.17812196571514e-06 125000 -845.575740561933 0 0 135 (C1) n - 1
REM
REM in /home/bkarasulu/work/CARBON/AIRSS/Generating-Clusters/EDIP-Nigel-Params/with-SteepDescent/Higher-Symm/SD-CG/HFTN-CG
REM
REM
REM
REM
REM
REM ./C.cell (12c818d87b63d06a65506943cc24bca4)
REM
REM compiler GCC version 9.2.1 20190827 (Red Hat 9.2.1-1)
REM options -cpp -mtune=generic -march=x86-64 -g -O0 -fpre-include=/usr/include/finclude/math-vector-fortran.h
REM seed 1464078552 -2039507288 805116703 1094460437 1114630350 -1944158302 -1023930430 -2078079885 984435275 1528531328 -874502354 -628605155 1957497169 322336795 -316264258 -334827872 1311105807 -581294441 -1313457135 -679238904 1452414262 171232640 -1046243102 855380604 -98004070 -1493588683 1664243423 -1866710633 968986626 1075954815 -2054067117 1125060578 -579753430
REM
CELL 1.54180   50.00000   50.00000   50.00000   90.00000   90.00000   90.00000
LATT -1
SFAC C  
C      1  0.5386410000000  0.5038010000000  0.5210620000000 1.0
C      1  0.5319510000000  0.4778460000000  0.5066550000000 1.0
C      1  0.5076590000000  0.4626910000000  0.5170070000000 1.0
C      1  0.4811760000000  0.4627210000000  0.5008830000000 1.0
C      1  0.4606400000000  0.4831170000000  0.5078100000000 1.0
C      1  0.4614440000000  0.5128190000000  0.5027390000000 1.0
C      1  0.4767390000000  0.5327200000000  0.5197600000000 1.0
C      1  0.5005700000000  0.5419950000000  0.5042900000000 1.0
C      1  0.5266660000000  0.5315220000000  0.5173510000000 1.0
C      1  0.4247580000000  0.4933190000000  0.4475630000000 1.0
C      1  0.4374960000000  0.5437100000000  0.4491960000000 1.0
C      1  0.4802880000000  0.5714250000000  0.4516050000000 1.0
C      1  0.5309560000000  0.5672720000000  0.4504720000000 1.0
C      1  0.5681070000000  0.5317900000000  0.4499560000000 1.0
C      1  0.5725980000000  0.4808420000000  0.4489460000000 1.0
C      1  0.5438510000000  0.4378950000000  0.4501550000000 1.0
C      1  0.4928740000000  0.4234490000000  0.4499030000000 1.0
C      1  0.4440550000000  0.4434820000000  0.4464390000000 1.0
C      1  0.5252870000000  0.6078950000000  0.4832120000000 1.0
C      1  0.5866240000000  0.5660530000000  0.4855070000000 1.0
C      1  0.6082500000000  0.4951800000000  0.4851600000000 1.0
C      1  0.5815470000000  0.4273190000000  0.4859400000000 1.0
C      1  0.5143470000000  0.3935280000000  0.4882680000000 1.0
C      1  0.4409910000000  0.4058350000000  0.4841500000000 1.0
C      1  0.4024500000000  0.4699430000000  0.4878450000000 1.0
C      1  0.4010940000000  0.5445380000000  0.4851810000000 1.0
C      1  0.4532570000000  0.5965290000000  0.4884520000000 1.0
C      1  0.4695010000000  0.4341860000000  0.4341140000000 1.0
C      1  0.4345910000000  0.4688990000000  0.4325800000000 1.0
C      1  0.4319180000000  0.5185570000000  0.4339140000000 1.0
C      1  0.4592740000000  0.5578720000000  0.4358520000000 1.0
C      1  0.5052200000000  0.5682500000000  0.4366570000000 1.0
C      1  0.5485860000000  0.5489070000000  0.4359210000000 1.0
C      1  0.5690400000000  0.5062400000000  0.4352550000000 1.0
C      1  0.5567840000000  0.4600890000000  0.4355050000000 1.0
C      1  0.5178270000000  0.4326410000000  0.4365650000000 1.0
C      1  0.4238510000000  0.4014090000000  0.5064090000000 1.0
C      1  0.3899090000000  0.4775610000000  0.5133100000000 1.0
C      1  0.3954710000000  0.5594500000000  0.5087780000000 1.0
C      1  0.4592160000000  0.6115250000000  0.5117540000000 1.0
C      1  0.5400010000000  0.6190940000000  0.5046220000000 1.0
C      1  0.5962780000000  0.5618440000000  0.5141340000000 1.0
C      1  0.6213020000000  0.4829050000000  0.5070260000000 1.0
C      1  0.5797520000000  0.4170460000000  0.5146130000000 1.0
C      1  0.5052770000000  0.3872340000000  0.5165480000000 1.0
C      1  0.4684100000000  0.4892930000000  0.5960590000000 1.0
C      1  0.4616950000000  0.5138320000000  0.5837080000000 1.0
C      1  0.4811380000000  0.5358240000000  0.5863570000000 1.0
C      1  0.5038650000000  0.5302740000000  0.6017810000000 1.0
C      1  0.5290170000000  0.5208550000000  0.5945260000000 1.0
C      1  0.5356050000000  0.4951070000000  0.6037280000000 1.0
C      1  0.5250240000000  0.4734530000000  0.5894900000000 1.0
C      1  0.5032930000000  0.4584990000000  0.5987050000000 1.0
C      1  0.4780630000000  0.4640100000000  0.5882650000000 1.0
C      1  0.5263770000000  0.4768530000000  0.5608970000000 1.0
C      1  0.5028510000000  0.4690120000000  0.5454840000000 1.0
C      1  0.4761010000000  0.4614700000000  0.5579700000000 1.0
C      1  0.4540750000000  0.4810230000000  0.5519850000000 1.0
C      1  0.4522050000000  0.5092350000000  0.5563600000000 1.0
C      1  0.4880540000000  0.5471400000000  0.5600870000000 1.0
C      1  0.5174150000000  0.5469090000000  0.5516050000000 1.0
C      1  0.5354680000000  0.5258770000000  0.5663380000000 1.0
C      1  0.5435010000000  0.5000890000000  0.5516820000000 1.0
C      1  0.6037760000000  0.4621650000000  0.5146720000000 1.0
C      1  0.5545500000000  0.4024980000000  0.5179450000000 1.0
C      1  0.4762740000000  0.3929330000000  0.5193990000000 1.0
C      1  0.4150060000000  0.4275750000000  0.5127810000000 1.0
C      1  0.3887640000000  0.5076500000000  0.5152930000000 1.0
C      1  0.4197500000000  0.5706350000000  0.5180200000000 1.0
C      1  0.4866900000000  0.6086820000000  0.5177480000000 1.0
C      1  0.5580480000000  0.5987460000000  0.5120150000000 1.0
C      1  0.6053790000000  0.5336880000000  0.5180710000000 1.0
C      1  0.4998310000000  0.5955460000000  0.4937590000000 1.0
C      1  0.5586010000000  0.5764900000000  0.4916600000000 1.0
C      1  0.5921290000000  0.5184030000000  0.4953410000000 1.0
C      1  0.5829470000000  0.4566270000000  0.4934110000000 1.0
C      1  0.5366130000000  0.4130440000000  0.4956380000000 1.0
C      1  0.4689920000000  0.4104320000000  0.4953650000000 1.0
C      1  0.4158800000000  0.4440390000000  0.4887910000000 1.0
C      1  0.4082160000000  0.5165800000000  0.4937550000000 1.0
C      1  0.4384180000000  0.5714810000000  0.4940820000000 1.0
C      1  0.4398580000000  0.4733960000000  0.5286660000000 1.0
C      1  0.4338480000000  0.5186850000000  0.5098760000000 1.0
C      1  0.4617000000000  0.5582360000000  0.5233800000000 1.0
C      1  0.5085120000000  0.5707630000000  0.5078340000000 1.0
C      1  0.5495990000000  0.5483230000000  0.5085150000000 1.0
C      1  0.5682840000000  0.5055790000000  0.5110340000000 1.0
C      1  0.5554220000000  0.4589370000000  0.5094100000000 1.0
C      1  0.5183100000000  0.4347120000000  0.5134770000000 1.0
C      1  0.4690000000000  0.4375640000000  0.5095840000000 1.0
C      1  0.5779020000000  0.4977440000000  0.5403950000000 1.0
C      1  0.5650010000000  0.4419180000000  0.5336760000000 1.0
C      1  0.5124550000000  0.4132020000000  0.5348100000000 1.0
C      1  0.4623210000000  0.4360000000000  0.5389620000000 1.0
C      1  0.4087390000000  0.4758030000000  0.5376190000000 1.0
C      1  0.4303870000000  0.5237520000000  0.5393650000000 1.0
C      1  0.4715670000000  0.5704180000000  0.5493580000000 1.0
C      1  0.5203940000000  0.5751000000000  0.5361450000000 1.0
C      1  0.5696380000000  0.5555170000000  0.5313070000000 1.0
C      1  0.4543980000000  0.5140480000000  0.4148300000000 1.0
C      1  0.4722820000000  0.5385860000000  0.4170940000000 1.0
C      1  0.5025310000000  0.5435650000000  0.4201470000000 1.0
C      1  0.5310850000000  0.5314030000000  0.4188120000000 1.0
C      1  0.5445000000000  0.5035650000000  0.4183780000000 1.0
C      1  0.5361950000000  0.4737490000000  0.4186800000000 1.0
C      1  0.5108040000000  0.4560990000000  0.4192820000000 1.0
C      1  0.4795300000000  0.4564640000000  0.4165250000000 1.0
C      1  0.4568530000000  0.4771480000000  0.4139000000000 1.0
C      1  0.5305720000000  0.5085320000000  0.4696880000000 1.0
C      1  0.5301670000000  0.4828650000000  0.4786440000000 1.0
C      1  0.5134160000000  0.4652750000000  0.4663360000000 1.0
C      1  0.4869750000000  0.4612770000000  0.4722700000000 1.0
C      1  0.4716290000000  0.4768180000000  0.4555030000000 1.0
C      1  0.4712620000000  0.5035930000000  0.4535670000000 1.0
C      1  0.4704340000000  0.5205540000000  0.4753450000000 1.0
C      1  0.4939380000000  0.5370070000000  0.4760530000000 1.0
C      1  0.5142680000000  0.5273900000000  0.4596580000000 1.0
C      1  0.5516260000000  0.5826490000000  0.5360140000000 1.0
C      1  0.5913910000000  0.5256620000000  0.5426170000000 1.0
C      1  0.5873980000000  0.4664300000000  0.5391340000000 1.0
C      1  0.5427780000000  0.4127960000000  0.5427100000000 1.0
C      1  0.4768210000000  0.4101150000000  0.5436540000000 1.0
C      1  0.4282040000000  0.4413910000000  0.5361890000000 1.0
C      1  0.4037430000000  0.5082750000000  0.5421710000000 1.0
C      1  0.4355010000000  0.5558730000000  0.5399850000000 1.0
C      1  0.4932450000000  0.5927330000000  0.5427700000000 1.0
C      1  0.5549840000000  0.4213900000000  0.4725620000000 1.0
C      1  0.4907770000000  0.4060250000000  0.4744070000000 1.0
C      1  0.4300330000000  0.4291530000000  0.4683230000000 1.0
C      1  0.4093070000000  0.4940920000000  0.4726680000000 1.0
C      1  0.4234000000000  0.5578090000000  0.4711960000000 1.0
C      1  0.4779350000000  0.5919440000000  0.4728960000000 1.0
C      1  0.5419950000000  0.5873320000000  0.4687010000000 1.0
C      1  0.5858250000000  0.5386510000000  0.4731210000000 1.0
C      1  0.5911310000000  0.4751730000000  0.4709200000000 1.0
END
