TITL C-3578194-7807-361 -2.93129681512557e-06 125000 -392.550958100024 0 0 64 (C1) n - 1
REM
REM in /home/bkarasulu/work/CARBON/AIRSS/Generating-Clusters/EDIP-Nigel-Params/with-SteepDescent/Higher-Symm/SD-CG/HFTN-CG
REM
REM
REM
REM
REM
REM ./C.cell (12c818d87b63d06a65506943cc24bca4)
REM
REM compiler GCC version 9.2.1 20190827 (Red Hat 9.2.1-1)
REM options -cpp -mtune=generic -march=x86-64 -g -O0 -fpre-include=/usr/include/finclude/math-vector-fortran.h
REM seed -1073444905 -1821356799 789768619 1269649049 -113107180 -821802554 -460675674 -1285871669 1190639033 1237085423 288965200 1453972755 -124746257 -2001690721 697782015 2025328495 854529524 582992133 50708065 -1576983157 51276445 1936851994 -457233171 232296505 -1222780083 -1233564577 877872095 -1269017254 1445974253 910573272 -1732874953 -235496101 -814706927
REM
CELL 1.54180   50.00000   50.00000   50.00000   90.00000   90.00000   90.00000
LATT -1
SFAC C  
C      1  0.4518230000000  0.4481230000000  0.4850570000000 1.0
C      1  0.4918580000000  0.4420730000000  0.5119780000000 1.0
C      1  0.5281890000000  0.4458210000000  0.4827330000000 1.0
C      1  0.5622510000000  0.4722050000000  0.5081880000000 1.0
C      1  0.5622400000000  0.5145680000000  0.4861170000000 1.0
C      1  0.5344510000000  0.5395540000000  0.5185650000000 1.0
C      1  0.5035920000000  0.5643740000000  0.4869670000000 1.0
C      1  0.4637280000000  0.5625180000000  0.5118680000000 1.0
C      1  0.4391140000000  0.5335800000000  0.4834120000000 1.0
C      1  0.4430260000000  0.4896030000000  0.5075900000000 1.0
C      1  0.4627210000000  0.4466760000000  0.5134540000000 1.0
C      1  0.5003860000000  0.4394940000000  0.4853340000000 1.0
C      1  0.5409390000000  0.4505100000000  0.5088910000000 1.0
C      1  0.5638000000000  0.4857190000000  0.4825560000000 1.0
C      1  0.5571650000000  0.5200600000000  0.5144810000000 1.0
C      1  0.5258620000000  0.5458660000000  0.4913240000000 1.0
C      1  0.4920360000000  0.5720220000000  0.5130450000000 1.0
C      1  0.4552090000000  0.5585690000000  0.4833840000000 1.0
C      1  0.4463740000000  0.5184770000000  0.5068230000000 1.0
C      1  0.4395050000000  0.4747560000000  0.4834560000000 1.0
C      1  0.4812970000000  0.5573950000000  0.4671730000000 1.0
C      1  0.4602710000000  0.5364310000000  0.5243220000000 1.0
C      1  0.4350530000000  0.5211020000000  0.4590830000000 1.0
C      1  0.4560980000000  0.4724210000000  0.5271360000000 1.0
C      1  0.4801530000000  0.4500730000000  0.4667570000000 1.0
C      1  0.5123770000000  0.4363250000000  0.5307620000000 1.0
C      1  0.5335330000000  0.4627880000000  0.4596940000000 1.0
C      1  0.5559400000000  0.4941840000000  0.5299820000000 1.0
C      1  0.5419590000000  0.5325480000000  0.4702390000000 1.0
C      1  0.5075750000000  0.5617260000000  0.5365340000000 1.0
C      1  0.5106230000000  0.4444290000000  0.5577850000000 1.0
C      1  0.5179500000000  0.4547250000000  0.4356860000000 1.0
C      1  0.5276510000000  0.4775820000000  0.5333830000000 1.0
C      1  0.5239750000000  0.4981500000000  0.4723370000000 1.0
C      1  0.5144290000000  0.5233470000000  0.5372860000000 1.0
C      1  0.4945460000000  0.5290720000000  0.4616990000000 1.0
C      1  0.4729220000000  0.5320830000000  0.5494010000000 1.0
C      1  0.4530100000000  0.5155040000000  0.4388610000000 1.0
C      1  0.4785640000000  0.4834080000000  0.5437730000000 1.0
C      1  0.4746320000000  0.4817920000000  0.4703390000000 1.0
C      1  0.5487800000000  0.4959090000000  0.4483910000000 1.0
C      1  0.5352750000000  0.5138380000000  0.5564980000000 1.0
C      1  0.5206570000000  0.5348480000000  0.4484630000000 1.0
C      1  0.4905710000000  0.5528800000000  0.5589870000000 1.0
C      1  0.4760620000000  0.5340490000000  0.4358110000000 1.0
C      1  0.4700920000000  0.5061470000000  0.5620330000000 1.0
C      1  0.4690640000000  0.4911500000000  0.4421660000000 1.0
C      1  0.4868300000000  0.4612710000000  0.5641570000000 1.0
C      1  0.4897560000000  0.4459670000000  0.4375860000000 1.0
C      1  0.5313530000000  0.4641920000000  0.5627130000000 1.0
C      1  0.4858200000000  0.4854470000000  0.4162000000000 1.0
C      1  0.4938470000000  0.4753430000000  0.5899110000000 1.0
C      1  0.4754390000000  0.4569630000000  0.4151010000000 1.0
C      1  0.5240360000000  0.4788350000000  0.5878460000000 1.0
C      1  0.5355400000000  0.4986780000000  0.4214810000000 1.0
C      1  0.5299420000000  0.5081540000000  0.5846270000000 1.0
C      1  0.5208960000000  0.5243950000000  0.4206210000000 1.0
C      1  0.5021460000000  0.5480230000000  0.5836730000000 1.0
C      1  0.4923490000000  0.5204080000000  0.4135550000000 1.0
C      1  0.4824470000000  0.5031970000000  0.5893950000000 1.0
C      1  0.5054460000000  0.5225210000000  0.5948480000000 1.0
C      1  0.5153040000000  0.4772500000000  0.4176240000000 1.0
C      1  0.4962400000000  0.4994580000000  0.4871400000000 1.0
C      1  0.5024010000000  0.4959010000000  0.5237190000000 1.0
END
