TITL C-3577080-309-376 -2.17115307780221e-06 125000 -1163.57668496327 0 0 191 (C1) n - 1
REM
REM in /home/bkarasulu/work/CARBON/AIRSS/Generating-Clusters/EDIP-Nigel-Params/with-SteepDescent/Higher-Symm/SD-CG/HFTN-CG
REM
REM
REM
REM
REM
REM ./C.cell (12c818d87b63d06a65506943cc24bca4)
REM
REM compiler GCC version 9.2.1 20190827 (Red Hat 9.2.1-1)
REM options -cpp -mtune=generic -march=x86-64 -g -O0 -fpre-include=/usr/include/finclude/math-vector-fortran.h
REM seed -346301875 133567418 -438257254 1225984565 -314638836 1333112839 -1228493582 -1996741262 621627094 -1533878873 -969064638 1947882668 -1615561167 -1197096482 1106302370 -1828273117 -1456922044 -1008302836 706972717 62169002 1861063859 2106948313 1798809707 357046905 1645558444 1081597239 -1114392184 -542371437 -1418307229 811132489 -297189465 -409166812 1086281622
REM
CELL 1.54180   50.00000   50.00000   50.00000   90.00000   90.00000   90.00000
LATT -1
SFAC C  
C      1  0.5831720000000  0.5518010000000  0.5244970000000 1.0
C      1  0.4761600000000  0.5963900000000  0.5252380000000 1.0
C      1  0.3959500000000  0.5124380000000  0.5261460000000 1.0
C      1  0.4633780000000  0.4043150000000  0.5248560000000 1.0
C      1  0.5633400000000  0.4360520000000  0.5216150000000 1.0
C      1  0.5880590000000  0.4570250000000  0.5105450000000 1.0
C      1  0.4786000000000  0.3842020000000  0.5107840000000 1.0
C      1  0.3891210000000  0.4840460000000  0.5161650000000 1.0
C      1  0.4516440000000  0.5840300000000  0.5113070000000 1.0
C      1  0.5705450000000  0.5759210000000  0.5127430000000 1.0
C      1  0.4441160000000  0.5090920000000  0.5191570000000 1.0
C      1  0.4629810000000  0.4569010000000  0.5114330000000 1.0
C      1  0.5347020000000  0.4676960000000  0.5115940000000 1.0
C      1  0.5508720000000  0.5186590000000  0.5119880000000 1.0
C      1  0.5062120000000  0.5565780000000  0.5153590000000 1.0
C      1  0.4462460000000  0.4869060000000  0.4999210000000 1.0
C      1  0.4812950000000  0.5449440000000  0.5059660000000 1.0
C      1  0.5310100000000  0.5442440000000  0.4997300000000 1.0
C      1  0.5493720000000  0.4892720000000  0.4974930000000 1.0
C      1  0.4857530000000  0.4489100000000  0.4941910000000 1.0
C      1  0.4692250000000  0.5239700000000  0.4068680000000 1.0
C      1  0.4417890000000  0.4785880000000  0.4073100000000 1.0
C      1  0.5009440000000  0.4527330000000  0.4113270000000 1.0
C      1  0.5494980000000  0.4903200000000  0.4108970000000 1.0
C      1  0.5344870000000  0.5402940000000  0.4102470000000 1.0
C      1  0.4639790000000  0.4601610000000  0.4056410000000 1.0
C      1  0.4446180000000  0.5091720000000  0.4084640000000 1.0
C      1  0.5064660000000  0.5328090000000  0.4117570000000 1.0
C      1  0.5568200000000  0.5179680000000  0.4104480000000 1.0
C      1  0.5284760000000  0.4583400000000  0.4101550000000 1.0
C      1  0.4661120000000  0.4080990000000  0.5532340000000 1.0
C      1  0.5628770000000  0.4342610000000  0.5511950000000 1.0
C      1  0.5868830000000  0.5474080000000  0.5529640000000 1.0
C      1  0.4798490000000  0.5932730000000  0.5541360000000 1.0
C      1  0.4057590000000  0.5163370000000  0.5542720000000 1.0
C      1  0.4607900000000  0.5760090000000  0.5682120000000 1.0
C      1  0.5733050000000  0.5661850000000  0.5699660000000 1.0
C      1  0.5778210000000  0.4544790000000  0.5646130000000 1.0
C      1  0.4914520000000  0.4099530000000  0.5677760000000 1.0
C      1  0.4081280000000  0.4921020000000  0.5723270000000 1.0
C      1  0.4375940000000  0.5236800000000  0.5908140000000 1.0
C      1  0.4572400000000  0.4387640000000  0.5887510000000 1.0
C      1  0.5372630000000  0.4384670000000  0.5928690000000 1.0
C      1  0.5703770000000  0.5165010000000  0.5880570000000 1.0
C      1  0.5035220000000  0.5706420000000  0.5896390000000 1.0
C      1  0.4222050000000  0.4998980000000  0.5972250000000 1.0
C      1  0.4739910000000  0.5699730000000  0.5941900000000 1.0
C      1  0.5616670000000  0.5444280000000  0.5991650000000 1.0
C      1  0.5616980000000  0.4571560000000  0.5987910000000 1.0
C      1  0.4818740000000  0.4222040000000  0.5933420000000 1.0
C      1  0.4663290000000  0.5463240000000  0.4254870000000 1.0
C      1  0.4342760000000  0.4784750000000  0.4384310000000 1.0
C      1  0.4906160000000  0.4421320000000  0.4360520000000 1.0
C      1  0.5606670000000  0.4768290000000  0.4345030000000 1.0
C      1  0.5469810000000  0.5515270000000  0.4372010000000 1.0
C      1  0.4610860000000  0.4499990000000  0.4346720000000 1.0
C      1  0.4323020000000  0.5106260000000  0.4361560000000 1.0
C      1  0.4943200000000  0.5512650000000  0.4315570000000 1.0
C      1  0.5663820000000  0.5278180000000  0.4380470000000 1.0
C      1  0.5438920000000  0.4530430000000  0.4341070000000 1.0
C      1  0.3965170000000  0.5399350000000  0.5116400000000 1.0
C      1  0.4350800000000  0.4136360000000  0.5191670000000 1.0
C      1  0.5474320000000  0.4099150000000  0.5141530000000 1.0
C      1  0.6277170000000  0.5150910000000  0.5158520000000 1.0
C      1  0.5274020000000  0.6279890000000  0.5168760000000 1.0
C      1  0.3871750000000  0.4456370000000  0.5164580000000 1.0
C      1  0.4077750000000  0.5886050000000  0.4946190000000 1.0
C      1  0.5572320000000  0.6231460000000  0.5117600000000 1.0
C      1  0.6308940000000  0.4842130000000  0.5105120000000 1.0
C      1  0.5209530000000  0.3688750000000  0.4985180000000 1.0
C      1  0.4216620000000  0.5847680000000  0.5185730000000 1.0
C      1  0.4083610000000  0.4495620000000  0.5358720000000 1.0
C      1  0.5066230000000  0.3823890000000  0.5189510000000 1.0
C      1  0.6060020000000  0.4754580000000  0.5267230000000 1.0
C      1  0.5580140000000  0.5982320000000  0.5290750000000 1.0
C      1  0.4257080000000  0.4278620000000  0.5435820000000 1.0
C      1  0.4126600000000  0.5586270000000  0.5283910000000 1.0
C      1  0.5255200000000  0.6009720000000  0.5333900000000 1.0
C      1  0.5990080000000  0.5080930000000  0.5284160000000 1.0
C      1  0.5164820000000  0.4109930000000  0.5222000000000 1.0
C      1  0.4045340000000  0.5225040000000  0.4358390000000 1.0
C      1  0.4428320000000  0.4249260000000  0.4383940000000 1.0
C      1  0.5578310000000  0.4272350000000  0.4388590000000 1.0
C      1  0.5944370000000  0.5332520000000  0.4455290000000 1.0
C      1  0.5003560000000  0.5806390000000  0.4266340000000 1.0
C      1  0.4061930000000  0.4669540000000  0.4440110000000 1.0
C      1  0.4454990000000  0.5682260000000  0.4319170000000 1.0
C      1  0.5598480000000  0.5783930000000  0.4410360000000 1.0
C      1  0.5904240000000  0.4727040000000  0.4405580000000 1.0
C      1  0.4985070000000  0.4133840000000  0.4425910000000 1.0
C      1  0.5382190000000  0.4889470000000  0.4707000000000 1.0
C      1  0.5234520000000  0.5379510000000  0.4718300000000 1.0
C      1  0.4755180000000  0.5422440000000  0.4782040000000 1.0
C      1  0.4519970000000  0.4977230000000  0.4734430000000 1.0
C      1  0.4915880000000  0.4668360000000  0.4727670000000 1.0
C      1  0.5324820000000  0.5140410000000  0.4624880000000 1.0
C      1  0.5186690000000  0.4694080000000  0.4663980000000 1.0
C      1  0.4717210000000  0.4828710000000  0.4614050000000 1.0
C      1  0.4533400000000  0.5259070000000  0.4717270000000 1.0
C      1  0.4976270000000  0.5416860000000  0.4600550000000 1.0
C      1  0.4385350000000  0.5741220000000  0.4619640000000 1.0
C      1  0.3990090000000  0.4631680000000  0.4758990000000 1.0
C      1  0.5029250000000  0.4047530000000  0.4736970000000 1.0
C      1  0.6000640000000  0.4744360000000  0.4716390000000 1.0
C      1  0.5601030000000  0.5895880000000  0.4719590000000 1.0
C      1  0.4364630000000  0.4164270000000  0.4670320000000 1.0
C      1  0.3914190000000  0.5266750000000  0.4623830000000 1.0
C      1  0.5051270000000  0.5977890000000  0.4859530000000 1.0
C      1  0.5998700000000  0.5353790000000  0.4778170000000 1.0
C      1  0.5628570000000  0.4220770000000  0.4680040000000 1.0
C      1  0.4788320000000  0.3883990000000  0.4818700000000 1.0
C      1  0.6036720000000  0.4460260000000  0.4856340000000 1.0
C      1  0.5880350000000  0.5852200000000  0.4879260000000 1.0
C      1  0.4549330000000  0.5894020000000  0.4811970000000 1.0
C      1  0.3802050000000  0.4827690000000  0.4874720000000 1.0
C      1  0.4801540000000  0.5983640000000  0.4737490000000 1.0
C      1  0.6039860000000  0.5636700000000  0.4804510000000 1.0
C      1  0.5895300000000  0.4260910000000  0.4736330000000 1.0
C      1  0.4541650000000  0.3963250000000  0.4727230000000 1.0
C      1  0.3772350000000  0.5059990000000  0.4733150000000 1.0
C      1  0.4224490000000  0.5650600000000  0.4164530000000 1.0
C      1  0.4000550000000  0.4439950000000  0.4272010000000 1.0
C      1  0.5182070000000  0.4015960000000  0.4240220000000 1.0
C      1  0.6067580000000  0.4892840000000  0.4250810000000 1.0
C      1  0.5487640000000  0.5957620000000  0.4225420000000 1.0
C      1  0.4201970000000  0.4253080000000  0.4220110000000 1.0
C      1  0.4034270000000  0.5446210000000  0.4187600000000 1.0
C      1  0.5213330000000  0.5955500000000  0.4164780000000 1.0
C      1  0.6112380000000  0.5164520000000  0.4307650000000 1.0
C      1  0.5459180000000  0.4068260000000  0.4249200000000 1.0
C      1  0.4818620000000  0.5360850000000  0.6078570000000 1.0
C      1  0.4562400000000  0.4881630000000  0.6091570000000 1.0
C      1  0.4927480000000  0.4535880000000  0.6110120000000 1.0
C      1  0.5401200000000  0.4793060000000  0.6092280000000 1.0
C      1  0.5334940000000  0.5313840000000  0.6075920000000 1.0
C      1  0.4689860000000  0.4642430000000  0.5984410000000 1.0
C      1  0.4638670000000  0.5150410000000  0.5987190000000 1.0
C      1  0.5083230000000  0.5422360000000  0.5966600000000 1.0
C      1  0.5428600000000  0.5050970000000  0.5957620000000 1.0
C      1  0.5179940000000  0.4603380000000  0.5996570000000 1.0
C      1  0.4113800000000  0.5705370000000  0.4731580000000 1.0
C      1  0.3921730000000  0.4360850000000  0.4883880000000 1.0
C      1  0.5266850000000  0.3867690000000  0.4772650000000 1.0
C      1  0.6254660000000  0.4897450000000  0.4797910000000 1.0
C      1  0.5509240000000  0.6180730000000  0.4808010000000 1.0
C      1  0.4136550000000  0.4151680000000  0.4865220000000 1.0
C      1  0.4037100000000  0.5434280000000  0.4818920000000 1.0
C      1  0.5208060000000  0.6224100000000  0.4869470000000 1.0
C      1  0.6249410000000  0.5201410000000  0.4855490000000 1.0
C      1  0.5505460000000  0.4018930000000  0.4853120000000 1.0
C      1  0.5988750000000  0.4496470000000  0.4268760000000 1.0
C      1  0.5848010000000  0.5782300000000  0.4286590000000 1.0
C      1  0.4535390000000  0.5912680000000  0.4183440000000 1.0
C      1  0.3857200000000  0.4797260000000  0.4272240000000 1.0
C      1  0.4805070000000  0.3952890000000  0.4281110000000 1.0
C      1  0.6022450000000  0.5562300000000  0.4315860000000 1.0
C      1  0.5815160000000  0.4274090000000  0.4245300000000 1.0
C      1  0.4537100000000  0.4034260000000  0.4237640000000 1.0
C      1  0.3883080000000  0.5067850000000  0.4198630000000 1.0
C      1  0.4809400000000  0.5970250000000  0.4162850000000 1.0
C      1  0.5071040000000  0.4274100000000  0.4963850000000 1.0
C      1  0.5769560000000  0.4802730000000  0.4935670000000 1.0
C      1  0.5480740000000  0.5675440000000  0.4940820000000 1.0
C      1  0.4574040000000  0.5549420000000  0.5194570000000 1.0
C      1  0.4209430000000  0.4685290000000  0.4985670000000 1.0
C      1  0.5034950000000  0.5877760000000  0.5139290000000 1.0
C      1  0.5812710000000  0.5265790000000  0.5088920000000 1.0
C      1  0.5346240000000  0.4418450000000  0.4955310000000 1.0
C      1  0.4373350000000  0.4416030000000  0.5032650000000 1.0
C      1  0.4364160000000  0.5360250000000  0.5094140000000 1.0
C      1  0.4688200000000  0.4563610000000  0.5424100000000 1.0
C      1  0.5181850000000  0.4762900000000  0.5353820000000 1.0
C      1  0.5485800000000  0.5173660000000  0.5438290000000 1.0
C      1  0.5065200000000  0.5510760000000  0.5451970000000 1.0
C      1  0.4562680000000  0.5078430000000  0.5460870000000 1.0
C      1  0.4826640000000  0.5332150000000  0.5524700000000 1.0
C      1  0.5328780000000  0.5412260000000  0.5535030000000 1.0
C      1  0.5387120000000  0.4904720000000  0.5540020000000 1.0
C      1  0.4995940000000  0.4540990000000  0.5462960000000 1.0
C      1  0.4539760000000  0.4795310000000  0.5554670000000 1.0
C      1  0.4255200000000  0.4725850000000  0.5591700000000 1.0
C      1  0.5109600000000  0.4260630000000  0.5504480000000 1.0
C      1  0.5627360000000  0.4785570000000  0.5666820000000 1.0
C      1  0.5452480000000  0.5618830000000  0.5695720000000 1.0
C      1  0.4585830000000  0.5514980000000  0.5503980000000 1.0
C      1  0.4345350000000  0.5273870000000  0.5615580000000 1.0
C      1  0.5062580000000  0.5795580000000  0.5597810000000 1.0
C      1  0.5771500000000  0.5192540000000  0.5576510000000 1.0
C      1  0.5373180000000  0.4293510000000  0.5649820000000 1.0
C      1  0.4522840000000  0.4336450000000  0.5585030000000 1.0
C      1  0.5017530000000  0.4961490000000  0.5267930000000 1.0
END
