TITL C-3578209-2550-333 -1.33321873898725e-07 125000 -110.512093889424 0 0 20 (C3h) n - 1
REM
REM in /home/bkarasulu/work/CARBON/AIRSS/Generating-Clusters/EDIP-Nigel-Params/with-SteepDescent/Higher-Symm/SD-CG/HFTN-CG
REM
REM
REM
REM
REM
REM ./C.cell (12c818d87b63d06a65506943cc24bca4)
REM
REM compiler GCC version 9.2.1 20190827 (Red Hat 9.2.1-1)
REM options -cpp -mtune=generic -march=x86-64 -g -O0 -fpre-include=/usr/include/finclude/math-vector-fortran.h
REM seed -1727351963 -171355524 537787975 1783154816 252275351 -908502192 -2029801798 -1920397252 837213884 -938834258 -1095896456 1873837101 -459683172 -1708024316 603388422 -571281116 -71324108 -1973915800 -1490614757 -1678619676 617007571 1298500181 -119066527 666692505 1826596149 1488561386 -1106725191 63148615 -1077987051 862021150 -753901213 -1945800265 2038949749
REM
CELL 1.54180   50.00000   50.00000   50.00000   90.00000   90.00000   90.00000
LATT -1
SFAC C  
C      1  0.4885980000000  0.5212900000000  0.5425370000000 1.0
C      1  0.4885980000000  0.4538620000000  0.4965220000000 1.0
C      1  0.4885980000000  0.5274260000000  0.4611350000000 1.0
C      1  0.5169250000000  0.5212900000000  0.5425370000000 1.0
C      1  0.5169250000000  0.4538620000000  0.4965220000000 1.0
C      1  0.5169250000000  0.5274260000000  0.4611350000000 1.0
C      1  0.4733580000000  0.5289810000000  0.4966030000000 1.0
C      1  0.4733580000000  0.4897960000000  0.5261490000000 1.0
C      1  0.4733580000000  0.4838010000000  0.4774410000000 1.0
C      1  0.5321650000000  0.5289810000000  0.4966030000000 1.0
C      1  0.5321650000000  0.4897960000000  0.5261490000000 1.0
C      1  0.5321650000000  0.4838010000000  0.4774410000000 1.0
C      1  0.5340800000000  0.5447740000000  0.4740140000000 1.0
C      1  0.5340800000000  0.5014620000000  0.5511210000000 1.0
C      1  0.5340800000000  0.4563420000000  0.4750580000000 1.0
C      1  0.4714430000000  0.5447740000000  0.4740140000000 1.0
C      1  0.4714430000000  0.5014620000000  0.5511210000000 1.0
C      1  0.4714430000000  0.4563420000000  0.4750580000000 1.0
C      1  0.4702650000000  0.5008590000000  0.5000640000000 1.0
C      1  0.5352580000000  0.5008590000000  0.5000640000000 1.0
END
