TITL C-3577082-504-532 -4.1515346494475e-06 125000 -1128.393988063 0 0 180 (C1) n - 1
REM
REM in /home/bkarasulu/work/CARBON/AIRSS/Generating-Clusters/EDIP-Nigel-Params/with-SteepDescent/Higher-Symm/SD-CG/HFTN-CG
REM
REM
REM
REM
REM
REM ./C.cell (12c818d87b63d06a65506943cc24bca4)
REM
REM compiler GCC version 9.2.1 20190827 (Red Hat 9.2.1-1)
REM options -cpp -mtune=generic -march=x86-64 -g -O0 -fpre-include=/usr/include/finclude/math-vector-fortran.h
REM seed -978860814 1136942796 -427386855 1008546179 -898715717 -960250487 1850682840 2021013925 1354434479 1413943842 195695828 725693107 1439448483 1375159056 -1309833948 -886366510 1096963893 1468497753 -573807260 739977179 1589182686 559941298 -1741268210 -2041248671 342981258 430031316 -1273121269 1130819906 742500592 2073487592 1418628692 -1526005982 -1663851361
REM
CELL 1.54180   50.00000   50.00000   50.00000   90.00000   90.00000   90.00000
LATT -1
SFAC C  
C      1  0.5227250000000  0.4891280000000  0.4592850000000 1.0
C      1  0.4876730000000  0.5806010000000  0.4796120000000 1.0
C      1  0.4282160000000  0.4727770000000  0.4322790000000 1.0
C      1  0.5588690000000  0.5853380000000  0.4900660000000 1.0
C      1  0.4429450000000  0.4359360000000  0.4897480000000 1.0
C      1  0.5355520000000  0.4733220000000  0.5514780000000 1.0
C      1  0.5133220000000  0.5731370000000  0.4382590000000 1.0
C      1  0.6021680000000  0.5378210000000  0.5000610000000 1.0
C      1  0.4184690000000  0.4179160000000  0.4856490000000 1.0
C      1  0.4375780000000  0.5379390000000  0.5724730000000 1.0
C      1  0.5470250000000  0.4094010000000  0.5449580000000 1.0
C      1  0.4842810000000  0.5382870000000  0.5140210000000 1.0
C      1  0.5432690000000  0.5843830000000  0.5426920000000 1.0
C      1  0.4665970000000  0.4577830000000  0.4020550000000 1.0
C      1  0.4817500000000  0.4341620000000  0.5896430000000 1.0
C      1  0.4267140000000  0.4450990000000  0.4451950000000 1.0
C      1  0.4937950000000  0.6018580000000  0.5497040000000 1.0
C      1  0.4518640000000  0.4343050000000  0.4607750000000 1.0
C      1  0.4782590000000  0.3947420000000  0.4742110000000 1.0
C      1  0.4600100000000  0.5435140000000  0.4978740000000 1.0
C      1  0.5085620000000  0.5598120000000  0.5182440000000 1.0
C      1  0.4527090000000  0.4037180000000  0.4608300000000 1.0
C      1  0.4896330000000  0.4689170000000  0.5306680000000 1.0
C      1  0.5481500000000  0.5314710000000  0.5515210000000 1.0
C      1  0.5607990000000  0.5390410000000  0.4137850000000 1.0
C      1  0.5650490000000  0.5438030000000  0.5734230000000 1.0
C      1  0.4049440000000  0.4395350000000  0.4677460000000 1.0
C      1  0.4991860000000  0.5252070000000  0.6063710000000 1.0
C      1  0.5087200000000  0.5222050000000  0.4265750000000 1.0
C      1  0.5582080000000  0.4275730000000  0.4449620000000 1.0
C      1  0.4494380000000  0.5322910000000  0.4146230000000 1.0
C      1  0.5222440000000  0.4043750000000  0.4878330000000 1.0
C      1  0.5091800000000  0.5641790000000  0.5744440000000 1.0
C      1  0.4681210000000  0.4786060000000  0.4684570000000 1.0
C      1  0.5136450000000  0.4759420000000  0.4884890000000 1.0
C      1  0.4608200000000  0.3877410000000  0.5209890000000 1.0
C      1  0.4555980000000  0.4461460000000  0.5894550000000 1.0
C      1  0.4050460000000  0.5202270000000  0.5293170000000 1.0
C      1  0.3937840000000  0.4916700000000  0.4631470000000 1.0
C      1  0.4998860000000  0.5944350000000  0.4568420000000 1.0
C      1  0.4361240000000  0.5184900000000  0.4596270000000 1.0
C      1  0.6049950000000  0.4643540000000  0.4408780000000 1.0
C      1  0.5428730000000  0.5781610000000  0.4425140000000 1.0
C      1  0.5238710000000  0.4884620000000  0.6088560000000 1.0
C      1  0.5424240000000  0.5358610000000  0.3915290000000 1.0
C      1  0.5045040000000  0.5444810000000  0.4473650000000 1.0
C      1  0.4434990000000  0.4514090000000  0.5626540000000 1.0
C      1  0.5431440000000  0.4767030000000  0.5009980000000 1.0
C      1  0.4604400000000  0.4067290000000  0.5412990000000 1.0
C      1  0.4223650000000  0.4904950000000  0.4555700000000 1.0
C      1  0.5927730000000  0.4987310000000  0.4662340000000 1.0
C      1  0.5617400000000  0.4471950000000  0.4221550000000 1.0
C      1  0.4326930000000  0.5721570000000  0.4344470000000 1.0
C      1  0.5106820000000  0.4569050000000  0.4079100000000 1.0
C      1  0.5315630000000  0.5566100000000  0.4931200000000 1.0
C      1  0.5071110000000  0.4453020000000  0.4932050000000 1.0
C      1  0.6016960000000  0.5443750000000  0.5287210000000 1.0
C      1  0.5869950000000  0.4579960000000  0.5122760000000 1.0
C      1  0.5448910000000  0.4589040000000  0.5248210000000 1.0
C      1  0.4990470000000  0.4332870000000  0.4201620000000 1.0
C      1  0.5262270000000  0.4361360000000  0.5179600000000 1.0
C      1  0.4596970000000  0.5224770000000  0.4420950000000 1.0
C      1  0.4311030000000  0.5878300000000  0.5210550000000 1.0
C      1  0.4832680000000  0.5008630000000  0.3890240000000 1.0
C      1  0.5484000000000  0.5969680000000  0.4646050000000 1.0
C      1  0.5374000000000  0.5144160000000  0.4662430000000 1.0
C      1  0.4483070000000  0.6029400000000  0.5037270000000 1.0
C      1  0.4464600000000  0.4806550000000  0.5205190000000 1.0
C      1  0.5583630000000  0.5431400000000  0.4971540000000 1.0
C      1  0.4112710000000  0.5480130000000  0.5321230000000 1.0
C      1  0.4803240000000  0.4670370000000  0.5603250000000 1.0
C      1  0.4276380000000  0.3947130000000  0.4714340000000 1.0
C      1  0.5193710000000  0.5906230000000  0.5606200000000 1.0
C      1  0.4817780000000  0.3866710000000  0.5026070000000 1.0
C      1  0.5819430000000  0.4681280000000  0.4264100000000 1.0
C      1  0.4608300000000  0.5743720000000  0.4245430000000 1.0
C      1  0.4663560000000  0.5545420000000  0.4047070000000 1.0
C      1  0.4290430000000  0.5560110000000  0.5525790000000 1.0
C      1  0.4220040000000  0.5458730000000  0.4240170000000 1.0
C      1  0.5895330000000  0.5246890000000  0.5724770000000 1.0
C      1  0.5392340000000  0.4607550000000  0.4061820000000 1.0
C      1  0.4362010000000  0.4776540000000  0.4779000000000 1.0
C      1  0.5647340000000  0.4793160000000  0.4716760000000 1.0
C      1  0.4759490000000  0.5442030000000  0.4533210000000 1.0
C      1  0.5195470000000  0.3935460000000  0.5393600000000 1.0
C      1  0.5477290000000  0.4879890000000  0.4015030000000 1.0
C      1  0.4739240000000  0.4907280000000  0.5194380000000 1.0
C      1  0.6016410000000  0.5078930000000  0.4928650000000 1.0
C      1  0.4794750000000  0.5658140000000  0.5750980000000 1.0
C      1  0.5661770000000  0.4281010000000  0.4732490000000 1.0
C      1  0.4963020000000  0.4538120000000  0.6047210000000 1.0
C      1  0.5340660000000  0.5085790000000  0.3852740000000 1.0
C      1  0.5035050000000  0.4064260000000  0.4644710000000 1.0
C      1  0.6038710000000  0.4617560000000  0.4681050000000 1.0
C      1  0.4721370000000  0.4320070000000  0.4121500000000 1.0
C      1  0.5481890000000  0.5047580000000  0.6021050000000 1.0
C      1  0.5088250000000  0.4307420000000  0.5448670000000 1.0
C      1  0.4567700000000  0.4988410000000  0.5903760000000 1.0
C      1  0.4429040000000  0.4321560000000  0.5381570000000 1.0
C      1  0.5832100000000  0.5493440000000  0.4552020000000 1.0
C      1  0.5450980000000  0.4462220000000  0.5850730000000 1.0
C      1  0.4056140000000  0.5613020000000  0.4824520000000 1.0
C      1  0.5582240000000  0.4134040000000  0.5185150000000 1.0
C      1  0.5207160000000  0.6073190000000  0.5015580000000 1.0
C      1  0.4544090000000  0.4805520000000  0.4184340000000 1.0
C      1  0.5012170000000  0.5204590000000  0.4951730000000 1.0
C      1  0.5589650000000  0.5154090000000  0.4866940000000 1.0
C      1  0.5183980000000  0.5354210000000  0.4737360000000 1.0
C      1  0.4609980000000  0.5462570000000  0.5865230000000 1.0
C      1  0.5103100000000  0.4550070000000  0.5632080000000 1.0
C      1  0.5276580000000  0.4447300000000  0.4604400000000 1.0
C      1  0.6003060000000  0.4851590000000  0.5118520000000 1.0
C      1  0.5188350000000  0.5490860000000  0.5479940000000 1.0
C      1  0.5099680000000  0.3905600000000  0.5104570000000 1.0
C      1  0.5851860000000  0.4946950000000  0.5789630000000 1.0
C      1  0.4807960000000  0.5943650000000  0.4328530000000 1.0
C      1  0.4094990000000  0.4728520000000  0.5435110000000 1.0
C      1  0.4653140000000  0.5615680000000  0.4749820000000 1.0
C      1  0.5477170000000  0.5028700000000  0.5125490000000 1.0
C      1  0.4306550000000  0.4977640000000  0.5015680000000 1.0
C      1  0.5573090000000  0.4877700000000  0.5800310000000 1.0
C      1  0.4268620000000  0.5769090000000  0.4635940000000 1.0
C      1  0.4832800000000  0.4462280000000  0.5133120000000 1.0
C      1  0.4723530000000  0.4938300000000  0.4418000000000 1.0
C      1  0.5932220000000  0.4757580000000  0.5571500000000 1.0
C      1  0.4876060000000  0.4074820000000  0.5550990000000 1.0
C      1  0.4458790000000  0.5198740000000  0.4880720000000 1.0
C      1  0.5216290000000  0.5139860000000  0.5162770000000 1.0
C      1  0.5021520000000  0.4960800000000  0.4378670000000 1.0
C      1  0.3955690000000  0.5123890000000  0.5038020000000 1.0
C      1  0.4118030000000  0.5678870000000  0.5110840000000 1.0
C      1  0.3880330000000  0.5199770000000  0.4579720000000 1.0
C      1  0.4745340000000  0.6056640000000  0.5172360000000 1.0
C      1  0.5593780000000  0.5008660000000  0.5437720000000 1.0
C      1  0.5186380000000  0.5476440000000  0.5990730000000 1.0
C      1  0.4019860000000  0.4628930000000  0.4876010000000 1.0
C      1  0.4860210000000  0.4070780000000  0.5839490000000 1.0
C      1  0.4867920000000  0.4925990000000  0.4913420000000 1.0
C      1  0.4806190000000  0.5150980000000  0.5375890000000 1.0
C      1  0.5232190000000  0.6103000000000  0.4714350000000 1.0
C      1  0.5255060000000  0.4587570000000  0.6039720000000 1.0
C      1  0.4164470000000  0.4594270000000  0.5669230000000 1.0
C      1  0.5919680000000  0.5223380000000  0.4466860000000 1.0
C      1  0.4971120000000  0.5892560000000  0.5062800000000 1.0
C      1  0.4902980000000  0.4711630000000  0.3914070000000 1.0
C      1  0.5455280000000  0.5973150000000  0.5151210000000 1.0
C      1  0.5094890000000  0.5070170000000  0.5407080000000 1.0
C      1  0.5460510000000  0.5350860000000  0.5964050000000 1.0
C      1  0.5980210000000  0.5215160000000  0.5453950000000 1.0
C      1  0.5057610000000  0.5027470000000  0.5884500000000 1.0
C      1  0.5892540000000  0.5677910000000  0.5381180000000 1.0
C      1  0.4310480000000  0.5093300000000  0.5724450000000 1.0
C      1  0.4622710000000  0.4711000000000  0.6043120000000 1.0
C      1  0.5562460000000  0.4353360000000  0.5601740000000 1.0
C      1  0.4147840000000  0.4290080000000  0.5281680000000 1.0
C      1  0.4694990000000  0.5248310000000  0.6036100000000 1.0
C      1  0.4141340000000  0.5365180000000  0.4521410000000 1.0
C      1  0.5876250000000  0.4450930000000  0.4852880000000 1.0
C      1  0.4173020000000  0.5008270000000  0.5470150000000 1.0
C      1  0.5628680000000  0.5580460000000  0.4358910000000 1.0
C      1  0.5068540000000  0.5212100000000  0.3960820000000 1.0
C      1  0.5241840000000  0.5125320000000  0.5652670000000 1.0
C      1  0.4459430000000  0.5950800000000  0.4756940000000 1.0
C      1  0.4705300000000  0.5851110000000  0.5563870000000 1.0
C      1  0.4544570000000  0.5054380000000  0.3995050000000 1.0
C      1  0.4772630000000  0.4497150000000  0.4614540000000 1.0
C      1  0.5797520000000  0.5181690000000  0.4205540000000 1.0
C      1  0.5504290000000  0.4115700000000  0.4912180000000 1.0
C      1  0.5824600000000  0.5568250000000  0.4846430000000 1.0
C      1  0.4797690000000  0.4952400000000  0.5711800000000 1.0
C      1  0.4430570000000  0.5803240000000  0.5464930000000 1.0
C      1  0.5440010000000  0.4693310000000  0.4493470000000 1.0
C      1  0.5745700000000  0.4914930000000  0.4111130000000 1.0
C      1  0.3869630000000  0.5333460000000  0.4847490000000 1.0
C      1  0.5674110000000  0.5712770000000  0.5554600000000 1.0
C      1  0.4530370000000  0.4492410000000  0.5148340000000 1.0
C      1  0.6025590000000  0.4944810000000  0.5381130000000 1.0
C      1  0.5791740000000  0.4515750000000  0.5433340000000 1.0
C      1  0.5012360000000  0.4334030000000  0.4503100000000 1.0
C      1  0.4064340000000  0.4553540000000  0.5188190000000 1.0
END
