TITL C-3577084-3642-647 3.23579900255162e-07 125000 -736.603594680726 0 0 117 (C1) n - 1
REM
REM in /home/bkarasulu/work/CARBON/AIRSS/Generating-Clusters/EDIP-Nigel-Params/with-SteepDescent/Higher-Symm/SD-CG/HFTN-CG
REM
REM
REM
REM
REM
REM ./C.cell (12c818d87b63d06a65506943cc24bca4)
REM
REM compiler GCC version 9.2.1 20190827 (Red Hat 9.2.1-1)
REM options -cpp -mtune=generic -march=x86-64 -g -O0 -fpre-include=/usr/include/finclude/math-vector-fortran.h
REM seed -1470340360 1971176882 -65256467 -233306456 195265087 1437640821 510536930 560614629 660393443 828338053 -1126009039 -551391082 1183456201 -657950279 629833085 -298600939 -1539526288 -833230906 -2124886663 -349743426 -275644715 -992330732 1473693798 -1088131369 455475084 -904230931 -1829856975 253279611 1398476024 1206796353 -167885653 -996293198 142165871
REM
CELL 1.54180   50.00000   50.00000   50.00000   90.00000   90.00000   90.00000
LATT -1
SFAC C  
C      1  0.5047590000000  0.4571560000000  0.5870580000000 1.0
C      1  0.4226380000000  0.4552060000000  0.5318740000000 1.0
C      1  0.4440330000000  0.4496620000000  0.4361810000000 1.0
C      1  0.5424380000000  0.4547630000000  0.4298190000000 1.0
C      1  0.5816350000000  0.4567890000000  0.5229070000000 1.0
C      1  0.4866150000000  0.5919990000000  0.5237750000000 1.0
C      1  0.4753670000000  0.5943230000000  0.4959820000000 1.0
C      1  0.4985470000000  0.5935160000000  0.4767490000000 1.0
C      1  0.5240860000000  0.5923630000000  0.4929190000000 1.0
C      1  0.5167440000000  0.5916580000000  0.5221330000000 1.0
C      1  0.4689550000000  0.5437790000000  0.5769570000000 1.0
C      1  0.4188500000000  0.5485990000000  0.4924800000000 1.0
C      1  0.4780770000000  0.5492310000000  0.4189730000000 1.0
C      1  0.5698080000000  0.5500050000000  0.4551760000000 1.0
C      1  0.5657500000000  0.5435130000000  0.5543150000000 1.0
C      1  0.5333110000000  0.4313570000000  0.4729730000000 1.0
C      1  0.5371360000000  0.4324120000000  0.5244680000000 1.0
C      1  0.4896510000000  0.4323520000000  0.5440600000000 1.0
C      1  0.4566060000000  0.4303350000000  0.5048440000000 1.0
C      1  0.4832050000000  0.4301040000000  0.4609790000000 1.0
C      1  0.5935040000000  0.4738110000000  0.4781460000000 1.0
C      1  0.5475330000000  0.4802330000000  0.5789590000000 1.0
C      1  0.4384290000000  0.4816350000000  0.5675610000000 1.0
C      1  0.4126320000000  0.4729660000000  0.4626270000000 1.0
C      1  0.5068150000000  0.4743860000000  0.4057860000000 1.0
C      1  0.5005370000000  0.4346310000000  0.4363270000000 1.0
C      1  0.5617060000000  0.4368410000000  0.4829340000000 1.0
C      1  0.5355910000000  0.4392180000000  0.5543400000000 1.0
C      1  0.4607070000000  0.4380090000000  0.5519050000000 1.0
C      1  0.4387290000000  0.4339470000000  0.4805330000000 1.0
C      1  0.5419870000000  0.5606720000000  0.5595430000000 1.0
C      1  0.4572610000000  0.5610670000000  0.5560730000000 1.0
C      1  0.4258870000000  0.5651290000000  0.4696890000000 1.0
C      1  0.5004980000000  0.5660950000000  0.4303570000000 1.0
C      1  0.5687280000000  0.5647540000000  0.4806470000000 1.0
C      1  0.5110150000000  0.5023260000000  0.5917760000000 1.0
C      1  0.4166220000000  0.5030850000000  0.5330400000000 1.0
C      1  0.4427590000000  0.4994170000000  0.4365050000000 1.0
C      1  0.5410710000000  0.5028910000000  0.4239580000000 1.0
C      1  0.5884430000000  0.5017860000000  0.5160590000000 1.0
C      1  0.4170630000000  0.4993440000000  0.5042900000000 1.0
C      1  0.4691110000000  0.4997760000000  0.4245180000000 1.0
C      1  0.5631470000000  0.5012030000000  0.4428380000000 1.0
C      1  0.5716610000000  0.4908140000000  0.5393240000000 1.0
C      1  0.4844960000000  0.4902880000000  0.5833150000000 1.0
C      1  0.4576780000000  0.5694330000000  0.4909140000000 1.0
C      1  0.4951140000000  0.5673890000000  0.4606730000000 1.0
C      1  0.5376620000000  0.5657520000000  0.4858650000000 1.0
C      1  0.5277440000000  0.5646830000000  0.5330610000000 1.0
C      1  0.4785400000000  0.5647020000000  0.5346300000000 1.0
C      1  0.5095380000000  0.4353940000000  0.5674680000000 1.0
C      1  0.4410590000000  0.4332920000000  0.5308770000000 1.0
C      1  0.4533560000000  0.4307080000000  0.4550170000000 1.0
C      1  0.5295650000000  0.4330230000000  0.4427430000000 1.0
C      1  0.5650910000000  0.4349720000000  0.5124280000000 1.0
C      1  0.5441940000000  0.4797940000000  0.5291650000000 1.0
C      1  0.4858500000000  0.4793160000000  0.5542120000000 1.0
C      1  0.4483300000000  0.4761700000000  0.5035570000000 1.0
C      1  0.4830150000000  0.4775800000000  0.4537620000000 1.0
C      1  0.5413710000000  0.4781910000000  0.4655730000000 1.0
C      1  0.5313690000000  0.5051860000000  0.5241010000000 1.0
C      1  0.4857550000000  0.5054620000000  0.5417370000000 1.0
C      1  0.4602640000000  0.5048150000000  0.5000620000000 1.0
C      1  0.4885330000000  0.5069270000000  0.4648540000000 1.0
C      1  0.5346490000000  0.5068240000000  0.4756870000000 1.0
C      1  0.5122750000000  0.5477540000000  0.4746470000000 1.0
C      1  0.5390860000000  0.5497190000000  0.5098230000000 1.0
C      1  0.5049740000000  0.5477920000000  0.5378830000000 1.0
C      1  0.4694040000000  0.5483100000000  0.5115710000000 1.0
C      1  0.4686980000000  0.5564880000000  0.4668640000000 1.0
C      1  0.5496440000000  0.5579650000000  0.4374940000000 1.0
C      1  0.5781290000000  0.5516950000000  0.5300600000000 1.0
C      1  0.4959120000000  0.5519110000000  0.5804220000000 1.0
C      1  0.4259360000000  0.5570390000000  0.5181730000000 1.0
C      1  0.4511220000000  0.5550680000000  0.4267790000000 1.0
C      1  0.4633420000000  0.5267650000000  0.4673340000000 1.0
C      1  0.5147560000000  0.5213020000000  0.4594490000000 1.0
C      1  0.5437810000000  0.5201020000000  0.5021470000000 1.0
C      1  0.5120320000000  0.5180700000000  0.5431310000000 1.0
C      1  0.4624860000000  0.5183160000000  0.5269640000000 1.0
C      1  0.4593610000000  0.4672130000000  0.5535830000000 1.0
C      1  0.4285520000000  0.4618880000000  0.4835270000000 1.0
C      1  0.4933200000000  0.4627110000000  0.4280200000000 1.0
C      1  0.5672560000000  0.4643510000000  0.4746590000000 1.0
C      1  0.5367330000000  0.4683010000000  0.5552650000000 1.0
C      1  0.4882080000000  0.5212140000000  0.4192730000000 1.0
C      1  0.5740530000000  0.5211650000000  0.4617280000000 1.0
C      1  0.5599430000000  0.5132220000000  0.5626570000000 1.0
C      1  0.4584260000000  0.5135530000000  0.5753800000000 1.0
C      1  0.4218870000000  0.5204940000000  0.4848240000000 1.0
C      1  0.5227190000000  0.4571510000000  0.5134620000000 1.0
C      1  0.4942950000000  0.4571350000000  0.5261510000000 1.0
C      1  0.4732410000000  0.4562930000000  0.5030460000000 1.0
C      1  0.4892810000000  0.4563420000000  0.4758700000000 1.0
C      1  0.5200220000000  0.4571990000000  0.4823990000000 1.0
C      1  0.4168490000000  0.4781130000000  0.5481640000000 1.0
C      1  0.4300510000000  0.4736760000000  0.4407790000000 1.0
C      1  0.5332320000000  0.4766400000000  0.4146010000000 1.0
C      1  0.5964670000000  0.4755580000000  0.5060930000000 1.0
C      1  0.5245860000000  0.4770700000000  0.5968470000000 1.0
C      1  0.5217410000000  0.4079700000000  0.5155340000000 1.0
C      1  0.4942620000000  0.4076910000000  0.5267420000000 1.0
C      1  0.4754000000000  0.4067060000000  0.5038660000000 1.0
C      1  0.4911220000000  0.4068120000000  0.4787390000000 1.0
C      1  0.5196800000000  0.4076320000000  0.4859660000000 1.0
C      1  0.5743900000000  0.5198020000000  0.4955640000000 1.0
C      1  0.5262230000000  0.5180800000000  0.5703830000000 1.0
C      1  0.4388710000000  0.5199080000000  0.5454830000000 1.0
C      1  0.4359440000000  0.5212030000000  0.4567830000000 1.0
C      1  0.5180700000000  0.5227810000000  0.4292470000000 1.0
C      1  0.5827180000000  0.5477290000000  0.5022750000000 1.0
C      1  0.5234920000000  0.5463040000000  0.5783540000000 1.0
C      1  0.4328570000000  0.5489330000000  0.5441380000000 1.0
C      1  0.4306290000000  0.5486280000000  0.4453720000000 1.0
C      1  0.5259830000000  0.5510620000000  0.4246540000000 1.0
C      1  0.4900870000000  0.5058280000000  0.4943650000000 1.0
C      1  0.4979480000000  0.5354130000000  0.5012260000000 1.0
END
