TITL C-3577090-796-196 -1.74300082672339e-06 125000 -845.273704561093 0 0 134 (C1) n - 1
REM
REM in /home/bkarasulu/work/CARBON/AIRSS/Generating-Clusters/EDIP-Nigel-Params/with-SteepDescent/Higher-Symm/SD-CG/HFTN-CG
REM
REM
REM
REM
REM
REM ./C.cell (12c818d87b63d06a65506943cc24bca4)
REM
REM compiler GCC version 9.2.1 20190827 (Red Hat 9.2.1-1)
REM options -cpp -mtune=generic -march=x86-64 -g -O0 -fpre-include=/usr/include/finclude/math-vector-fortran.h
REM seed -1224642586 1016878442 -993829483 81298372 1169513147 -243689826 -299226364 -188986625 -1555514079 1319270756 -1131678245 -2106353415 -1376472528 -1814364015 949439206 -1779150812 -1938665046 1300453376 -1185240362 -774370760 -1429961825 -2117030414 498295582 1598463433 1575972668 1647110119 1463488035 -622514644 -931601246 2059895598 -920187948 -1646344549 1372911488
REM
CELL 1.54180   50.00000   50.00000   50.00000   90.00000   90.00000   90.00000
LATT -1
SFAC C  
C      1  0.4379380000000  0.4582370000000  0.4400500000000 1.0
C      1  0.4116650000000  0.4570550000000  0.4833540000000 1.0
C      1  0.4135830000000  0.4566880000000  0.5348400000000 1.0
C      1  0.4444150000000  0.4585660000000  0.5773210000000 1.0
C      1  0.4952210000000  0.4582930000000  0.5907120000000 1.0
C      1  0.5447790000000  0.4574920000000  0.5799410000000 1.0
C      1  0.5783180000000  0.4593800000000  0.5401450000000 1.0
C      1  0.5895600000000  0.4595180000000  0.4899640000000 1.0
C      1  0.5755090000000  0.4587620000000  0.4404320000000 1.0
C      1  0.5326870000000  0.4590000000000  0.4123570000000 1.0
C      1  0.4820230000000  0.4593030000000  0.4132680000000 1.0
C      1  0.4810180000000  0.5276100000000  0.4565670000000 1.0
C      1  0.4551310000000  0.5330010000000  0.4761160000000 1.0
C      1  0.4486130000000  0.5305200000000  0.5063620000000 1.0
C      1  0.4598890000000  0.5205680000000  0.5334840000000 1.0
C      1  0.4827180000000  0.5335440000000  0.5484230000000 1.0
C      1  0.5112110000000  0.5224070000000  0.5489780000000 1.0
C      1  0.5354280000000  0.5342330000000  0.5336970000000 1.0
C      1  0.5466610000000  0.5229930000000  0.5066920000000 1.0
C      1  0.5476470000000  0.5346680000000  0.4780130000000 1.0
C      1  0.5313220000000  0.5235650000000  0.4548910000000 1.0
C      1  0.5073370000000  0.5392010000000  0.4451790000000 1.0
C      1  0.5840820000000  0.4462680000000  0.5150520000000 1.0
C      1  0.5826070000000  0.4464930000000  0.4654920000000 1.0
C      1  0.5534890000000  0.4453580000000  0.4271300000000 1.0
C      1  0.5071780000000  0.4460470000000  0.4121380000000 1.0
C      1  0.4623870000000  0.4467950000000  0.4299020000000 1.0
C      1  0.4298750000000  0.4429840000000  0.4643140000000 1.0
C      1  0.4116890000000  0.4434040000000  0.5093180000000 1.0
C      1  0.4312540000000  0.4448620000000  0.5550350000000 1.0
C      1  0.4696680000000  0.4463450000000  0.5841300000000 1.0
C      1  0.5188810000000  0.4430270000000  0.5797220000000 1.0
C      1  0.5619790000000  0.4460180000000  0.5594810000000 1.0
C      1  0.5781250000000  0.4864530000000  0.4384130000000 1.0
C      1  0.5317250000000  0.4866240000000  0.4138320000000 1.0
C      1  0.4810950000000  0.4862890000000  0.4073070000000 1.0
C      1  0.4407910000000  0.4857880000000  0.4471160000000 1.0
C      1  0.4085380000000  0.4854170000000  0.4808250000000 1.0
C      1  0.4120260000000  0.4852530000000  0.5321370000000 1.0
C      1  0.4418840000000  0.4861280000000  0.5813340000000 1.0
C      1  0.4964970000000  0.4858870000000  0.5969990000000 1.0
C      1  0.5371390000000  0.4849300000000  0.5757620000000 1.0
C      1  0.5850290000000  0.4857950000000  0.5441120000000 1.0
C      1  0.5966970000000  0.4861010000000  0.4891410000000 1.0
C      1  0.5781970000000  0.5245480000000  0.5139060000000 1.0
C      1  0.5767200000000  0.5282630000000  0.4679490000000 1.0
C      1  0.5500200000000  0.5267690000000  0.4307250000000 1.0
C      1  0.5068350000000  0.5292980000000  0.4150860000000 1.0
C      1  0.4630260000000  0.5259570000000  0.4298710000000 1.0
C      1  0.4283870000000  0.5279440000000  0.4614040000000 1.0
C      1  0.4176780000000  0.5277660000000  0.5075670000000 1.0
C      1  0.4347730000000  0.5252190000000  0.5514140000000 1.0
C      1  0.4725410000000  0.5279980000000  0.5780470000000 1.0
C      1  0.5186590000000  0.5268990000000  0.5794610000000 1.0
C      1  0.5577830000000  0.5276120000000  0.5552970000000 1.0
C      1  0.5320220000000  0.3975960000000  0.5290990000000 1.0
C      1  0.5439510000000  0.4081800000000  0.5067310000000 1.0
C      1  0.5373650000000  0.3977810000000  0.4822160000000 1.0
C      1  0.5253180000000  0.4094950000000  0.4605200000000 1.0
C      1  0.5012530000000  0.3994380000000  0.4519490000000 1.0
C      1  0.4763550000000  0.3968870000000  0.4607820000000 1.0
C      1  0.4600980000000  0.4074550000000  0.4801760000000 1.0
C      1  0.4600570000000  0.3961670000000  0.5052100000000 1.0
C      1  0.4648160000000  0.4052250000000  0.5307110000000 1.0
C      1  0.4874600000000  0.3960080000000  0.5432990000000 1.0
C      1  0.5126360000000  0.4066800000000  0.5463010000000 1.0
C      1  0.5379990000000  0.4805530000000  0.4783550000000 1.0
C      1  0.5187420000000  0.4865150000000  0.4558040000000 1.0
C      1  0.4939540000000  0.5014240000000  0.4687240000000 1.0
C      1  0.4711890000000  0.4826560000000  0.4710460000000 1.0
C      1  0.4490720000000  0.4964080000000  0.4886800000000 1.0
C      1  0.4451930000000  0.4786330000000  0.5133060000000 1.0
C      1  0.4645570000000  0.4915390000000  0.5305060000000 1.0
C      1  0.4858200000000  0.4777450000000  0.5436890000000 1.0
C      1  0.5119870000000  0.4913260000000  0.5477710000000 1.0
C      1  0.5292880000000  0.4802620000000  0.5271240000000 1.0
C      1  0.5302990000000  0.4965160000000  0.5023170000000 1.0
C      1  0.5286830000000  0.5716440000000  0.4196180000000 1.0
C      1  0.4816430000000  0.5708820000000  0.4178660000000 1.0
C      1  0.4426260000000  0.5692470000000  0.4421110000000 1.0
C      1  0.4203730000000  0.5702980000000  0.4825140000000 1.0
C      1  0.4260350000000  0.5692680000000  0.5283740000000 1.0
C      1  0.4527380000000  0.5703950000000  0.5653060000000 1.0
C      1  0.4959840000000  0.5708890000000  0.5810050000000 1.0
C      1  0.5411670000000  0.5706230000000  0.5702580000000 1.0
C      1  0.5726960000000  0.5694080000000  0.5366430000000 1.0
C      1  0.5821110000000  0.5697540000000  0.4916510000000 1.0
C      1  0.5660970000000  0.5711460000000  0.4480450000000 1.0
C      1  0.5753310000000  0.5139420000000  0.4407230000000 1.0
C      1  0.5328950000000  0.5139020000000  0.4099730000000 1.0
C      1  0.4812260000000  0.5136850000000  0.4099690000000 1.0
C      1  0.4371410000000  0.5119910000000  0.4372350000000 1.0
C      1  0.4098050000000  0.5137390000000  0.4814160000000 1.0
C      1  0.4121940000000  0.5137000000000  0.5343670000000 1.0
C      1  0.4447930000000  0.5135270000000  0.5775190000000 1.0
C      1  0.4953070000000  0.5136730000000  0.5934290000000 1.0
C      1  0.5453270000000  0.5124450000000  0.5796090000000 1.0
C      1  0.5804880000000  0.5127260000000  0.5412320000000 1.0
C      1  0.5917210000000  0.5130890000000  0.4899510000000 1.0
C      1  0.5061910000000  0.5576560000000  0.4050240000000 1.0
C      1  0.4563890000000  0.5542380000000  0.4200670000000 1.0
C      1  0.4191360000000  0.5559430000000  0.4556280000000 1.0
C      1  0.4087990000000  0.5565040000000  0.5072680000000 1.0
C      1  0.4289240000000  0.5551690000000  0.5549090000000 1.0
C      1  0.4695370000000  0.5569350000000  0.5870290000000 1.0
C      1  0.5213680000000  0.5562080000000  0.5879350000000 1.0
C      1  0.5665670000000  0.5556110000000  0.5630480000000 1.0
C      1  0.5884690000000  0.5536390000000  0.5163240000000 1.0
C      1  0.5870980000000  0.5565120000000  0.4647220000000 1.0
C      1  0.5545480000000  0.5565030000000  0.4241220000000 1.0
C      1  0.4635970000000  0.5739110000000  0.4623130000000 1.0
C      1  0.4491990000000  0.5752540000000  0.4879660000000 1.0
C      1  0.4529710000000  0.5731490000000  0.5171490000000 1.0
C      1  0.4699570000000  0.5754800000000  0.5414600000000 1.0
C      1  0.4976560000000  0.5752040000000  0.5516770000000 1.0
C      1  0.5266240000000  0.5762320000000  0.5448420000000 1.0
C      1  0.5469100000000  0.5757330000000  0.5231240000000 1.0
C      1  0.5530900000000  0.5757370000000  0.4938460000000 1.0
C      1  0.5430400000000  0.5772430000000  0.4660170000000 1.0
C      1  0.5183190000000  0.5765730000000  0.4476320000000 1.0
C      1  0.4879230000000  0.5787590000000  0.4460680000000 1.0
C      1  0.5479170000000  0.4374220000000  0.5073370000000 1.0
C      1  0.5471580000000  0.4518380000000  0.4793900000000 1.0
C      1  0.5311300000000  0.4382980000000  0.4569200000000 1.0
C      1  0.5076820000000  0.4570070000000  0.4490570000000 1.0
C      1  0.4785800000000  0.4534120000000  0.4642200000000 1.0
C      1  0.4554610000000  0.4366970000000  0.4795650000000 1.0
C      1  0.4499330000000  0.4481260000000  0.5086250000000 1.0
C      1  0.4606460000000  0.4342600000000  0.5340990000000 1.0
C      1  0.4844610000000  0.4485740000000  0.5485780000000 1.0
C      1  0.5130580000000  0.4360740000000  0.5505850000000 1.0
C      1  0.5354170000000  0.4512270000000  0.5320590000000 1.0
C      1  0.5031220000000  0.5073640000000  0.4961470000000 1.0
C      1  0.4964100000000  0.5308610000000  0.5063950000000 1.0
END
