TITL C-3578196-9646-716 -3.02498929563278e-06 125000 -895.859586495266 0 0 146 (C1) n - 1
REM
REM in /home/bkarasulu/work/CARBON/AIRSS/Generating-Clusters/EDIP-Nigel-Params/with-SteepDescent/Higher-Symm/SD-CG/HFTN-CG
REM
REM
REM
REM
REM
REM ./C.cell (12c818d87b63d06a65506943cc24bca4)
REM
REM compiler GCC version 9.2.1 20190827 (Red Hat 9.2.1-1)
REM options -cpp -mtune=generic -march=x86-64 -g -O0 -fpre-include=/usr/include/finclude/math-vector-fortran.h
REM seed 389659261 741406427 -1703206457 1372777943 1256803953 101460634 1574582261 -1618061304 1200776862 -199789198 1293576388 425624614 -1592134699 1228029451 -1367997591 272229254 -2096007457 1578402872 1365781205 1555229939 -1799156017 599775614 -176580454 -1481464766 -123650367 1147646404 -2123555659 -1893054961 -701717442 -813906383 -1678120005 1441840308 10229930
REM
CELL 1.54180   50.00000   50.00000   50.00000   90.00000   90.00000   90.00000
LATT -1
SFAC C  
C      1  0.4471690000000  0.4285220000000  0.5314280000000 1.0
C      1  0.5508330000000  0.4316950000000  0.5309090000000 1.0
C      1  0.4985780000000  0.4341750000000  0.4403640000000 1.0
C      1  0.4684480000000  0.4561810000000  0.5750110000000 1.0
C      1  0.5832840000000  0.4545870000000  0.4869470000000 1.0
C      1  0.4438410000000  0.4505230000000  0.4303710000000 1.0
C      1  0.4602470000000  0.4084740000000  0.4868620000000 1.0
C      1  0.5077770000000  0.4081730000000  0.5383410000000 1.0
C      1  0.5322130000000  0.4052590000000  0.4686280000000 1.0
C      1  0.5620780000000  0.4899450000000  0.4146190000000 1.0
C      1  0.4014840000000  0.4804870000000  0.4892130000000 1.0
C      1  0.5388360000000  0.4857610000000  0.5948760000000 1.0
C      1  0.5401790000000  0.5366450000000  0.4176840000000 1.0
C      1  0.4195910000000  0.5445550000000  0.5055750000000 1.0
C      1  0.5459980000000  0.5379850000000  0.5802000000000 1.0
C      1  0.4222950000000  0.5379690000000  0.4614580000000 1.0
C      1  0.5121410000000  0.5425780000000  0.6157280000000 1.0
C      1  0.5640350000000  0.5372920000000  0.4569710000000 1.0
C      1  0.4117750000000  0.4823720000000  0.5173450000000 1.0
C      1  0.5576370000000  0.4766840000000  0.5741380000000 1.0
C      1  0.5346530000000  0.4795080000000  0.4079280000000 1.0
C      1  0.5614020000000  0.5178040000000  0.4253530000000 1.0
C      1  0.4115820000000  0.5016890000000  0.4695800000000 1.0
C      1  0.5239580000000  0.5130980000000  0.5861050000000 1.0
C      1  0.4733330000000  0.6001030000000  0.4504520000000 1.0
C      1  0.4716330000000  0.6009310000000  0.5284260000000 1.0
C      1  0.5446140000000  0.5938440000000  0.4967400000000 1.0
C      1  0.4329170000000  0.4886830000000  0.5712290000000 1.0
C      1  0.5902050000000  0.4841600000000  0.5269690000000 1.0
C      1  0.4728800000000  0.4814410000000  0.4041610000000 1.0
C      1  0.4888250000000  0.5359450000000  0.5997330000000 1.0
C      1  0.5902800000000  0.5373120000000  0.4721150000000 1.0
C      1  0.4216480000000  0.5356970000000  0.4320390000000 1.0
C      1  0.4549210000000  0.5818800000000  0.4663470000000 1.0
C      1  0.4914700000000  0.5924530000000  0.5474010000000 1.0
C      1  0.5346500000000  0.5819180000000  0.4720600000000 1.0
C      1  0.5046030000000  0.4027870000000  0.5092080000000 1.0
C      1  0.5103660000000  0.3922820000000  0.4819360000000 1.0
C      1  0.4780470000000  0.3931650000000  0.5030650000000 1.0
C      1  0.4568040000000  0.4601360000000  0.5324420000000 1.0
C      1  0.5520270000000  0.4622870000000  0.5280140000000 1.0
C      1  0.5009040000000  0.4638530000000  0.4408360000000 1.0
C      1  0.4755240000000  0.5099180000000  0.6020280000000 1.0
C      1  0.5973830000000  0.5100290000000  0.4811670000000 1.0
C      1  0.4249660000000  0.5077960000000  0.4217800000000 1.0
C      1  0.4993570000000  0.4845520000000  0.3921070000000 1.0
C      1  0.4092910000000  0.4926890000000  0.5547640000000 1.0
C      1  0.5909350000000  0.4843210000000  0.5559480000000 1.0
C      1  0.4914370000000  0.5579100000000  0.4400420000000 1.0
C      1  0.4642060000000  0.5556010000000  0.5347570000000 1.0
C      1  0.5531820000000  0.5642800000000  0.5363130000000 1.0
C      1  0.4839830000000  0.4306100000000  0.5755570000000 1.0
C      1  0.5700530000000  0.4310110000000  0.4740300000000 1.0
C      1  0.4438950000000  0.4308170000000  0.4522600000000 1.0
C      1  0.4895400000000  0.5368690000000  0.4154460000000 1.0
C      1  0.4435370000000  0.5380430000000  0.5487410000000 1.0
C      1  0.5718960000000  0.5357330000000  0.5388780000000 1.0
C      1  0.4415050000000  0.4787680000000  0.5119260000000 1.0
C      1  0.5384150000000  0.4757870000000  0.5509340000000 1.0
C      1  0.5260430000000  0.4782450000000  0.4374560000000 1.0
C      1  0.4394280000000  0.4597300000000  0.5724750000000 1.0
C      1  0.5928560000000  0.4563480000000  0.5157580000000 1.0
C      1  0.4676610000000  0.4532550000000  0.4134740000000 1.0
C      1  0.4287000000000  0.4418490000000  0.5516100000000 1.0
C      1  0.5800250000000  0.4355010000000  0.5325790000000 1.0
C      1  0.4864400000000  0.4313090000000  0.4140770000000 1.0
C      1  0.4722990000000  0.4284760000000  0.4642430000000 1.0
C      1  0.4814870000000  0.4193660000000  0.5475970000000 1.0
C      1  0.5443220000000  0.4240630000000  0.4878830000000 1.0
C      1  0.4854430000000  0.5633140000000  0.5551710000000 1.0
C      1  0.5542050000000  0.5571530000000  0.5020100000000 1.0
C      1  0.4637740000000  0.5552930000000  0.4528490000000 1.0
C      1  0.4405040000000  0.4742500000000  0.4475670000000 1.0
C      1  0.4873310000000  0.4783720000000  0.5687090000000 1.0
C      1  0.5683220000000  0.4775330000000  0.4750070000000 1.0
C      1  0.4850140000000  0.5016050000000  0.5489140000000 1.0
C      1  0.5616050000000  0.5046540000000  0.4951750000000 1.0
C      1  0.4657090000000  0.4943710000000  0.4488220000000 1.0
C      1  0.5552480000000  0.4413970000000  0.4476060000000 1.0
C      1  0.4302780000000  0.4416790000000  0.4798060000000 1.0
C      1  0.5135330000000  0.4407560000000  0.5775570000000 1.0
C      1  0.5413670000000  0.5911960000000  0.5259550000000 1.0
C      1  0.4955550000000  0.5873800000000  0.4387360000000 1.0
C      1  0.4551900000000  0.5793400000000  0.5194800000000 1.0
C      1  0.5751240000000  0.4701250000000  0.4316440000000 1.0
C      1  0.4035760000000  0.4535700000000  0.4801490000000 1.0
C      1  0.5180030000000  0.4638310000000  0.6001480000000 1.0
C      1  0.4521000000000  0.5087260000000  0.5138150000000 1.0
C      1  0.5329450000000  0.5034330000000  0.5387620000000 1.0
C      1  0.5152790000000  0.5132970000000  0.4460770000000 1.0
C      1  0.6019480000000  0.5077220000000  0.5113010000000 1.0
C      1  0.4526590000000  0.5049940000000  0.4079230000000 1.0
C      1  0.4498870000000  0.5107560000000  0.5862020000000 1.0
C      1  0.4488480000000  0.5386830000000  0.5030080000000 1.0
C      1  0.5344800000000  0.5567760000000  0.5590320000000 1.0
C      1  0.5161190000000  0.5448860000000  0.4536370000000 1.0
C      1  0.4468810000000  0.5396590000000  0.5782460000000 1.0
C      1  0.5958420000000  0.5359120000000  0.5208130000000 1.0
C      1  0.4614320000000  0.5338280000000  0.4053480000000 1.0
C      1  0.4121330000000  0.5695360000000  0.4944090000000 1.0
C      1  0.5476920000000  0.5528020000000  0.6055660000000 1.0
C      1  0.5405000000000  0.5625530000000  0.4296270000000 1.0
C      1  0.4157890000000  0.4889850000000  0.4429760000000 1.0
C      1  0.4958750000000  0.4880470000000  0.5954380000000 1.0
C      1  0.5867230000000  0.4851300000000  0.4536090000000 1.0
C      1  0.4244000000000  0.5683780000000  0.4690080000000 1.0
C      1  0.5257890000000  0.5666930000000  0.6151350000000 1.0
C      1  0.5537260000000  0.5671300000000  0.4543480000000 1.0
C      1  0.5848550000000  0.5518200000000  0.4973280000000 1.0
C      1  0.4463230000000  0.5497450000000  0.4260590000000 1.0
C      1  0.4727770000000  0.5547290000000  0.5832840000000 1.0
C      1  0.4762250000000  0.4551550000000  0.4803990000000 1.0
C      1  0.4871940000000  0.4468300000000  0.5304620000000 1.0
C      1  0.5251530000000  0.4493470000000  0.4886610000000 1.0
C      1  0.4494450000000  0.5113140000000  0.4693210000000 1.0
C      1  0.5115360000000  0.5177110000000  0.5563480000000 1.0
C      1  0.5464860000000  0.5227090000000  0.4765870000000 1.0
C      1  0.4382770000000  0.4216430000000  0.5023140000000 1.0
C      1  0.5313460000000  0.4213430000000  0.5497010000000 1.0
C      1  0.5285540000000  0.4225890000000  0.4441910000000 1.0
C      1  0.5195800000000  0.4944120000000  0.5138430000000 1.0
C      1  0.5087170000000  0.4996120000000  0.4715850000000 1.0
C      1  0.4775770000000  0.5030410000000  0.5026700000000 1.0
C      1  0.5163430000000  0.5316110000000  0.4004690000000 1.0
C      1  0.4157270000000  0.5384190000000  0.5344480000000 1.0
C      1  0.5731840000000  0.5297480000000  0.5685060000000 1.0
C      1  0.4922350000000  0.4896840000000  0.5227570000000 1.0
C      1  0.5362380000000  0.4711100000000  0.5048850000000 1.0
C      1  0.4879820000000  0.4779310000000  0.4628900000000 1.0
C      1  0.5242770000000  0.5413170000000  0.4854730000000 1.0
C      1  0.4637180000000  0.5357210000000  0.4759130000000 1.0
C      1  0.5096920000000  0.5465990000000  0.5493520000000 1.0
C      1  0.4665580000000  0.5841020000000  0.4936920000000 1.0
C      1  0.5173010000000  0.5984620000000  0.5384960000000 1.0
C      1  0.5127870000000  0.5958770000000  0.4590980000000 1.0
C      1  0.5172720000000  0.5060910000000  0.3869470000000 1.0
C      1  0.4015440000000  0.5135430000000  0.5373200000000 1.0
C      1  0.5840630000000  0.5042140000000  0.5750870000000 1.0
C      1  0.5101680000000  0.4616490000000  0.5553570000000 1.0
C      1  0.5422780000000  0.4652770000000  0.4612640000000 1.0
C      1  0.4473750000000  0.4656560000000  0.4843560000000 1.0
C      1  0.4892860000000  0.5118160000000  0.4317110000000 1.0
C      1  0.4566160000000  0.5122680000000  0.5424560000000 1.0
C      1  0.5574300000000  0.5138800000000  0.5256920000000 1.0
C      1  0.5008340000000  0.5198890000000  0.4913090000000 1.0
C      1  0.4962670000000  0.4456220000000  0.5007100000000 1.0
END
