TITL C-3578202-4305-461 -4.37288244754266e-07 125000 -592.865577809988 0 0 99 (C1) n - 1
REM
REM in /home/bkarasulu/work/CARBON/AIRSS/Generating-Clusters/EDIP-Nigel-Params/with-SteepDescent/Higher-Symm/SD-CG/HFTN-CG
REM
REM
REM
REM
REM
REM ./C.cell (12c818d87b63d06a65506943cc24bca4)
REM
REM compiler GCC version 9.2.1 20190827 (Red Hat 9.2.1-1)
REM options -cpp -mtune=generic -march=x86-64 -g -O0 -fpre-include=/usr/include/finclude/math-vector-fortran.h
REM seed -1105100377 -1887821752 -626840476 27607787 1112100860 -1307544641 -559766525 -2035779211 -1286868052 -2030107691 -606950006 -761228756 771019841 -880248672 590494338 1330021458 -1430559452 806138322 -558407821 701472345 -1005365060 2096455357 34253376 -1915353219 -1712532107 -455910660 -845169465 -571108074 -717428195 -372897216 181775697 1381552299 1652121539
REM
CELL 1.54180   50.00000   50.00000   50.00000   90.00000   90.00000   90.00000
LATT -1
SFAC C  
C      1  0.4426360000000  0.5081570000000  0.5569590000000 1.0
C      1  0.5156120000000  0.4566420000000  0.5592270000000 1.0
C      1  0.5457230000000  0.4997760000000  0.5621490000000 1.0
C      1  0.5039060000000  0.5512690000000  0.5633900000000 1.0
C      1  0.4475660000000  0.4937120000000  0.4342900000000 1.0
C      1  0.4972050000000  0.4448170000000  0.4384810000000 1.0
C      1  0.5449680000000  0.5163630000000  0.4413800000000 1.0
C      1  0.5093960000000  0.5573450000000  0.4348190000000 1.0
C      1  0.5125720000000  0.4752400000000  0.5364460000000 1.0
C      1  0.5250720000000  0.5028300000000  0.5399440000000 1.0
C      1  0.5006920000000  0.5247600000000  0.5473040000000 1.0
C      1  0.4676600000000  0.4963740000000  0.5439310000000 1.0
C      1  0.5101210000000  0.4689860000000  0.4529220000000 1.0
C      1  0.5198600000000  0.5119560000000  0.4568210000000 1.0
C      1  0.4974180000000  0.5331590000000  0.4475320000000 1.0
C      1  0.4699200000000  0.4873710000000  0.4521450000000 1.0
C      1  0.4714100000000  0.4362130000000  0.5242680000000 1.0
C      1  0.5669610000000  0.4696580000000  0.5191310000000 1.0
C      1  0.5329620000000  0.5595630000000  0.5227370000000 1.0
C      1  0.4395410000000  0.5273460000000  0.5173550000000 1.0
C      1  0.4716730000000  0.4339100000000  0.4732460000000 1.0
C      1  0.5676900000000  0.4578300000000  0.4682770000000 1.0
C      1  0.5262630000000  0.5719380000000  0.4733260000000 1.0
C      1  0.4393010000000  0.5260610000000  0.4732240000000 1.0
C      1  0.5884440000000  0.5207760000000  0.5410300000000 1.0
C      1  0.4732460000000  0.5860680000000  0.5360460000000 1.0
C      1  0.4086430000000  0.4734210000000  0.5349740000000 1.0
C      1  0.5324380000000  0.4110830000000  0.5369130000000 1.0
C      1  0.5844900000000  0.5254310000000  0.4691140000000 1.0
C      1  0.4722800000000  0.5875380000000  0.4580940000000 1.0
C      1  0.4103790000000  0.4678750000000  0.4625450000000 1.0
C      1  0.5286690000000  0.4052840000000  0.4586630000000 1.0
C      1  0.4735300000000  0.4800830000000  0.5709460000000 1.0
C      1  0.5137910000000  0.4857900000000  0.6002760000000 1.0
C      1  0.5225400000000  0.5293240000000  0.6034900000000 1.0
C      1  0.4822780000000  0.5167500000000  0.5804050000000 1.0
C      1  0.4871740000000  0.4830420000000  0.4182390000000 1.0
C      1  0.5249510000000  0.4760250000000  0.4248890000000 1.0
C      1  0.5178240000000  0.5208870000000  0.4012250000000 1.0
C      1  0.4763770000000  0.5257580000000  0.4236000000000 1.0
C      1  0.5052200000000  0.5632230000000  0.5166130000000 1.0
C      1  0.4347880000000  0.5001690000000  0.5110860000000 1.0
C      1  0.4972420000000  0.4335600000000  0.5134330000000 1.0
C      1  0.5637130000000  0.4927340000000  0.5034570000000 1.0
C      1  0.5007340000000  0.5688800000000  0.4860580000000 1.0
C      1  0.4346630000000  0.4994020000000  0.4822820000000 1.0
C      1  0.4975530000000  0.4325780000000  0.4843890000000 1.0
C      1  0.5604690000000  0.4844840000000  0.4750530000000 1.0
C      1  0.4515130000000  0.4553110000000  0.5265030000000 1.0
C      1  0.5495110000000  0.4480220000000  0.5194300000000 1.0
C      1  0.5526390000000  0.5399610000000  0.5223480000000 1.0
C      1  0.4597500000000  0.5451200000000  0.5248700000000 1.0
C      1  0.4500640000000  0.4513720000000  0.4743370000000 1.0
C      1  0.5469710000000  0.4420610000000  0.4754690000000 1.0
C      1  0.5396310000000  0.5482770000000  0.4807270000000 1.0
C      1  0.4562320000000  0.5483440000000  0.4721520000000 1.0
C      1  0.4957660000000  0.4551180000000  0.4110770000000 1.0
C      1  0.5369690000000  0.5028980000000  0.4165430000000 1.0
C      1  0.5180410000000  0.5486220000000  0.4093340000000 1.0
C      1  0.4486080000000  0.5200280000000  0.4248510000000 1.0
C      1  0.4988810000000  0.4667220000000  0.5814060000000 1.0
C      1  0.5391660000000  0.4975980000000  0.5900840000000 1.0
C      1  0.5194570000000  0.5506080000000  0.5863230000000 1.0
C      1  0.4535280000000  0.5105220000000  0.5834790000000 1.0
C      1  0.4223890000000  0.4842300000000  0.4430060000000 1.0
C      1  0.5087360000000  0.4192470000000  0.4438020000000 1.0
C      1  0.5691070000000  0.5043780000000  0.4548590000000 1.0
C      1  0.4925420000000  0.5795860000000  0.4397510000000 1.0
C      1  0.4189750000000  0.4936220000000  0.5516650000000 1.0
C      1  0.5161750000000  0.4285790000000  0.5527760000000 1.0
C      1  0.5725530000000  0.5031270000000  0.5554770000000 1.0
C      1  0.4966100000000  0.5773660000000  0.5514390000000 1.0
C      1  0.5520170000000  0.4216120000000  0.4581610000000 1.0
C      1  0.5666550000000  0.5463840000000  0.4733590000000 1.0
C      1  0.4489120000000  0.5720020000000  0.4596280000000 1.0
C      1  0.4239580000000  0.4440710000000  0.4676920000000 1.0
C      1  0.5567750000000  0.4242270000000  0.5328290000000 1.0
C      1  0.5756400000000  0.5450150000000  0.5374490000000 1.0
C      1  0.4519970000000  0.5682780000000  0.5381420000000 1.0
C      1  0.4248650000000  0.4506590000000  0.5332180000000 1.0
C      1  0.4771260000000  0.5967820000000  0.5101780000000 1.0
C      1  0.3955250000000  0.4805030000000  0.5112120000000 1.0
C      1  0.5237210000000  0.3983690000000  0.5129060000000 1.0
C      1  0.6008490000000  0.5117270000000  0.5177210000000 1.0
C      1  0.4807070000000  0.6012920000000  0.4827220000000 1.0
C      1  0.3960080000000  0.4786690000000  0.4841360000000 1.0
C      1  0.5232080000000  0.3967230000000  0.4854080000000 1.0
C      1  0.5992370000000  0.5157840000000  0.4910120000000 1.0
C      1  0.4589050000000  0.4826770000000  0.5175900000000 1.0
C      1  0.5203500000000  0.4561400000000  0.5145210000000 1.0
C      1  0.5419890000000  0.5126010000000  0.5135550000000 1.0
C      1  0.4889720000000  0.5377200000000  0.5213990000000 1.0
C      1  0.4581910000000  0.4798280000000  0.4789610000000 1.0
C      1  0.5193730000000  0.4540300000000  0.4784340000000 1.0
C      1  0.5238240000000  0.5214980000000  0.4866540000000 1.0
C      1  0.4854750000000  0.5437600000000  0.4743270000000 1.0
C      1  0.4902830000000  0.5092210000000  0.4035890000000 1.0
C      1  0.4995320000000  0.5115940000000  0.6039520000000 1.0
C      1  0.4943860000000  0.5244450000000  0.4954610000000 1.0
END
