TITL C-3578209-2550-709 -3.08759672458944e-06 125000 -1122.30571830677 0 0 182 (C1) n - 1
REM
REM in /home/bkarasulu/work/CARBON/AIRSS/Generating-Clusters/EDIP-Nigel-Params/with-SteepDescent/Higher-Symm/SD-CG/HFTN-CG
REM
REM
REM
REM
REM
REM ./C.cell (12c818d87b63d06a65506943cc24bca4)
REM
REM compiler GCC version 9.2.1 20190827 (Red Hat 9.2.1-1)
REM options -cpp -mtune=generic -march=x86-64 -g -O0 -fpre-include=/usr/include/finclude/math-vector-fortran.h
REM seed 936554029 764360417 -1402253298 1659952245 -80360111 550995106 -1085089214 219773976 749822953 1398791690 1005684743 1989535100 153126146 -680817484 -394788763 907292000 1758601496 -1742420440 -12840620 -1866521987 1472477495 180754990 736021240 -746000024 -733694763 -984234498 -731211197 169193237 757389004 -664155674 -2068143160 887689083 -1224849700
REM
CELL 1.54180   50.00000   50.00000   50.00000   90.00000   90.00000   90.00000
LATT -1
SFAC C  
C      1  0.4854070000000  0.4852510000000  0.3870530000000 1.0
C      1  0.5112720000000  0.5926760000000  0.4272080000000 1.0
C      1  0.4919440000000  0.6026070000000  0.5382300000000 1.0
C      1  0.5096220000000  0.5143450000000  0.6144710000000 1.0
C      1  0.4869720000000  0.4099690000000  0.5647780000000 1.0
C      1  0.5164080000000  0.3995480000000  0.4555570000000 1.0
C      1  0.5823430000000  0.4676370000000  0.5896400000000 1.0
C      1  0.4073500000000  0.4224540000000  0.5132510000000 1.0
C      1  0.5838510000000  0.4456510000000  0.4329880000000 1.0
C      1  0.4185480000000  0.5334030000000  0.4135440000000 1.0
C      1  0.5983900000000  0.5676460000000  0.4850100000000 1.0
C      1  0.4186370000000  0.5591670000000  0.5727410000000 1.0
C      1  0.4884120000000  0.6162130000000  0.4606370000000 1.0
C      1  0.5035510000000  0.5834120000000  0.5823150000000 1.0
C      1  0.4945500000000  0.4693190000000  0.6096410000000 1.0
C      1  0.5060260000000  0.3913640000000  0.5295840000000 1.0
C      1  0.4989850000000  0.4247540000000  0.4236050000000 1.0
C      1  0.4978180000000  0.5291440000000  0.3952220000000 1.0
C      1  0.4656400000000  0.4534470000000  0.5495860000000 1.0
C      1  0.5351980000000  0.4365950000000  0.4875630000000 1.0
C      1  0.4623670000000  0.4807870000000  0.4377750000000 1.0
C      1  0.5349050000000  0.5463300000000  0.4496730000000 1.0
C      1  0.4683400000000  0.5485830000000  0.5252360000000 1.0
C      1  0.5339620000000  0.5211980000000  0.5700430000000 1.0
C      1  0.5360670000000  0.5801890000000  0.4169490000000 1.0
C      1  0.4643510000000  0.6090940000000  0.5274660000000 1.0
C      1  0.5312160000000  0.5343860000000  0.6164780000000 1.0
C      1  0.4631360000000  0.4179200000000  0.5805000000000 1.0
C      1  0.5380790000000  0.3902210000000  0.4728370000000 1.0
C      1  0.4647430000000  0.4656050000000  0.3901750000000 1.0
C      1  0.4698150000000  0.6008860000000  0.4993290000000 1.0
C      1  0.5259800000000  0.5460780000000  0.5881560000000 1.0
C      1  0.4702280000000  0.4479350000000  0.5794890000000 1.0
C      1  0.5300730000000  0.4079190000000  0.4967910000000 1.0
C      1  0.4701240000000  0.4577320000000  0.4185300000000 1.0
C      1  0.5260630000000  0.5517700000000  0.4204580000000 1.0
C      1  0.4397260000000  0.4144550000000  0.5643510000000 1.0
C      1  0.5618830000000  0.4024320000000  0.4629630000000 1.0
C      1  0.4405260000000  0.4797010000000  0.3912640000000 1.0
C      1  0.5593030000000  0.5854800000000  0.4327660000000 1.0
C      1  0.4453410000000  0.5924930000000  0.5415310000000 1.0
C      1  0.5559360000000  0.5206510000000  0.6152050000000 1.0
C      1  0.5298430000000  0.4370400000000  0.6058070000000 1.0
C      1  0.4725380000000  0.3784550000000  0.4997820000000 1.0
C      1  0.5333860000000  0.4416350000000  0.3962920000000 1.0
C      1  0.4607930000000  0.5590300000000  0.3991440000000 1.0
C      1  0.5178970000000  0.6108290000000  0.4981950000000 1.0
C      1  0.4642390000000  0.5594600000000  0.6002910000000 1.0
C      1  0.5067970000000  0.4319180000000  0.3972200000000 1.0
C      1  0.4897470000000  0.5570390000000  0.3957850000000 1.0
C      1  0.4909910000000  0.6200530000000  0.4887850000000 1.0
C      1  0.4919920000000  0.5668910000000  0.6027520000000 1.0
C      1  0.5017800000000  0.4416840000000  0.6096130000000 1.0
C      1  0.5002280000000  0.3770170000000  0.5055480000000 1.0
C      1  0.4032080000000  0.5113540000000  0.4550510000000 1.0
C      1  0.5857720000000  0.5271800000000  0.5107760000000 1.0
C      1  0.4159940000000  0.5333290000000  0.5364810000000 1.0
C      1  0.5937510000000  0.4791580000000  0.5402670000000 1.0
C      1  0.4059410000000  0.4638410000000  0.4903770000000 1.0
C      1  0.5993530000000  0.4856090000000  0.4571650000000 1.0
C      1  0.4507300000000  0.4208580000000  0.4898080000000 1.0
C      1  0.5486410000000  0.4724850000000  0.4278060000000 1.0
C      1  0.4521750000000  0.5416570000000  0.4436240000000 1.0
C      1  0.5502210000000  0.5745070000000  0.5036880000000 1.0
C      1  0.4532660000000  0.5277430000000  0.5652240000000 1.0
C      1  0.5464300000000  0.4563310000000  0.5659950000000 1.0
C      1  0.4834410000000  0.4116430000000  0.5331030000000 1.0
C      1  0.5215430000000  0.4287830000000  0.4435530000000 1.0
C      1  0.4755280000000  0.5114450000000  0.3963790000000 1.0
C      1  0.5129100000000  0.6009680000000  0.4552480000000 1.0
C      1  0.4891460000000  0.5816440000000  0.5573880000000 1.0
C      1  0.5176670000000  0.4867830000000  0.6016050000000 1.0
C      1  0.5464550000000  0.5178950000000  0.4476240000000 1.0
C      1  0.4683660000000  0.5613720000000  0.4957490000000 1.0
C      1  0.5442380000000  0.5301870000000  0.5406960000000 1.0
C      1  0.4588070000000  0.4831900000000  0.5497180000000 1.0
C      1  0.5441170000000  0.4541190000000  0.5125600000000 1.0
C      1  0.4504950000000  0.4644370000000  0.4610910000000 1.0
C      1  0.4128540000000  0.4751200000000  0.5550470000000 1.0
C      1  0.5876630000000  0.4429680000000  0.5056950000000 1.0
C      1  0.4097000000000  0.4594380000000  0.4403930000000 1.0
C      1  0.5857060000000  0.5333810000000  0.4253290000000 1.0
C      1  0.4190150000000  0.5681290000000  0.5021710000000 1.0
C      1  0.5882220000000  0.5329090000000  0.5540100000000 1.0
C      1  0.4726610000000  0.4150420000000  0.4294800000000 1.0
C      1  0.5231930000000  0.5213960000000  0.3847960000000 1.0
C      1  0.4612890000000  0.6087470000000  0.4554750000000 1.0
C      1  0.5322130000000  0.5850290000000  0.5799270000000 1.0
C      1  0.4673870000000  0.4780090000000  0.6115040000000 1.0
C      1  0.5328240000000  0.3955580000000  0.5388000000000 1.0
C      1  0.5469880000000  0.4415080000000  0.4230400000000 1.0
C      1  0.4497510000000  0.5352200000000  0.4129040000000 1.0
C      1  0.5337450000000  0.5978600000000  0.4773960000000 1.0
C      1  0.4495810000000  0.5560340000000  0.5740750000000 1.0
C      1  0.5456140000000  0.4608180000000  0.5969090000000 1.0
C      1  0.4600730000000  0.4010320000000  0.5130550000000 1.0
C      1  0.5881890000000  0.5316540000000  0.4533190000000 1.0
C      1  0.4081740000000  0.5600400000000  0.5266140000000 1.0
C      1  0.5953520000000  0.5051970000000  0.5595200000000 1.0
C      1  0.4094060000000  0.4674860000000  0.5281170000000 1.0
C      1  0.5937590000000  0.4575550000000  0.4812340000000 1.0
C      1  0.3975380000000  0.4850910000000  0.4371910000000 1.0
C      1  0.4311250000000  0.5128380000000  0.5787640000000 1.0
C      1  0.5685400000000  0.4391310000000  0.5535440000000 1.0
C      1  0.4267800000000  0.4235580000000  0.4702620000000 1.0
C      1  0.5700930000000  0.4881890000000  0.4140630000000 1.0
C      1  0.4300470000000  0.5589380000000  0.4534630000000 1.0
C      1  0.5725260000000  0.5696990000000  0.5252480000000 1.0
C      1  0.5933970000000  0.4742610000000  0.4292270000000 1.0
C      1  0.4076950000000  0.5405040000000  0.4408880000000 1.0
C      1  0.5949050000000  0.5560160000000  0.5111120000000 1.0
C      1  0.4090070000000  0.5307290000000  0.5664140000000 1.0
C      1  0.5915330000000  0.4560900000000  0.5617330000000 1.0
C      1  0.4042580000000  0.4339350000000  0.4866700000000 1.0
C      1  0.5570640000000  0.5448120000000  0.4921190000000 1.0
C      1  0.4462200000000  0.5264640000000  0.5342480000000 1.0
C      1  0.5520420000000  0.4832040000000  0.5565460000000 1.0
C      1  0.4458270000000  0.4485230000000  0.5019400000000 1.0
C      1  0.5558990000000  0.4762800000000  0.4573270000000 1.0
C      1  0.4499010000000  0.5189280000000  0.4631510000000 1.0
C      1  0.5202170000000  0.4508850000000  0.5570860000000 1.0
C      1  0.4749140000000  0.4226410000000  0.4730280000000 1.0
C      1  0.5226570000000  0.4841500000000  0.4219830000000 1.0
C      1  0.4777320000000  0.5553280000000  0.4476180000000 1.0
C      1  0.5282560000000  0.5716090000000  0.5227110000000 1.0
C      1  0.4795340000000  0.5192250000000  0.5733030000000 1.0
C      1  0.5081290000000  0.4703030000000  0.4004030000000 1.0
C      1  0.4880610000000  0.5717320000000  0.4234210000000 1.0
C      1  0.5091700000000  0.5919760000000  0.5178050000000 1.0
C      1  0.4873120000000  0.5286540000000  0.5999710000000 1.0
C      1  0.5095520000000  0.4288550000000  0.5744970000000 1.0
C      1  0.4931280000000  0.3991090000000  0.4746310000000 1.0
C      1  0.4262130000000  0.5062880000000  0.4726300000000 1.0
C      1  0.5619260000000  0.5126970000000  0.5218450000000 1.0
C      1  0.4500560000000  0.4980590000000  0.5245220000000 1.0
C      1  0.5647180000000  0.4830690000000  0.5287860000000 1.0
C      1  0.4309280000000  0.4783060000000  0.4813210000000 1.0
C      1  0.5798780000000  0.5063660000000  0.4646160000000 1.0
C      1  0.4938420000000  0.5039950000000  0.5287160000000 1.0
C      1  0.5176710000000  0.4886290000000  0.5213160000000 1.0
C      1  0.4742050000000  0.4608350000000  0.5028870000000 1.0
C      1  0.5280270000000  0.4804750000000  0.4697260000000 1.0
C      1  0.4758150000000  0.5126280000000  0.4751130000000 1.0
C      1  0.5296900000000  0.5303310000000  0.4949810000000 1.0
C      1  0.4948650000000  0.5337100000000  0.5286140000000 1.0
C      1  0.5178130000000  0.4929490000000  0.5710410000000 1.0
C      1  0.4875960000000  0.4457930000000  0.5262230000000 1.0
C      1  0.5148340000000  0.4509390000000  0.4688150000000 1.0
C      1  0.4862810000000  0.4973130000000  0.4510760000000 1.0
C      1  0.5155210000000  0.5441740000000  0.4734100000000 1.0
C      1  0.4395300000000  0.5714170000000  0.4824980000000 1.0
C      1  0.5649590000000  0.5513560000000  0.5496160000000 1.0
C      1  0.4359210000000  0.4842590000000  0.5705460000000 1.0
C      1  0.5648120000000  0.4341410000000  0.5235660000000 1.0
C      1  0.4333630000000  0.4437160000000  0.4481320000000 1.0
C      1  0.5616760000000  0.5176570000000  0.4205060000000 1.0
C      1  0.5161790000000  0.4978780000000  0.4472220000000 1.0
C      1  0.4858730000000  0.5440790000000  0.4743010000000 1.0
C      1  0.5223560000000  0.5423790000000  0.5227110000000 1.0
C      1  0.4883910000000  0.4962020000000  0.5583670000000 1.0
C      1  0.5167780000000  0.4583470000000  0.5288400000000 1.0
C      1  0.4840860000000  0.4504540000000  0.4754800000000 1.0
C      1  0.5729900000000  0.4936990000000  0.5765500000000 1.0
C      1  0.4255600000000  0.4430890000000  0.5243960000000 1.0
C      1  0.5729570000000  0.4505120000000  0.4608780000000 1.0
C      1  0.4142600000000  0.5036900000000  0.4187720000000 1.0
C      1  0.5776480000000  0.5537770000000  0.4695000000000 1.0
C      1  0.4120780000000  0.5765280000000  0.5500580000000 1.0
C      1  0.4476280000000  0.6005230000000  0.4790500000000 1.0
C      1  0.5514360000000  0.5637590000000  0.5762490000000 1.0
C      1  0.4497550000000  0.4663420000000  0.5927260000000 1.0
C      1  0.5503370000000  0.4063270000000  0.5193780000000 1.0
C      1  0.4523830000000  0.4343770000000  0.4255520000000 1.0
C      1  0.5414740000000  0.5332290000000  0.4025280000000 1.0
C      1  0.5560670000000  0.5676830000000  0.4543770000000 1.0
C      1  0.4627190000000  0.5703160000000  0.5503330000000 1.0
C      1  0.5584920000000  0.5157170000000  0.5875150000000 1.0
C      1  0.4412400000000  0.4369730000000  0.5473850000000 1.0
C      1  0.5576340000000  0.4295270000000  0.4698990000000 1.0
C      1  0.4413480000000  0.4921910000000  0.4166090000000 1.0
C      1  0.5292240000000  0.4983990000000  0.4957570000000 1.0
C      1  0.4730370000000  0.4935680000000  0.5062280000000 1.0
END
