TITL C-3578194-7807-139 -9.99419662176579e-05 125000 -958.835568217872 0 0 156 (C1) n - 1
REM
REM in /home/bkarasulu/work/CARBON/AIRSS/Generating-Clusters/EDIP-Nigel-Params/with-SteepDescent/Higher-Symm/SD-CG/HFTN-CG
REM
REM
REM
REM
REM
REM ./C.cell (12c818d87b63d06a65506943cc24bca4)
REM
REM compiler GCC version 9.2.1 20190827 (Red Hat 9.2.1-1)
REM options -cpp -mtune=generic -march=x86-64 -g -O0 -fpre-include=/usr/include/finclude/math-vector-fortran.h
REM seed 32736874 -399763004 1189542654 530201395 499806285 -2031766553 -1953950495 179667622 817814373 488951337 -728488712 -883580369 2080041352 -857921015 1644489799 -289230166 -727737603 1289307658 1666516498 1815080636 988514506 2112775921 -1385697081 1221727541 509003964 859036604 1716336168 813944782 1282555514 -652587919 1074705414 1057757062 -19598389
REM
CELL 1.54180   50.00000   50.00000   50.00000   90.00000   90.00000   90.00000
LATT -1
SFAC C  
C      1  0.5830430000000  0.5437590000000  0.5106030000000 1.0
C      1  0.5973300000000  0.4359380000000  0.5168000000000 1.0
C      1  0.5479270000000  0.5985330000000  0.4930020000000 1.0
C      1  0.5491230000000  0.3971870000000  0.4943110000000 1.0
C      1  0.4474280000000  0.4659170000000  0.4642710000000 1.0
C      1  0.4325320000000  0.5515290000000  0.4640430000000 1.0
C      1  0.5709840000000  0.5473210000000  0.5467230000000 1.0
C      1  0.5751920000000  0.4480260000000  0.5457310000000 1.0
C      1  0.5598540000000  0.4313520000000  0.4571480000000 1.0
C      1  0.5415000000000  0.5589260000000  0.4590280000000 1.0
C      1  0.5531880000000  0.4635210000000  0.5320010000000 1.0
C      1  0.5426570000000  0.5396720000000  0.5436650000000 1.0
C      1  0.4607300000000  0.5868770000000  0.5152310000000 1.0
C      1  0.4581820000000  0.4178210000000  0.5099970000000 1.0
C      1  0.4854950000000  0.5812230000000  0.4950470000000 1.0
C      1  0.4824590000000  0.4250930000000  0.4935390000000 1.0
C      1  0.4360780000000  0.4368260000000  0.5023990000000 1.0
C      1  0.4343830000000  0.5732230000000  0.5079430000000 1.0
C      1  0.5146640000000  0.5445050000000  0.4621300000000 1.0
C      1  0.5417580000000  0.4576880000000  0.4560050000000 1.0
C      1  0.4606800000000  0.5489670000000  0.5374560000000 1.0
C      1  0.4724970000000  0.4641960000000  0.5227170000000 1.0
C      1  0.5588860000000  0.5351950000000  0.4952060000000 1.0
C      1  0.5836200000000  0.4501860000000  0.4942970000000 1.0
C      1  0.5386820000000  0.5886000000000  0.4664350000000 1.0
C      1  0.5443190000000  0.4067530000000  0.4664770000000 1.0
C      1  0.4830390000000  0.5757320000000  0.5613230000000 1.0
C      1  0.4844360000000  0.4338710000000  0.5528150000000 1.0
C      1  0.5594070000000  0.4343850000000  0.4285910000000 1.0
C      1  0.5483060000000  0.5566210000000  0.4323990000000 1.0
C      1  0.5112930000000  0.6001660000000  0.4610760000000 1.0
C      1  0.5149800000000  0.4079820000000  0.4632210000000 1.0
C      1  0.4616070000000  0.5492920000000  0.4684950000000 1.0
C      1  0.4843700000000  0.4727470000000  0.4660750000000 1.0
C      1  0.5370370000000  0.5518000000000  0.5078610000000 1.0
C      1  0.5532680000000  0.4497420000000  0.5040030000000 1.0
C      1  0.5269100000000  0.4587240000000  0.5458040000000 1.0
C      1  0.5274850000000  0.5576650000000  0.5612020000000 1.0
C      1  0.5061090000000  0.4707450000000  0.4902330000000 1.0
C      1  0.4994540000000  0.5291340000000  0.5046790000000 1.0
C      1  0.5775780000000  0.4214550000000  0.5329280000000 1.0
C      1  0.5764470000000  0.5681020000000  0.5266420000000 1.0
C      1  0.4421910000000  0.4719100000000  0.4367140000000 1.0
C      1  0.4423420000000  0.5229200000000  0.4389810000000 1.0
C      1  0.5027320000000  0.5571250000000  0.4341060000000 1.0
C      1  0.5094420000000  0.4464150000000  0.4282360000000 1.0
C      1  0.4683570000000  0.5423320000000  0.5748480000000 1.0
C      1  0.4788990000000  0.4623540000000  0.5665240000000 1.0
C      1  0.4360600000000  0.5455980000000  0.5200010000000 1.0
C      1  0.4435040000000  0.4627690000000  0.5149090000000 1.0
C      1  0.5352640000000  0.4426080000000  0.4182160000000 1.0
C      1  0.5260350000000  0.5625380000000  0.4172620000000 1.0
C      1  0.4645790000000  0.4206390000000  0.5376140000000 1.0
C      1  0.4632880000000  0.5870560000000  0.5443360000000 1.0
C      1  0.5001470000000  0.6068020000000  0.4884410000000 1.0
C      1  0.5005550000000  0.4014260000000  0.4879690000000 1.0
C      1  0.4511470000000  0.4223710000000  0.4580320000000 1.0
C      1  0.4477010000000  0.5949880000000  0.4671770000000 1.0
C      1  0.4914460000000  0.5826970000000  0.4460350000000 1.0
C      1  0.4991360000000  0.4262620000000  0.4464560000000 1.0
C      1  0.4954370000000  0.5293580000000  0.5703870000000 1.0
C      1  0.5031700000000  0.4682040000000  0.5819600000000 1.0
C      1  0.4773070000000  0.4344870000000  0.4646750000000 1.0
C      1  0.4715520000000  0.5774670000000  0.4681980000000 1.0
C      1  0.4844330000000  0.5382760000000  0.4171270000000 1.0
C      1  0.4898400000000  0.4621390000000  0.4131770000000 1.0
C      1  0.5227250000000  0.6120870000000  0.5070500000000 1.0
C      1  0.5199190000000  0.3919470000000  0.5081580000000 1.0
C      1  0.5313330000000  0.4562370000000  0.4836770000000 1.0
C      1  0.5090850000000  0.5533770000000  0.4918040000000 1.0
C      1  0.5088970000000  0.4379820000000  0.5343690000000 1.0
C      1  0.5062120000000  0.5676000000000  0.5439390000000 1.0
C      1  0.4167080000000  0.5254320000000  0.5305100000000 1.0
C      1  0.4219900000000  0.4779530000000  0.5287450000000 1.0
C      1  0.5854480000000  0.4350540000000  0.4698400000000 1.0
C      1  0.5628760000000  0.5436400000000  0.4673720000000 1.0
C      1  0.4910670000000  0.5376380000000  0.5325430000000 1.0
C      1  0.4941580000000  0.4491120000000  0.5093430000000 1.0
C      1  0.5155180000000  0.5458910000000  0.5833150000000 1.0
C      1  0.5274450000000  0.4573380000000  0.5736670000000 1.0
C      1  0.4536620000000  0.5206200000000  0.5893260000000 1.0
C      1  0.4558370000000  0.4738170000000  0.5843620000000 1.0
C      1  0.5490490000000  0.5777290000000  0.5160020000000 1.0
C      1  0.5530750000000  0.4204550000000  0.5149790000000 1.0
C      1  0.5263780000000  0.4136810000000  0.5290310000000 1.0
C      1  0.5243470000000  0.5907910000000  0.5316810000000 1.0
C      1  0.4630250000000  0.4623410000000  0.4207630000000 1.0
C      1  0.4552590000000  0.5356680000000  0.4157600000000 1.0
C      1  0.4283110000000  0.5768320000000  0.4783160000000 1.0
C      1  0.4345830000000  0.4404870000000  0.4725940000000 1.0
C      1  0.4953720000000  0.4898540000000  0.4036300000000 1.0
C      1  0.3781620000000  0.4972700000000  0.4271570000000 1.0
C      1  0.4828960000000  0.4850090000000  0.5419950000000 1.0
C      1  0.5230830000000  0.4975750000000  0.4031230000000 1.0
C      1  0.5437820000000  0.4947420000000  0.4220100000000 1.0
C      1  0.4043580000000  0.4977880000000  0.4158110000000 1.0
C      1  0.5674170000000  0.4961050000000  0.4051190000000 1.0
C      1  0.5931870000000  0.4961250000000  0.4170240000000 1.0
C      1  0.4491860000000  0.5046020000000  0.4848890000000 1.0
C      1  0.4565720000000  0.4971560000000  0.6424130000000 1.0
C      1  0.4813740000000  0.5079890000000  0.4233540000000 1.0
C      1  0.5445930000000  0.5081740000000  0.6030450000000 1.0
C      1  0.5978890000000  0.4853540000000  0.4419650000000 1.0
C      1  0.5489140000000  0.5048470000000  0.4994040000000 1.0
C      1  0.4879240000000  0.5021470000000  0.4531570000000 1.0
C      1  0.5157900000000  0.5020450000000  0.5037470000000 1.0
C      1  0.5328600000000  0.4969750000000  0.3769290000000 1.0
C      1  0.4630050000000  0.5188280000000  0.4630800000000 1.0
C      1  0.4090760000000  0.4964960000000  0.4602720000000 1.0
C      1  0.3673170000000  0.4983560000000  0.4798470000000 1.0
C      1  0.6340750000000  0.4918380000000  0.5147470000000 1.0
C      1  0.4112550000000  0.4947640000000  0.6182090000000 1.0
C      1  0.5015940000000  0.4991980000000  0.5799800000000 1.0
C      1  0.4350990000000  0.4976090000000  0.5764320000000 1.0
C      1  0.4205710000000  0.5051100000000  0.4845010000000 1.0
C      1  0.4603340000000  0.5100420000000  0.5095210000000 1.0
C      1  0.6350510000000  0.4905690000000  0.4661260000000 1.0
C      1  0.5323210000000  0.5012230000000  0.5778160000000 1.0
C      1  0.5373120000000  0.5085830000000  0.5481330000000 1.0
C      1  0.5961320000000  0.4780920000000  0.4907050000000 1.0
C      1  0.5905020000000  0.5123580000000  0.5874440000000 1.0
C      1  0.5052260000000  0.5026290000000  0.6344060000000 1.0
C      1  0.6248540000000  0.4900550000000  0.4405110000000 1.0
C      1  0.5723840000000  0.5091760000000  0.6078790000000 1.0
C      1  0.3816250000000  0.4988760000000  0.4554770000000 1.0
C      1  0.4254080000000  0.4971650000000  0.4362360000000 1.0
C      1  0.6196930000000  0.4986590000000  0.5378210000000 1.0
C      1  0.5324550000000  0.5042960000000  0.6288100000000 1.0
C      1  0.3631240000000  0.4954990000000  0.5295420000000 1.0
C      1  0.6253170000000  0.4811490000000  0.4907140000000 1.0
C      1  0.5613110000000  0.4975910000000  0.3772830000000 1.0
C      1  0.5400960000000  0.5017080000000  0.4504090000000 1.0
C      1  0.3853580000000  0.4943800000000  0.5767460000000 1.0
C      1  0.4356530000000  0.4969560000000  0.3750360000000 1.0
C      1  0.4091830000000  0.4952320000000  0.5906710000000 1.0
C      1  0.3773590000000  0.4992220000000  0.5062480000000 1.0
C      1  0.5111410000000  0.4974470000000  0.3585850000000 1.0
C      1  0.3692640000000  0.4942360000000  0.5555000000000 1.0
C      1  0.5888200000000  0.4986270000000  0.5379510000000 1.0
C      1  0.5527470000000  0.5078500000000  0.6478490000000 1.0
C      1  0.5852130000000  0.4913270000000  0.4672610000000 1.0
C      1  0.4131780000000  0.4973330000000  0.3895750000000 1.0
C      1  0.4617340000000  0.5050340000000  0.5369190000000 1.0
C      1  0.4337040000000  0.5014470000000  0.5456960000000 1.0
C      1  0.6030640000000  0.5057430000000  0.5635620000000 1.0
C      1  0.5565850000000  0.4901580000000  0.4721720000000 1.0
C      1  0.4739050000000  0.4979040000000  0.5976510000000 1.0
C      1  0.5771850000000  0.5109660000000  0.6354630000000 1.0
C      1  0.4883220000000  0.4939430000000  0.3751950000000 1.0
C      1  0.4792170000000  0.4968430000000  0.6266150000000 1.0
C      1  0.4304180000000  0.4957070000000  0.6368620000000 1.0
C      1  0.4615600000000  0.4964420000000  0.3683930000000 1.0
C      1  0.4067920000000  0.5019220000000  0.5105030000000 1.0
C      1  0.5148740000000  0.5140800000000  0.4609060000000 1.0
C      1  0.5114810000000  0.4982780000000  0.5336620000000 1.0
C      1  0.5592140000000  0.4936920000000  0.5298850000000 1.0
END
