TITL C-3578199-7832-222 -6.53601577877234e-06 125000 -286.848653478312 0 0 48 (C1) n - 1
REM
REM in /home/bkarasulu/work/CARBON/AIRSS/Generating-Clusters/EDIP-Nigel-Params/with-SteepDescent/Higher-Symm/SD-CG/HFTN-CG
REM
REM
REM
REM
REM
REM ./C.cell (12c818d87b63d06a65506943cc24bca4)
REM
REM compiler GCC version 9.2.1 20190827 (Red Hat 9.2.1-1)
REM options -cpp -mtune=generic -march=x86-64 -g -O0 -fpre-include=/usr/include/finclude/math-vector-fortran.h
REM seed -1762332396 -1058741254 1357576894 957146955 -1133399301 531904191 1275489128 959415434 -944342513 741210575 1055397537 1515230124 -1214628822 572202334 938275009 1887829450 906340778 -484920847 -1366655175 2143721168 -381025914 1828092481 12739211 -1508811380 -859084540 -1140160643 767675419 764243856 -1987296205 1040355181 1403033471 1106559824 -1737218522
REM
CELL 1.54180   50.00000   50.00000   50.00000   90.00000   90.00000   90.00000
LATT -1
SFAC C  
C      1  0.5140690000000  0.5495250000000  0.5273710000000 1.0
C      1  0.4577730000000  0.5284710000000  0.5284390000000 1.0
C      1  0.4604380000000  0.4682890000000  0.5270180000000 1.0
C      1  0.5140580000000  0.4542880000000  0.5288150000000 1.0
C      1  0.5469300000000  0.5056410000000  0.5284940000000 1.0
C      1  0.4416900000000  0.4729420000000  0.4830470000000 1.0
C      1  0.5087360000000  0.4362680000000  0.4839820000000 1.0
C      1  0.5633690000000  0.4879370000000  0.4871360000000 1.0
C      1  0.5317820000000  0.5568270000000  0.4814330000000 1.0
C      1  0.4564530000000  0.5508520000000  0.4827890000000 1.0
C      1  0.4817980000000  0.5573930000000  0.4650470000000 1.0
C      1  0.4389010000000  0.4984880000000  0.4655750000000 1.0
C      1  0.4836270000000  0.4462830000000  0.4637650000000 1.0
C      1  0.5499310000000  0.4654550000000  0.4689520000000 1.0
C      1  0.5475670000000  0.5338940000000  0.4653740000000 1.0
C      1  0.5567230000000  0.5285540000000  0.5130750000000 1.0
C      1  0.4929770000000  0.5620120000000  0.5116390000000 1.0
C      1  0.4385490000000  0.5120420000000  0.5128010000000 1.0
C      1  0.4689500000000  0.4451730000000  0.5106050000000 1.0
C      1  0.5406620000000  0.4559020000000  0.5158900000000 1.0
C      1  0.4654640000000  0.5517790000000  0.5114390000000 1.0
C      1  0.4404840000000  0.4826550000000  0.5117390000000 1.0
C      1  0.4971100000000  0.4378830000000  0.5117900000000 1.0
C      1  0.5565710000000  0.4809550000000  0.5158680000000 1.0
C      1  0.5381120000000  0.5508140000000  0.5106140000000 1.0
C      1  0.5202580000000  0.4698370000000  0.4591860000000 1.0
C      1  0.5360170000000  0.5056730000000  0.4576650000000 1.0
C      1  0.5036760000000  0.5333990000000  0.4612290000000 1.0
C      1  0.4633400000000  0.5176830000000  0.4641170000000 1.0
C      1  0.4775310000000  0.4773710000000  0.4592020000000 1.0
C      1  0.5266680000000  0.5006370000000  0.4899460000000 1.0
C      1  0.5075820000000  0.5253560000000  0.4911620000000 1.0
C      1  0.4784760000000  0.5139420000000  0.4931770000000 1.0
C      1  0.4789750000000  0.4833750000000  0.4900110000000 1.0
C      1  0.5088600000000  0.4748490000000  0.4904890000000 1.0
C      1  0.4775590000000  0.5153010000000  0.5479310000000 1.0
C      1  0.4768830000000  0.4812580000000  0.5486150000000 1.0
C      1  0.5041210000000  0.4684010000000  0.5525270000000 1.0
C      1  0.5308750000000  0.5088870000000  0.5526690000000 1.0
C      1  0.5084560000000  0.5289630000000  0.5487650000000 1.0
C      1  0.5020190000000  0.5696620000000  0.4841690000000 1.0
C      1  0.4312400000000  0.5221920000000  0.4855950000000 1.0
C      1  0.4588010000000  0.4450090000000  0.4821610000000 1.0
C      1  0.5401220000000  0.4439390000000  0.4882150000000 1.0
C      1  0.5659800000000  0.5203230000000  0.4858960000000 1.0
C      1  0.5228850000000  0.4850350000000  0.5647310000000 1.0
C      1  0.4991500000000  0.5008810000000  0.5234680000000 1.0
C      1  0.4993890000000  0.5003090000000  0.4474650000000 1.0
END
