TITL C-3578207-9274-221 -2.82334873030059e-07 125000 -1195.88581994399 0 0 190 (C1) n - 1
REM
REM in /home/bkarasulu/work/CARBON/AIRSS/Generating-Clusters/EDIP-Nigel-Params/with-SteepDescent/Higher-Symm/SD-CG/HFTN-CG
REM
REM
REM
REM
REM
REM ./C.cell (12c818d87b63d06a65506943cc24bca4)
REM
REM compiler GCC version 9.2.1 20190827 (Red Hat 9.2.1-1)
REM options -cpp -mtune=generic -march=x86-64 -g -O0 -fpre-include=/usr/include/finclude/math-vector-fortran.h
REM seed 517327823 480313204 -1829475391 -953631571 -1050793200 -55578021 -689544960 -477925493 1631434177 -616336252 214852292 631459806 -2104700346 1055864126 1141317692 1289873854 1675980763 -440469959 -914839735 393012202 -1701767497 1171652130 205733336 1297929169 1309858317 -1772447124 484515403 1813083172 1062395332 430949312 1361623442 -931988366 1949088691
REM
CELL 1.54180   50.00000   50.00000   50.00000   90.00000   90.00000   90.00000
LATT -1
SFAC C  
C      1  0.5360690000000  0.5976310000000  0.4734500000000 1.0
C      1  0.5426310000000  0.4723370000000  0.4015440000000 1.0
C      1  0.5427900000000  0.3859680000000  0.5288270000000 1.0
C      1  0.5454590000000  0.5261410000000  0.6093890000000 1.0
C      1  0.4672370000000  0.6167850000000  0.5400290000000 1.0
C      1  0.4627340000000  0.4742120000000  0.6053740000000 1.0
C      1  0.4630220000000  0.4013670000000  0.4728570000000 1.0
C      1  0.4620400000000  0.5348700000000  0.3845680000000 1.0
C      1  0.4775540000000  0.4424340000000  0.4808860000000 1.0
C      1  0.4769050000000  0.4836200000000  0.5589830000000 1.0
C      1  0.4475830000000  0.5810300000000  0.5169580000000 1.0
C      1  0.4629760000000  0.5256500000000  0.4269040000000 1.0
C      1  0.5401890000000  0.4297340000000  0.5209620000000 1.0
C      1  0.5266670000000  0.4804190000000  0.4360320000000 1.0
C      1  0.5192680000000  0.5587100000000  0.4809670000000 1.0
C      1  0.5447990000000  0.5135950000000  0.5670430000000 1.0
C      1  0.5569700000000  0.5784340000000  0.4702960000000 1.0
C      1  0.5651080000000  0.4670090000000  0.4201170000000 1.0
C      1  0.5604960000000  0.4101520000000  0.5312080000000 1.0
C      1  0.5633970000000  0.5266480000000  0.5857170000000 1.0
C      1  0.4477090000000  0.5964060000000  0.5411340000000 1.0
C      1  0.4388220000000  0.4670780000000  0.5910560000000 1.0
C      1  0.4419150000000  0.4196340000000  0.4680140000000 1.0
C      1  0.4376890000000  0.5384440000000  0.4009040000000 1.0
C      1  0.4837050000000  0.4265880000000  0.5072070000000 1.0
C      1  0.4855560000000  0.5087800000000  0.5763590000000 1.0
C      1  0.4655420000000  0.5860920000000  0.4933320000000 1.0
C      1  0.4723480000000  0.4962050000000  0.4162170000000 1.0
C      1  0.5290210000000  0.4193770000000  0.4943920000000 1.0
C      1  0.5184340000000  0.5075700000000  0.4244190000000 1.0
C      1  0.5143220000000  0.5768280000000  0.5085750000000 1.0
C      1  0.5295430000000  0.4895590000000  0.5783610000000 1.0
C      1  0.4920690000000  0.4558690000000  0.5681430000000 1.0
C      1  0.4934160000000  0.5730810000000  0.5570130000000 1.0
C      1  0.4883680000000  0.5443750000000  0.4324930000000 1.0
C      1  0.5019810000000  0.4396060000000  0.4607370000000 1.0
C      1  0.5003730000000  0.4611330000000  0.4374440000000 1.0
C      1  0.4932280000000  0.5635890000000  0.4602910000000 1.0
C      1  0.5114050000000  0.5534900000000  0.5720380000000 1.0
C      1  0.5177480000000  0.4340190000000  0.5415290000000 1.0
C      1  0.3929380000000  0.4450870000000  0.4426240000000 1.0
C      1  0.3964630000000  0.4403180000000  0.5549380000000 1.0
C      1  0.4057810000000  0.5532170000000  0.5445880000000 1.0
C      1  0.3929460000000  0.5505010000000  0.4382310000000 1.0
C      1  0.6074640000000  0.4446000000000  0.5520330000000 1.0
C      1  0.6107410000000  0.4416470000000  0.4516890000000 1.0
C      1  0.6071590000000  0.5491320000000  0.4475230000000 1.0
C      1  0.6075050000000  0.5531590000000  0.5510010000000 1.0
C      1  0.4117390000000  0.5253110000000  0.4797150000000 1.0
C      1  0.4141050000000  0.4839000000000  0.4592490000000 1.0
C      1  0.4137280000000  0.4777260000000  0.5094500000000 1.0
C      1  0.4075230000000  0.5028710000000  0.5351760000000 1.0
C      1  0.5714430000000  0.5342770000000  0.5021410000000 1.0
C      1  0.5736820000000  0.4955250000000  0.5313510000000 1.0
C      1  0.5862740000000  0.4640520000000  0.4886580000000 1.0
C      1  0.5900300000000  0.5075200000000  0.4718450000000 1.0
C      1  0.5330850000000  0.4043660000000  0.4491080000000 1.0
C      1  0.5328340000000  0.4465450000000  0.5966430000000 1.0
C      1  0.5348340000000  0.5925320000000  0.5519920000000 1.0
C      1  0.5317240000000  0.5504090000000  0.4078570000000 1.0
C      1  0.4742860000000  0.4108480000000  0.5500510000000 1.0
C      1  0.4697890000000  0.4483240000000  0.4026350000000 1.0
C      1  0.4650860000000  0.5989270000000  0.4453710000000 1.0
C      1  0.4732900000000  0.5513730000000  0.5977660000000 1.0
C      1  0.4579010000000  0.4291140000000  0.4196700000000 1.0
C      1  0.4698220000000  0.4340720000000  0.5684000000000 1.0
C      1  0.4701160000000  0.5738700000000  0.5774260000000 1.0
C      1  0.4556540000000  0.5825110000000  0.4241050000000 1.0
C      1  0.5424610000000  0.4274400000000  0.5775930000000 1.0
C      1  0.5451710000000  0.4218860000000  0.4306650000000 1.0
C      1  0.5428290000000  0.5707930000000  0.4236160000000 1.0
C      1  0.5383580000000  0.5668970000000  0.5674060000000 1.0
C      1  0.4024850000000  0.4527730000000  0.4920050000000 1.0
C      1  0.3984690000000  0.4895090000000  0.5612000000000 1.0
C      1  0.3966550000000  0.5410410000000  0.4996190000000 1.0
C      1  0.4050440000000  0.5037480000000  0.4389950000000 1.0
C      1  0.5941540000000  0.4433470000000  0.5098330000000 1.0
C      1  0.6017780000000  0.4894540000000  0.4509550000000 1.0
C      1  0.5941570000000  0.5513280000000  0.4944170000000 1.0
C      1  0.5960950000000  0.5025690000000  0.5508980000000 1.0
C      1  0.5678020000000  0.5208480000000  0.4306180000000 1.0
C      1  0.5719200000000  0.4196610000000  0.4783920000000 1.0
C      1  0.5724870000000  0.4713290000000  0.5780170000000 1.0
C      1  0.5667310000000  0.5735760000000  0.5227880000000 1.0
C      1  0.4364000000000  0.5249030000000  0.5724040000000 1.0
C      1  0.4359470000000  0.4341560000000  0.5239980000000 1.0
C      1  0.4288780000000  0.4767410000000  0.4110390000000 1.0
C      1  0.4274140000000  0.5714990000000  0.4679380000000 1.0
C      1  0.4419020000000  0.4426580000000  0.5726260000000 1.0
C      1  0.4441670000000  0.5773530000000  0.5645850000000 1.0
C      1  0.4352890000000  0.5641220000000  0.4183920000000 1.0
C      1  0.4380170000000  0.4280220000000  0.4389690000000 1.0
C      1  0.5663380000000  0.4397320000000  0.4324160000000 1.0
C      1  0.5635350000000  0.5704580000000  0.4422420000000 1.0
C      1  0.5650180000000  0.5560120000000  0.5726250000000 1.0
C      1  0.5645050000000  0.4225040000000  0.5606680000000 1.0
C      1  0.5048840000000  0.4067630000000  0.5476640000000 1.0
C      1  0.5039940000000  0.5500870000000  0.6017680000000 1.0
C      1  0.4940490000000  0.5926520000000  0.4520700000000 1.0
C      1  0.4988660000000  0.4512370000000  0.4088090000000 1.0
C      1  0.5039610000000  0.4103790000000  0.4523060000000 1.0
C      1  0.5016220000000  0.5509320000000  0.4055140000000 1.0
C      1  0.5061540000000  0.6006000000000  0.5542890000000 1.0
C      1  0.5026390000000  0.4523780000000  0.5963330000000 1.0
C      1  0.4901510000000  0.5295430000000  0.3878940000000 1.0
C      1  0.4905300000000  0.3949450000000  0.4738340000000 1.0
C      1  0.4909250000000  0.4757430000000  0.6100230000000 1.0
C      1  0.4936500000000  0.6151500000000  0.5300920000000 1.0
C      1  0.5167540000000  0.5241960000000  0.6118800000000 1.0
C      1  0.5141490000000  0.3886690000000  0.5259190000000 1.0
C      1  0.5134220000000  0.4730510000000  0.3939680000000 1.0
C      1  0.5089270000000  0.6069060000000  0.4741620000000 1.0
C      1  0.6163580000000  0.4463220000000  0.5267890000000 1.0
C      1  0.6098360000000  0.5265870000000  0.5479390000000 1.0
C      1  0.6039200000000  0.5352010000000  0.4715050000000 1.0
C      1  0.6068820000000  0.4649980000000  0.4664320000000 1.0
C      1  0.3947620000000  0.4622290000000  0.4645260000000 1.0
C      1  0.3988560000000  0.5275600000000  0.4530020000000 1.0
C      1  0.3972900000000  0.5313810000000  0.5278250000000 1.0
C      1  0.3864230000000  0.4647010000000  0.5588490000000 1.0
C      1  0.5261290000000  0.4693080000000  0.5549760000000 1.0
C      1  0.4950150000000  0.5635710000000  0.5273250000000 1.0
C      1  0.5040340000000  0.5236760000000  0.4435050000000 1.0
C      1  0.5267850000000  0.4445090000000  0.4792610000000 1.0
C      1  0.4738750000000  0.4793090000000  0.4412320000000 1.0
C      1  0.4707510000000  0.5592490000000  0.4805100000000 1.0
C      1  0.5030950000000  0.5263860000000  0.5606120000000 1.0
C      1  0.4959200000000  0.4446910000000  0.5258390000000 1.0
C      1  0.5833820000000  0.4446390000000  0.5658680000000 1.0
C      1  0.5842750000000  0.5684870000000  0.5531960000000 1.0
C      1  0.5820280000000  0.5482070000000  0.4351810000000 1.0
C      1  0.5855950000000  0.4291830000000  0.4517810000000 1.0
C      1  0.4185690000000  0.4491530000000  0.4297050000000 1.0
C      1  0.4154210000000  0.5666290000000  0.4399730000000 1.0
C      1  0.4286420000000  0.5521680000000  0.5611810000000 1.0
C      1  0.4226130000000  0.4313420000000  0.5521330000000 1.0
C      1  0.4336310000000  0.5547800000000  0.5179850000000 1.0
C      1  0.4428520000000  0.5224590000000  0.4498450000000 1.0
C      1  0.4442920000000  0.4599270000000  0.4813640000000 1.0
C      1  0.4460140000000  0.4805920000000  0.5509320000000 1.0
C      1  0.5505930000000  0.5331800000000  0.4808590000000 1.0
C      1  0.5519570000000  0.5166040000000  0.5381320000000 1.0
C      1  0.5522320000000  0.4560060000000  0.5162670000000 1.0
C      1  0.5468210000000  0.4842600000000  0.4605460000000 1.0
C      1  0.5851800000000  0.4992480000000  0.5776510000000 1.0
C      1  0.5778350000000  0.5770690000000  0.4921690000000 1.0
C      1  0.5832000000000  0.4903440000000  0.4267100000000 1.0
C      1  0.5822700000000  0.4168420000000  0.5075290000000 1.0
C      1  0.4246920000000  0.5060880000000  0.4181460000000 1.0
C      1  0.4121050000000  0.5664910000000  0.4951250000000 1.0
C      1  0.4212860000000  0.4905310000000  0.5811060000000 1.0
C      1  0.4224030000000  0.4291790000000  0.4936930000000 1.0
C      1  0.4862060000000  0.4929390000000  0.5316160000000 1.0
C      1  0.4881990000000  0.5376920000000  0.5159360000000 1.0
C      1  0.4922690000000  0.5141940000000  0.4677470000000 1.0
C      1  0.4860080000000  0.4720360000000  0.4896440000000 1.0
C      1  0.5029760000000  0.4881490000000  0.4724260000000 1.0
C      1  0.5046060000000  0.5321420000000  0.4897640000000 1.0
C      1  0.5022300000000  0.5175390000000  0.5334990000000 1.0
C      1  0.5001370000000  0.4706700000000  0.5156870000000 1.0
C      1  0.5571250000000  0.4697540000000  0.5419260000000 1.0
C      1  0.5600010000000  0.5433380000000  0.5265620000000 1.0
C      1  0.5622540000000  0.5123240000000  0.4602550000000 1.0
C      1  0.5582660000000  0.4559890000000  0.4724280000000 1.0
C      1  0.4430340000000  0.4696200000000  0.4519520000000 1.0
C      1  0.4442220000000  0.5459570000000  0.4732040000000 1.0
C      1  0.4358390000000  0.5093470000000  0.5445760000000 1.0
C      1  0.4389300000000  0.4652380000000  0.5239530000000 1.0
C      1  0.5290940000000  0.4716420000000  0.5055280000000 1.0
C      1  0.5285260000000  0.5120130000000  0.5231700000000 1.0
C      1  0.5295750000000  0.5173290000000  0.4949480000000 1.0
C      1  0.5286700000000  0.4905970000000  0.4828060000000 1.0
C      1  0.4597580000000  0.4868980000000  0.4908930000000 1.0
C      1  0.4625980000000  0.5061580000000  0.4674130000000 1.0
C      1  0.4570160000000  0.5326980000000  0.5130250000000 1.0
C      1  0.4612690000000  0.5024200000000  0.5162050000000 1.0
C      1  0.5416390000000  0.5234690000000  0.4151460000000 1.0
C      1  0.5465050000000  0.4043690000000  0.4760170000000 1.0
C      1  0.5473610000000  0.4721530000000  0.5942000000000 1.0
C      1  0.5399700000000  0.5877420000000  0.5236270000000 1.0
C      1  0.4630230000000  0.5253730000000  0.5869880000000 1.0
C      1  0.4612190000000  0.4168870000000  0.5234540000000 1.0
C      1  0.4561480000000  0.4755120000000  0.4009220000000 1.0
C      1  0.4480340000000  0.5956040000000  0.4699080000000 1.0
C      1  0.5034290000000  0.4044180000000  0.5002500000000 1.0
C      1  0.5053030000000  0.4992480000000  0.5967330000000 1.0
C      1  0.4951830000000  0.5997650000000  0.5010470000000 1.0
C      1  0.4990050000000  0.5014860000000  0.4017120000000 1.0
C      1  0.4168340000000  0.4967570000000  0.4856970000000 1.0
C      1  0.5844990000000  0.4922930000000  0.5005510000000 1.0
END
