TITL C-3577084-3642-352 9.85091953175981e-07 125000 -665.365708169242 0 0 107 (C1) n - 1
REM
REM in /home/bkarasulu/work/CARBON/AIRSS/Generating-Clusters/EDIP-Nigel-Params/with-SteepDescent/Higher-Symm/SD-CG/HFTN-CG
REM
REM
REM
REM
REM
REM ./C.cell (12c818d87b63d06a65506943cc24bca4)
REM
REM compiler GCC version 9.2.1 20190827 (Red Hat 9.2.1-1)
REM options -cpp -mtune=generic -march=x86-64 -g -O0 -fpre-include=/usr/include/finclude/math-vector-fortran.h
REM seed -1432191790 1714083762 -1266588603 -263177850 -800517962 -886682684 -1516992071 304867440 785103641 1830801111 -1429217358 -1061959736 1681273395 136855037 -854156908 1796460245 510106711 1470456299 -1126121361 -738107514 1713418785 1838711977 784038742 1743041157 1024269575 889641275 -1037705602 -1881151898 -1600938882 -573526367 -1010899363 2023295606 -851967871
REM
CELL 1.54180   50.00000   50.00000   50.00000   90.00000   90.00000   90.00000
LATT -1
SFAC C  
C      1  0.5783190000000  0.5341950000000  0.4869930000000 1.0
C      1  0.5744810000000  0.5149920000000  0.4422900000000 1.0
C      1  0.5164140000000  0.4768680000000  0.5764190000000 1.0
C      1  0.5592700000000  0.5300750000000  0.5365430000000 1.0
C      1  0.4872000000000  0.5053210000000  0.5173000000000 1.0
C      1  0.5895790000000  0.4859810000000  0.4993650000000 1.0
C      1  0.5236930000000  0.6076350000000  0.5170960000000 1.0
C      1  0.4425330000000  0.5242910000000  0.4340400000000 1.0
C      1  0.4672370000000  0.4811450000000  0.5473700000000 1.0
C      1  0.5143340000000  0.5224130000000  0.5713420000000 1.0
C      1  0.4441250000000  0.4781700000000  0.4597010000000 1.0
C      1  0.5423240000000  0.5171580000000  0.5823360000000 1.0
C      1  0.5762650000000  0.4744750000000  0.4751950000000 1.0
C      1  0.4227250000000  0.5606270000000  0.5114470000000 1.0
C      1  0.5593730000000  0.5269410000000  0.4653920000000 1.0
C      1  0.4845720000000  0.5622110000000  0.5517360000000 1.0
C      1  0.4753650000000  0.4561880000000  0.4864570000000 1.0
C      1  0.4164300000000  0.4906160000000  0.4591950000000 1.0
C      1  0.4190290000000  0.4726290000000  0.5311590000000 1.0
C      1  0.4712950000000  0.5616190000000  0.5268370000000 1.0
C      1  0.4697650000000  0.4682220000000  0.4191750000000 1.0
C      1  0.4365170000000  0.5365940000000  0.5524860000000 1.0
C      1  0.4520210000000  0.4578060000000  0.4381430000000 1.0
C      1  0.5756070000000  0.5604010000000  0.4953220000000 1.0
C      1  0.4723440000000  0.4960050000000  0.4168920000000 1.0
C      1  0.5450480000000  0.4870720000000  0.5778960000000 1.0
C      1  0.4101980000000  0.5243270000000  0.5454720000000 1.0
C      1  0.4540770000000  0.5214590000000  0.5684020000000 1.0
C      1  0.5726550000000  0.4613240000000  0.5414000000000 1.0
C      1  0.4573300000000  0.5481720000000  0.4415780000000 1.0
C      1  0.5394900000000  0.4607210000000  0.5056540000000 1.0
C      1  0.5111650000000  0.4679520000000  0.5134800000000 1.0
C      1  0.5570280000000  0.4504890000000  0.4790670000000 1.0
C      1  0.5627670000000  0.4198900000000  0.5139790000000 1.0
C      1  0.4898230000000  0.4112610000000  0.4942700000000 1.0
C      1  0.5404440000000  0.4397570000000  0.4537180000000 1.0
C      1  0.4881100000000  0.4120230000000  0.5458890000000 1.0
C      1  0.4562820000000  0.5536200000000  0.4713190000000 1.0
C      1  0.4840490000000  0.5402820000000  0.4320500000000 1.0
C      1  0.4278010000000  0.5599740000000  0.4809210000000 1.0
C      1  0.5516630000000  0.4438710000000  0.5292900000000 1.0
C      1  0.4669490000000  0.5266070000000  0.4844190000000 1.0
C      1  0.4693200000000  0.5015370000000  0.4641830000000 1.0
C      1  0.4874380000000  0.4486930000000  0.5129170000000 1.0
C      1  0.5036150000000  0.4912980000000  0.4984590000000 1.0
C      1  0.4437070000000  0.4586920000000  0.4838690000000 1.0
C      1  0.4124970000000  0.5357890000000  0.4736100000000 1.0
C      1  0.5604790000000  0.4863470000000  0.5523520000000 1.0
C      1  0.5026370000000  0.5653270000000  0.4703550000000 1.0
C      1  0.5007690000000  0.5286160000000  0.5290650000000 1.0
C      1  0.4980370000000  0.5999810000000  0.5138420000000 1.0
C      1  0.5574070000000  0.5732740000000  0.5119420000000 1.0
C      1  0.5152170000000  0.5073090000000  0.5443530000000 1.0
C      1  0.5789760000000  0.4885860000000  0.4508840000000 1.0
C      1  0.4851370000000  0.4374780000000  0.5615460000000 1.0
C      1  0.4628510000000  0.4522220000000  0.5493350000000 1.0
C      1  0.5118530000000  0.5194350000000  0.4654610000000 1.0
C      1  0.4868780000000  0.5104910000000  0.4393310000000 1.0
C      1  0.5161230000000  0.4119120000000  0.5367480000000 1.0
C      1  0.5617650000000  0.5344120000000  0.5670070000000 1.0
C      1  0.5445370000000  0.5038130000000  0.5334400000000 1.0
C      1  0.4466470000000  0.5203250000000  0.5079140000000 1.0
C      1  0.4580100000000  0.4312850000000  0.4520670000000 1.0
C      1  0.4535610000000  0.4378630000000  0.5257330000000 1.0
C      1  0.4022280000000  0.5368810000000  0.5194660000000 1.0
C      1  0.5390370000000  0.4914290000000  0.4240010000000 1.0
C      1  0.5327380000000  0.5654370000000  0.5546430000000 1.0
C      1  0.5011860000000  0.5391740000000  0.4857180000000 1.0
C      1  0.5396190000000  0.5930630000000  0.4992250000000 1.0
C      1  0.4840090000000  0.4319180000000  0.4699520000000 1.0
C      1  0.4215050000000  0.4700240000000  0.5024870000000 1.0
C      1  0.5525880000000  0.4699560000000  0.4110120000000 1.0
C      1  0.4369320000000  0.4327010000000  0.4716810000000 1.0
C      1  0.5183790000000  0.5412410000000  0.5109530000000 1.0
C      1  0.5469990000000  0.4921460000000  0.5039270000000 1.0
C      1  0.4509090000000  0.4936840000000  0.5252290000000 1.0
C      1  0.5513450000000  0.4493350000000  0.4292050000000 1.0
C      1  0.4767400000000  0.5830020000000  0.5072970000000 1.0
C      1  0.4489140000000  0.5099720000000  0.4105070000000 1.0
C      1  0.4757140000000  0.5756690000000  0.4784350000000 1.0
C      1  0.5097400000000  0.4419850000000  0.4544850000000 1.0
C      1  0.4186040000000  0.5187700000000  0.4498070000000 1.0
C      1  0.4688010000000  0.4976610000000  0.5714440000000 1.0
C      1  0.5509350000000  0.5188610000000  0.4233190000000 1.0
C      1  0.4109860000000  0.4962190000000  0.5432170000000 1.0
C      1  0.5246880000000  0.5815380000000  0.4787140000000 1.0
C      1  0.4894290000000  0.4808200000000  0.4755440000000 1.0
C      1  0.4711160000000  0.4136950000000  0.5207520000000 1.0
C      1  0.5084830000000  0.4708220000000  0.4548040000000 1.0
C      1  0.5161120000000  0.4153260000000  0.5076390000000 1.0
C      1  0.4077150000000  0.4910810000000  0.4878850000000 1.0
C      1  0.5068920000000  0.5562380000000  0.4417980000000 1.0
C      1  0.5326890000000  0.5394520000000  0.4395330000000 1.0
C      1  0.4458080000000  0.5458860000000  0.5254550000000 1.0
C      1  0.5108380000000  0.4518550000000  0.5615060000000 1.0
C      1  0.5417040000000  0.4081550000000  0.4971230000000 1.0
C      1  0.5411610000000  0.5534360000000  0.5276090000000 1.0
C      1  0.5379990000000  0.5056000000000  0.4738880000000 1.0
C      1  0.5547970000000  0.5614570000000  0.5721630000000 1.0
C      1  0.5078430000000  0.5532360000000  0.5653970000000 1.0
C      1  0.5348280000000  0.4836560000000  0.4526270000000 1.0
C      1  0.4154270000000  0.5188560000000  0.4976060000000 1.0
C      1  0.5310660000000  0.4340520000000  0.5498140000000 1.0
C      1  0.5795660000000  0.5135740000000  0.5076490000000 1.0
C      1  0.5907520000000  0.4683620000000  0.5211980000000 1.0
C      1  0.5736900000000  0.4280830000000  0.4886220000000 1.0
C      1  0.4963300000000  0.4996280000000  0.5832180000000 1.0
END
