TITL C-3578204-4308-75 -1.09394686627069e-06 125000 -910.491763500559 0 0 146 (C1) n - 1
REM
REM in /home/bkarasulu/work/CARBON/AIRSS/Generating-Clusters/EDIP-Nigel-Params/with-SteepDescent/Higher-Symm/SD-CG/HFTN-CG
REM
REM
REM
REM
REM
REM ./C.cell (12c818d87b63d06a65506943cc24bca4)
REM
REM compiler GCC version 9.2.1 20190827 (Red Hat 9.2.1-1)
REM options -cpp -mtune=generic -march=x86-64 -g -O0 -fpre-include=/usr/include/finclude/math-vector-fortran.h
REM seed -403164083 -352629297 44279286 -112026350 1363232777 -1374175039 117476673 -796322173 -1023601 -264041168 884561353 -1339942860 -38158564 1373088032 1380477967 2091543896 1149920704 -416084891 -1531773181 -1091266583 2133186247 -684480899 570783206 204005884 -632610139 1765982953 -221674669 -1827861281 -723526001 298028414 -618716117 -2121268512 -1273321584
REM
CELL 1.54180   50.00000   50.00000   50.00000   90.00000   90.00000   90.00000
LATT -1
SFAC C  
C      1  0.4741510000000  0.5070930000000  0.4722840000000 1.0
C      1  0.5869540000000  0.4607870000000  0.5711920000000 1.0
C      1  0.4674670000000  0.5412990000000  0.5218480000000 1.0
C      1  0.4279950000000  0.4481000000000  0.5146510000000 1.0
C      1  0.4110750000000  0.4802150000000  0.4349370000000 1.0
C      1  0.4482780000000  0.4460730000000  0.4062670000000 1.0
C      1  0.5418750000000  0.4793150000000  0.6033710000000 1.0
C      1  0.5845160000000  0.5619670000000  0.4883510000000 1.0
C      1  0.5614650000000  0.4503360000000  0.5646390000000 1.0
C      1  0.4704310000000  0.4774790000000  0.4401030000000 1.0
C      1  0.5387600000000  0.5485020000000  0.5552770000000 1.0
C      1  0.4389480000000  0.5439200000000  0.4316010000000 1.0
C      1  0.4687400000000  0.4736570000000  0.5805490000000 1.0
C      1  0.5152250000000  0.5224610000000  0.5791930000000 1.0
C      1  0.4680020000000  0.5363970000000  0.4642510000000 1.0
C      1  0.5852520000000  0.5194580000000  0.4757240000000 1.0
C      1  0.4572580000000  0.5471910000000  0.5738840000000 1.0
C      1  0.5849780000000  0.4991640000000  0.4525570000000 1.0
C      1  0.4906190000000  0.5267690000000  0.5081990000000 1.0
C      1  0.5389970000000  0.5878320000000  0.4691600000000 1.0
C      1  0.5480960000000  0.5289580000000  0.4483720000000 1.0
C      1  0.5672430000000  0.4713350000000  0.4569880000000 1.0
C      1  0.4985200000000  0.4446230000000  0.4180050000000 1.0
C      1  0.5117890000000  0.5915940000000  0.5390870000000 1.0
C      1  0.4945200000000  0.4881720000000  0.6129580000000 1.0
C      1  0.5041440000000  0.4722990000000  0.5405500000000 1.0
C      1  0.4808600000000  0.4875300000000  0.5542020000000 1.0
C      1  0.4713140000000  0.5325740000000  0.5993810000000 1.0
C      1  0.5677500000000  0.5121450000000  0.4325580000000 1.0
C      1  0.5924310000000  0.5243670000000  0.5235870000000 1.0
C      1  0.4742590000000  0.4135240000000  0.4553090000000 1.0
C      1  0.5832810000000  0.5520290000000  0.5160830000000 1.0
C      1  0.3955260000000  0.4720040000000  0.4766860000000 1.0
C      1  0.5539700000000  0.4730920000000  0.5294010000000 1.0
C      1  0.5877890000000  0.5072430000000  0.5484010000000 1.0
C      1  0.5577840000000  0.5923390000000  0.5236830000000 1.0
C      1  0.5119440000000  0.5307630000000  0.4626300000000 1.0
C      1  0.5805080000000  0.4366590000000  0.5175220000000 1.0
C      1  0.5159880000000  0.4939640000000  0.4937910000000 1.0
C      1  0.4271900000000  0.5614370000000  0.5042440000000 1.0
C      1  0.4328270000000  0.4871840000000  0.5579640000000 1.0
C      1  0.5959150000000  0.4621380000000  0.5225710000000 1.0
C      1  0.4308800000000  0.5088990000000  0.4976730000000 1.0
C      1  0.5657470000000  0.4402950000000  0.4592600000000 1.0
C      1  0.4319250000000  0.4925400000000  0.4179770000000 1.0
C      1  0.4890990000000  0.5364850000000  0.4424860000000 1.0
C      1  0.4918390000000  0.4010130000000  0.5010080000000 1.0
C      1  0.5216870000000  0.5184080000000  0.4054450000000 1.0
C      1  0.4166910000000  0.4521610000000  0.4422810000000 1.0
C      1  0.4954260000000  0.4604120000000  0.4448460000000 1.0
C      1  0.5695940000000  0.5440110000000  0.5779760000000 1.0
C      1  0.5069240000000  0.4967870000000  0.4176830000000 1.0
C      1  0.4103090000000  0.4946000000000  0.5164520000000 1.0
C      1  0.5532630000000  0.5054280000000  0.5215090000000 1.0
C      1  0.5550380000000  0.4918200000000  0.4174730000000 1.0
C      1  0.5371930000000  0.5530120000000  0.4341170000000 1.0
C      1  0.5046420000000  0.4066600000000  0.4526610000000 1.0
C      1  0.5394510000000  0.4153110000000  0.4950780000000 1.0
C      1  0.4610110000000  0.4112820000000  0.4299420000000 1.0
C      1  0.4697730000000  0.4452380000000  0.4776870000000 1.0
C      1  0.4073640000000  0.4666440000000  0.5169290000000 1.0
C      1  0.5137710000000  0.4225380000000  0.5401610000000 1.0
C      1  0.4677320000000  0.5150470000000  0.4003830000000 1.0
C      1  0.4824350000000  0.5692060000000  0.5084340000000 1.0
C      1  0.4215810000000  0.5325610000000  0.5391290000000 1.0
C      1  0.4906040000000  0.4625970000000  0.5978640000000 1.0
C      1  0.4120640000000  0.5046130000000  0.5446700000000 1.0
C      1  0.5960200000000  0.5074970000000  0.5004930000000 1.0
C      1  0.4726750000000  0.4852920000000  0.3914080000000 1.0
C      1  0.4552260000000  0.4854830000000  0.5385430000000 1.0
C      1  0.5167700000000  0.5698160000000  0.5586150000000 1.0
C      1  0.4988670000000  0.4450380000000  0.4732700000000 1.0
C      1  0.4407380000000  0.5205650000000  0.4122320000000 1.0
C      1  0.5386100000000  0.4590850000000  0.5828210000000 1.0
C      1  0.4616060000000  0.5876450000000  0.5493500000000 1.0
C      1  0.4985430000000  0.5690130000000  0.5817610000000 1.0
C      1  0.5349720000000  0.4565740000000  0.5099370000000 1.0
C      1  0.5448340000000  0.4310880000000  0.4422650000000 1.0
C      1  0.4709630000000  0.5039210000000  0.6044370000000 1.0
C      1  0.5191290000000  0.4235290000000  0.4323660000000 1.0
C      1  0.4952000000000  0.6012690000000  0.4795160000000 1.0
C      1  0.5232720000000  0.5732290000000  0.4490910000000 1.0
C      1  0.4996170000000  0.4733650000000  0.3992640000000 1.0
C      1  0.5442760000000  0.4752550000000  0.4378020000000 1.0
C      1  0.4369060000000  0.5743400000000  0.5387490000000 1.0
C      1  0.5596340000000  0.4748970000000  0.4861590000000 1.0
C      1  0.4678220000000  0.4391310000000  0.5479070000000 1.0
C      1  0.4550560000000  0.4741800000000  0.4135490000000 1.0
C      1  0.4839600000000  0.5907480000000  0.5294480000000 1.0
C      1  0.5208760000000  0.4984630000000  0.6091090000000 1.0
C      1  0.5718640000000  0.5672760000000  0.5626230000000 1.0
C      1  0.5350110000000  0.5304270000000  0.5283130000000 1.0
C      1  0.5981790000000  0.5449640000000  0.4703380000000 1.0
C      1  0.4639740000000  0.4112130000000  0.5050370000000 1.0
C      1  0.4462400000000  0.4142810000000  0.4818850000000 1.0
C      1  0.5709330000000  0.5702810000000  0.5345040000000 1.0
C      1  0.4294650000000  0.5646800000000  0.4749070000000 1.0
C      1  0.4262710000000  0.4604350000000  0.5660050000000 1.0
C      1  0.5417870000000  0.5019540000000  0.5721460000000 1.0
C      1  0.4517360000000  0.4496250000000  0.5719810000000 1.0
C      1  0.4743110000000  0.5831250000000  0.4842170000000 1.0
C      1  0.4306690000000  0.4331120000000  0.4253700000000 1.0
C      1  0.5050410000000  0.4699860000000  0.5091170000000 1.0
C      1  0.4578350000000  0.4932590000000  0.4918850000000 1.0
C      1  0.4667690000000  0.4106980000000  0.5361810000000 1.0
C      1  0.5676620000000  0.5173280000000  0.5678400000000 1.0
C      1  0.5109210000000  0.4163360000000  0.4816850000000 1.0
C      1  0.4550230000000  0.4580160000000  0.5253230000000 1.0
C      1  0.4721440000000  0.5351360000000  0.5510300000000 1.0
C      1  0.5841570000000  0.4808420000000  0.5034850000000 1.0
C      1  0.4992640000000  0.4447610000000  0.5530400000000 1.0
C      1  0.4077260000000  0.4472570000000  0.4694230000000 1.0
C      1  0.4709010000000  0.4663970000000  0.5004060000000 1.0
C      1  0.5616200000000  0.4313070000000  0.5403680000000 1.0
C      1  0.5322740000000  0.4853480000000  0.5478620000000 1.0
C      1  0.4968190000000  0.4004110000000  0.5321120000000 1.0
C      1  0.4373360000000  0.5355800000000  0.5137590000000 1.0
C      1  0.5929530000000  0.4768710000000  0.5486650000000 1.0
C      1  0.4975220000000  0.5792340000000  0.4359230000000 1.0
C      1  0.4935700000000  0.5157470000000  0.5556780000000 1.0
C      1  0.5361440000000  0.5448770000000  0.5012840000000 1.0
C      1  0.5081090000000  0.5455220000000  0.4906050000000 1.0
C      1  0.5307190000000  0.5945430000000  0.5167890000000 1.0
C      1  0.5446550000000  0.5002330000000  0.4927610000000 1.0
C      1  0.4952120000000  0.5614800000000  0.4131990000000 1.0
C      1  0.4694140000000  0.5748460000000  0.5757920000000 1.0
C      1  0.5367850000000  0.4284930000000  0.5231250000000 1.0
C      1  0.4993040000000  0.5428490000000  0.5961730000000 1.0
C      1  0.5640700000000  0.4312330000000  0.4880480000000 1.0
C      1  0.5045290000000  0.5017760000000  0.4683960000000 1.0
C      1  0.4204230000000  0.5419250000000  0.4563520000000 1.0
C      1  0.5158160000000  0.4834750000000  0.4440980000000 1.0
C      1  0.4295440000000  0.5532950000000  0.5590250000000 1.0
C      1  0.4581530000000  0.5658630000000  0.4657800000000 1.0
C      1  0.4277590000000  0.4366940000000  0.4878520000000 1.0
C      1  0.5081400000000  0.5178270000000  0.5300980000000 1.0
C      1  0.4180190000000  0.5151840000000  0.4702200000000 1.0
C      1  0.5202270000000  0.5456710000000  0.4117480000000 1.0
C      1  0.5644900000000  0.5790060000000  0.4780210000000 1.0
C      1  0.5542130000000  0.5270690000000  0.4796350000000 1.0
C      1  0.4810600000000  0.5092950000000  0.4277840000000 1.0
C      1  0.5220440000000  0.6002980000000  0.4888660000000 1.0
C      1  0.4611840000000  0.5683790000000  0.4343980000000 1.0
C      1  0.5108510000000  0.4496400000000  0.5805830000000 1.0
C      1  0.4004890000000  0.4940880000000  0.4589690000000 1.0
C      1  0.4724290000000  0.4295740000000  0.4100660000000 1.0
END
