TITL C-3577083-591-282 -2.3192050414263e-06 125000 -832.900733115317 0 0 131 (C1) n - 1
REM
REM in /home/bkarasulu/work/CARBON/AIRSS/Generating-Clusters/EDIP-Nigel-Params/with-SteepDescent/Higher-Symm/SD-CG/HFTN-CG
REM
REM
REM
REM
REM
REM ./C.cell (12c818d87b63d06a65506943cc24bca4)
REM
REM compiler GCC version 9.2.1 20190827 (Red Hat 9.2.1-1)
REM options -cpp -mtune=generic -march=x86-64 -g -O0 -fpre-include=/usr/include/finclude/math-vector-fortran.h
REM seed 2095566405 -2127158778 -180827310 680267870 -1404873749 -704874120 -1941620190 -1402516725 -1352551973 -167224039 1993845078 1020337555 -969144341 1126523460 1773582271 886647914 1740016074 611780549 -1628423451 -1772977760 -932268811 278039062 170663208 -754737439 1478051954 1528618552 -130742163 1250003686 409538714 -177069568 1239857539 1302758291 -1185666741
REM
CELL 1.54180   50.00000   50.00000   50.00000   90.00000   90.00000   90.00000
LATT -1
SFAC C  
C      1  0.5374900000000  0.4820130000000  0.4432770000000 1.0
C      1  0.5403830000000  0.4329040000000  0.4771760000000 1.0
C      1  0.5367140000000  0.4373990000000  0.5323210000000 1.0
C      1  0.5393260000000  0.4856000000000  0.5609470000000 1.0
C      1  0.5408710000000  0.5462190000000  0.5512080000000 1.0
C      1  0.5389460000000  0.5689330000000  0.4961190000000 1.0
C      1  0.5378160000000  0.5462250000000  0.4449210000000 1.0
C      1  0.4538740000000  0.5164160000000  0.5286090000000 1.0
C      1  0.4435670000000  0.5313150000000  0.5070110000000 1.0
C      1  0.4522460000000  0.5277300000000  0.4790750000000 1.0
C      1  0.4543910000000  0.5003140000000  0.4678990000000 1.0
C      1  0.4551010000000  0.4738080000000  0.4807710000000 1.0
C      1  0.4445350000000  0.4729480000000  0.5076180000000 1.0
C      1  0.4529340000000  0.4863490000000  0.5309950000000 1.0
C      1  0.4917110000000  0.4729640000000  0.5912330000000 1.0
C      1  0.4844050000000  0.5573430000000  0.5633930000000 1.0
C      1  0.4940930000000  0.6099400000000  0.4974720000000 1.0
C      1  0.4884790000000  0.5699490000000  0.4237950000000 1.0
C      1  0.4838370000000  0.4766840000000  0.4278590000000 1.0
C      1  0.4891250000000  0.3990090000000  0.4637040000000 1.0
C      1  0.4845730000000  0.4115320000000  0.5502880000000 1.0
C      1  0.4792960000000  0.5727340000000  0.4658170000000 1.0
C      1  0.4835110000000  0.5227560000000  0.4290950000000 1.0
C      1  0.4889840000000  0.4416480000000  0.4544430000000 1.0
C      1  0.4858420000000  0.4213590000000  0.5083340000000 1.0
C      1  0.4829410000000  0.4582640000000  0.5651250000000 1.0
C      1  0.4854700000000  0.5141610000000  0.5653840000000 1.0
C      1  0.4848690000000  0.5734840000000  0.5190410000000 1.0
C      1  0.4082220000000  0.4708240000000  0.4644420000000 1.0
C      1  0.4019040000000  0.4624470000000  0.5154580000000 1.0
C      1  0.4039540000000  0.4838720000000  0.5367730000000 1.0
C      1  0.3981210000000  0.5087490000000  0.5233030000000 1.0
C      1  0.3973830000000  0.5066510000000  0.4945440000000 1.0
C      1  0.4063350000000  0.5199760000000  0.4679300000000 1.0
C      1  0.4124200000000  0.4969790000000  0.4491370000000 1.0
C      1  0.5670340000000  0.5383980000000  0.5402290000000 1.0
C      1  0.5681670000000  0.5637630000000  0.4952730000000 1.0
C      1  0.5669210000000  0.5394460000000  0.4501690000000 1.0
C      1  0.5675840000000  0.4835900000000  0.4461340000000 1.0
C      1  0.5702080000000  0.4363220000000  0.4779720000000 1.0
C      1  0.5662640000000  0.4443310000000  0.5293630000000 1.0
C      1  0.5684640000000  0.4885300000000  0.5552260000000 1.0
C      1  0.5327300000000  0.5759850000000  0.4452420000000 1.0
C      1  0.5251850000000  0.5034700000000  0.4224540000000 1.0
C      1  0.5310780000000  0.4292910000000  0.4489560000000 1.0
C      1  0.5299740000000  0.4100940000000  0.5224120000000 1.0
C      1  0.5339800000000  0.4598830000000  0.5764450000000 1.0
C      1  0.5269220000000  0.5337310000000  0.5733640000000 1.0
C      1  0.5337180000000  0.5854610000000  0.5202790000000 1.0
C      1  0.4325740000000  0.5693030000000  0.4815650000000 1.0
C      1  0.4406270000000  0.5473580000000  0.4360600000000 1.0
C      1  0.4437110000000  0.4494480000000  0.4402940000000 1.0
C      1  0.4352340000000  0.4274570000000  0.4897210000000 1.0
C      1  0.4388440000000  0.4407680000000  0.5511540000000 1.0
C      1  0.4394870000000  0.4918990000000  0.5774710000000 1.0
C      1  0.4446560000000  0.5732830000000  0.5351410000000 1.0
C      1  0.4843600000000  0.4651430000000  0.4807390000000 1.0
C      1  0.4913450000000  0.4531580000000  0.5099840000000 1.0
C      1  0.4802830000000  0.4730520000000  0.5363670000000 1.0
C      1  0.4964390000000  0.4986230000000  0.5360320000000 1.0
C      1  0.4936710000000  0.5422270000000  0.5038610000000 1.0
C      1  0.4790270000000  0.5428020000000  0.4769470000000 1.0
C      1  0.4948300000000  0.5228040000000  0.4604200000000 1.0
C      1  0.6056930000000  0.4728530000000  0.5291410000000 1.0
C      1  0.5996540000000  0.5062120000000  0.5195770000000 1.0
C      1  0.6053480000000  0.5369480000000  0.5101190000000 1.0
C      1  0.6058950000000  0.5402350000000  0.4797910000000 1.0
C      1  0.6006470000000  0.5134620000000  0.4688200000000 1.0
C      1  0.6002490000000  0.4715110000000  0.4822760000000 1.0
C      1  0.6061410000000  0.4543920000000  0.5054810000000 1.0
C      1  0.4573300000000  0.5726750000000  0.4341480000000 1.0
C      1  0.4544920000000  0.4744170000000  0.4284550000000 1.0
C      1  0.4606390000000  0.4109160000000  0.4652420000000 1.0
C      1  0.4552060000000  0.4174480000000  0.5393000000000 1.0
C      1  0.4526290000000  0.4727100000000  0.5941720000000 1.0
C      1  0.4534340000000  0.5552440000000  0.5595460000000 1.0
C      1  0.4670060000000  0.6053330000000  0.5063370000000 1.0
C      1  0.5010620000000  0.4031490000000  0.4895010000000 1.0
C      1  0.4980070000000  0.4334190000000  0.5636740000000 1.0
C      1  0.5000280000000  0.5007960000000  0.5871490000000 1.0
C      1  0.4985020000000  0.5740590000000  0.5453250000000 1.0
C      1  0.5004460000000  0.5942950000000  0.4735370000000 1.0
C      1  0.4976060000000  0.5438650000000  0.4146700000000 1.0
C      1  0.4991140000000  0.4531570000000  0.4293940000000 1.0
C      1  0.5370660000000  0.5127300000000  0.5110270000000 1.0
C      1  0.5241950000000  0.5400240000000  0.4957840000000 1.0
C      1  0.5221050000000  0.5331270000000  0.4663830000000 1.0
C      1  0.5303980000000  0.4850480000000  0.4750600000000 1.0
C      1  0.5298390000000  0.4586260000000  0.4883050000000 1.0
C      1  0.5213620000000  0.4593780000000  0.5162540000000 1.0
C      1  0.5250410000000  0.4892570000000  0.5314220000000 1.0
C      1  0.4963740000000  0.4994360000000  0.4173360000000 1.0
C      1  0.5090880000000  0.4099860000000  0.4446500000000 1.0
C      1  0.5047200000000  0.3987000000000  0.5333330000000 1.0
C      1  0.5167660000000  0.4607620000000  0.5991690000000 1.0
C      1  0.5017460000000  0.5448320000000  0.5822870000000 1.0
C      1  0.5137380000000  0.6047330000000  0.5167170000000 1.0
C      1  0.5113100000000  0.5854900000000  0.4294100000000 1.0
C      1  0.5824500000000  0.4358960000000  0.5058330000000 1.0
C      1  0.5818760000000  0.4645100000000  0.5447370000000 1.0
C      1  0.5784740000000  0.5115710000000  0.5404760000000 1.0
C      1  0.5819700000000  0.5532390000000  0.5192290000000 1.0
C      1  0.5819160000000  0.5556000000000  0.4704900000000 1.0
C      1  0.5797670000000  0.5122170000000  0.4478910000000 1.0
C      1  0.5812690000000  0.4605130000000  0.4629180000000 1.0
C      1  0.4640440000000  0.4295930000000  0.4438770000000 1.0
C      1  0.4563840000000  0.4147350000000  0.5092870000000 1.0
C      1  0.4562470000000  0.4509230000000  0.5746390000000 1.0
C      1  0.4551470000000  0.5178920000000  0.5741790000000 1.0
C      1  0.4586740000000  0.5982370000000  0.5325060000000 1.0
C      1  0.4512010000000  0.5852470000000  0.4644530000000 1.0
C      1  0.4529930000000  0.5229210000000  0.4265960000000 1.0
C      1  0.4441240000000  0.5603620000000  0.5084830000000 1.0
C      1  0.4299000000000  0.5427840000000  0.4643070000000 1.0
C      1  0.4422660000000  0.4987210000000  0.4411320000000 1.0
C      1  0.4343820000000  0.4549460000000  0.4676320000000 1.0
C      1  0.4291760000000  0.4490300000000  0.5146020000000 1.0
C      1  0.4316410000000  0.4784690000000  0.5509540000000 1.0
C      1  0.4426880000000  0.5288730000000  0.5514980000000 1.0
C      1  0.5284230000000  0.5057760000000  0.5803860000000 1.0
C      1  0.5276220000000  0.5710260000000  0.5440660000000 1.0
C      1  0.5289910000000  0.5858630000000  0.4723350000000 1.0
C      1  0.5268340000000  0.5340510000000  0.4196420000000 1.0
C      1  0.5281410000000  0.4545750000000  0.4332180000000 1.0
C      1  0.5302530000000  0.4082910000000  0.4927350000000 1.0
C      1  0.5269420000000  0.4372480000000  0.5604110000000 1.0
C      1  0.4928480000000  0.5110730000000  0.5084760000000 1.0
C      1  0.4997490000000  0.4951310000000  0.4807790000000 1.0
C      1  0.3946270000000  0.4777790000000  0.4900080000000 1.0
C      1  0.5533980000000  0.4997000000000  0.4904220000000 1.0
C      1  0.5875030000000  0.4976900000000  0.4914570000000 1.0
END
