TITL C-3577087-600-91 2.63645568216133e-07 125000 -230.314372461197 0 0 38 (C1) n - 1
REM
REM in /home/bkarasulu/work/CARBON/AIRSS/Generating-Clusters/EDIP-Nigel-Params/with-SteepDescent/Higher-Symm/SD-CG/HFTN-CG
REM
REM
REM
REM
REM
REM ./C.cell (12c818d87b63d06a65506943cc24bca4)
REM
REM compiler GCC version 9.2.1 20190827 (Red Hat 9.2.1-1)
REM options -cpp -mtune=generic -march=x86-64 -g -O0 -fpre-include=/usr/include/finclude/math-vector-fortran.h
REM seed -1298519776 284143777 1253358705 185037050 -348860612 619065876 -895857843 408497818 566525273 -1952940283 -841680792 1045391424 -1940997452 -1689538607 1684698707 -950298191 1400128114 1589088399 444676290 -1307473391 -1382887367 2076544657 1535996228 1010550876 -721807270 -1615644418 1501567785 380002968 750436913 1646284797 -1284534875 -1080803546 1763457969
REM
CELL 1.54180   50.00000   50.00000   50.00000   90.00000   90.00000   90.00000
LATT -1
SFAC C  
C      1  0.5278400000000  0.4674940000000  0.4469080000000 1.0
C      1  0.5111530000000  0.4603540000000  0.5222250000000 1.0
C      1  0.5171300000000  0.4933800000000  0.4474580000000 1.0
C      1  0.4683060000000  0.4388810000000  0.5148090000000 1.0
C      1  0.5523430000000  0.4826020000000  0.5307950000000 1.0
C      1  0.5586090000000  0.5142400000000  0.4593270000000 1.0
C      1  0.4642720000000  0.5103290000000  0.5449210000000 1.0
C      1  0.5198290000000  0.5412830000000  0.4638320000000 1.0
C      1  0.4553110000000  0.5431280000000  0.4892740000000 1.0
C      1  0.4959740000000  0.4729480000000  0.5450160000000 1.0
C      1  0.4896570000000  0.4869020000000  0.5040450000000 1.0
C      1  0.5151190000000  0.5553920000000  0.5155640000000 1.0
C      1  0.4652420000000  0.5433600000000  0.5153150000000 1.0
C      1  0.5367860000000  0.5514820000000  0.5324720000000 1.0
C      1  0.5344170000000  0.4772070000000  0.5085280000000 1.0
C      1  0.5103970000000  0.4979020000000  0.5538860000000 1.0
C      1  0.4940150000000  0.5343860000000  0.5204900000000 1.0
C      1  0.5463410000000  0.5292850000000  0.5442020000000 1.0
C      1  0.4955200000000  0.4392830000000  0.5068600000000 1.0
C      1  0.5010510000000  0.5130960000000  0.5005960000000 1.0
C      1  0.4880910000000  0.4919200000000  0.4535120000000 1.0
C      1  0.5264000000000  0.4512390000000  0.4696510000000 1.0
C      1  0.5208830000000  0.5558600000000  0.4879890000000 1.0
C      1  0.4762450000000  0.5188150000000  0.4542390000000 1.0
C      1  0.5388710000000  0.5024300000000  0.5459010000000 1.0
C      1  0.4521250000000  0.4722020000000  0.4854870000000 1.0
C      1  0.5284860000000  0.5053150000000  0.4947640000000 1.0
C      1  0.4946090000000  0.5401570000000  0.4515940000000 1.0
C      1  0.4919650000000  0.5211890000000  0.5490980000000 1.0
C      1  0.5451000000000  0.4582220000000  0.4896780000000 1.0
C      1  0.4529400000000  0.5215350000000  0.4717350000000 1.0
C      1  0.4979000000000  0.4472790000000  0.4784860000000 1.0
C      1  0.4481830000000  0.5299260000000  0.5329950000000 1.0
C      1  0.5320980000000  0.5134290000000  0.4656780000000 1.0
C      1  0.4532290000000  0.4628490000000  0.5141210000000 1.0
C      1  0.4709170000000  0.4836540000000  0.5302340000000 1.0
C      1  0.4814500000000  0.4734580000000  0.4776480000000 1.0
C      1  0.4411950000000  0.4975880000000  0.4806640000000 1.0
END
