TITL C-3578204-4308-520 -8.99119534695324e-08 125000 -322.23164474743 0 0 53 (C1) n - 1
REM
REM in /home/bkarasulu/work/CARBON/AIRSS/Generating-Clusters/EDIP-Nigel-Params/with-SteepDescent/Higher-Symm/SD-CG/HFTN-CG
REM
REM
REM
REM
REM
REM ./C.cell (12c818d87b63d06a65506943cc24bca4)
REM
REM compiler GCC version 9.2.1 20190827 (Red Hat 9.2.1-1)
REM options -cpp -mtune=generic -march=x86-64 -g -O0 -fpre-include=/usr/include/finclude/math-vector-fortran.h
REM seed -934425247 -1226378659 -1254087050 -1675284928 2133103363 -394531120 -1381406789 -1400139795 -628359410 2013616459 -1020969848 -191082347 -2060273900 -171384285 -1539150866 -638112955 501801874 1786320477 -521608098 880230877 196102350 660230692 -413603486 -2101232785 -1609684939 -1686896554 917394836 1420178594 -1629747307 1161526533 99789323 1017968496 258948737
REM
CELL 1.54180   50.00000   50.00000   50.00000   90.00000   90.00000   90.00000
LATT -1
SFAC C  
C      1  0.5407410000000  0.5597180000000  0.4788220000000 1.0
C      1  0.4618820000000  0.4439890000000  0.5202040000000 1.0
C      1  0.4850940000000  0.4499980000000  0.4748510000000 1.0
C      1  0.5139870000000  0.5471780000000  0.5212590000000 1.0
C      1  0.5395920000000  0.5330120000000  0.4698340000000 1.0
C      1  0.4608590000000  0.4698570000000  0.5315020000000 1.0
C      1  0.4420330000000  0.5304030000000  0.5450440000000 1.0
C      1  0.5567890000000  0.4706350000000  0.4571900000000 1.0
C      1  0.5093210000000  0.4385520000000  0.5142050000000 1.0
C      1  0.4906510000000  0.5642130000000  0.4826170000000 1.0
C      1  0.5616920000000  0.4828720000000  0.4821110000000 1.0
C      1  0.4439170000000  0.5177950000000  0.5197410000000 1.0
C      1  0.4958900000000  0.5088220000000  0.5406670000000 1.0
C      1  0.5080330000000  0.4956640000000  0.4664660000000 1.0
C      1  0.5120120000000  0.5240960000000  0.4658120000000 1.0
C      1  0.4873190000000  0.4808760000000  0.5376390000000 1.0
C      1  0.5235640000000  0.4600720000000  0.4987350000000 1.0
C      1  0.4709240000000  0.5546960000000  0.5020730000000 1.0
C      1  0.5319580000000  0.5094930000000  0.5648530000000 1.0
C      1  0.4723970000000  0.4887330000000  0.4354280000000 1.0
C      1  0.5092070000000  0.4659450000000  0.5491490000000 1.0
C      1  0.4917890000000  0.5355340000000  0.4488180000000 1.0
C      1  0.5410800000000  0.5343380000000  0.5549260000000 1.0
C      1  0.4589720000000  0.4649310000000  0.4420510000000 1.0
C      1  0.5062340000000  0.5121710000000  0.5777030000000 1.0
C      1  0.4956300000000  0.4832370000000  0.4206670000000 1.0
C      1  0.5529540000000  0.5186400000000  0.5150340000000 1.0
C      1  0.4466820000000  0.4812100000000  0.4872240000000 1.0
C      1  0.4845830000000  0.5621520000000  0.4549750000000 1.0
C      1  0.5120080000000  0.4389770000000  0.5420080000000 1.0
C      1  0.5165400000000  0.4493850000000  0.4707600000000 1.0
C      1  0.4845510000000  0.5496830000000  0.5273670000000 1.0
C      1  0.5567740000000  0.4782710000000  0.5323720000000 1.0
C      1  0.4476600000000  0.5210580000000  0.4683700000000 1.0
C      1  0.5323420000000  0.4845870000000  0.5479630000000 1.0
C      1  0.4710050000000  0.5143080000000  0.4512560000000 1.0
C      1  0.5314300000000  0.4622000000000  0.4482930000000 1.0
C      1  0.4684310000000  0.5393690000000  0.5498430000000 1.0
C      1  0.4518420000000  0.5332170000000  0.4956430000000 1.0
C      1  0.5529660000000  0.4653260000000  0.5052050000000 1.0
C      1  0.4820890000000  0.4359310000000  0.5022420000000 1.0
C      1  0.5176840000000  0.5623130000000  0.4950070000000 1.0
C      1  0.5163990000000  0.4851840000000  0.4393630000000 1.0
C      1  0.4835020000000  0.5283460000000  0.5721190000000 1.0
C      1  0.4778080000000  0.4800360000000  0.4782110000000 1.0
C      1  0.5199540000000  0.5149710000000  0.5183030000000 1.0
C      1  0.5565900000000  0.5132970000000  0.4862560000000 1.0
C      1  0.4430240000000  0.4880450000000  0.5158580000000 1.0
C      1  0.5312090000000  0.5565550000000  0.5426350000000 1.0
C      1  0.4679830000000  0.4413260000000  0.4528770000000 1.0
C      1  0.5715250000000  0.5024120000000  0.5299370000000 1.0
C      1  0.4307520000000  0.4983870000000  0.4707780000000 1.0
C      1  0.5080010000000  0.4875050000000  0.4990680000000 1.0
END
