TITL C-3578196-9646-734 -1.54957098878124e-06 125000 -288.211314291892 0 0 48 (C1) n - 1
REM
REM in /home/bkarasulu/work/CARBON/AIRSS/Generating-Clusters/EDIP-Nigel-Params/with-SteepDescent/Higher-Symm/SD-CG/HFTN-CG
REM
REM
REM
REM
REM
REM ./C.cell (12c818d87b63d06a65506943cc24bca4)
REM
REM compiler GCC version 9.2.1 20190827 (Red Hat 9.2.1-1)
REM options -cpp -mtune=generic -march=x86-64 -g -O0 -fpre-include=/usr/include/finclude/math-vector-fortran.h
REM seed -1988933502 -615995101 743220669 -776780376 -779101136 1972203248 557282609 -484286805 234619468 1498898286 1682937085 935674671 867905318 -1378998440 -56094 327999123 -1698906512 294478422 1325373301 1805846152 2021869138 -1526375067 -1156192999 210242843 -1953404340 -1263436769 -1271962346 -1403233681 -1152582148 1586820341 -538857561 2081996866 -1380781662
REM
CELL 1.54180   50.00000   50.00000   50.00000   90.00000   90.00000   90.00000
LATT -1
SFAC C  
C      1  0.5412390000000  0.5338820000000  0.4921960000000 1.0
C      1  0.4766640000000  0.5726530000000  0.4942340000000 1.0
C      1  0.5457080000000  0.4906930000000  0.4636190000000 1.0
C      1  0.5343240000000  0.4436240000000  0.4694050000000 1.0
C      1  0.4741980000000  0.5281960000000  0.4569000000000 1.0
C      1  0.5626810000000  0.5246860000000  0.5097710000000 1.0
C      1  0.5105600000000  0.4594860000000  0.5397900000000 1.0
C      1  0.4735530000000  0.5361410000000  0.5561720000000 1.0
C      1  0.5231490000000  0.5251470000000  0.5256440000000 1.0
C      1  0.5129560000000  0.4730450000000  0.4347920000000 1.0
C      1  0.4652670000000  0.5134380000000  0.4826100000000 1.0
C      1  0.4513670000000  0.5311420000000  0.5029460000000 1.0
C      1  0.4702940000000  0.5118760000000  0.5384320000000 1.0
C      1  0.5025060000000  0.5357570000000  0.4599940000000 1.0
C      1  0.4616750000000  0.5569820000000  0.5123220000000 1.0
C      1  0.5023460000000  0.5346460000000  0.5640890000000 1.0
C      1  0.4990130000000  0.4806970000000  0.5592390000000 1.0
C      1  0.4495850000000  0.4867110000000  0.4826720000000 1.0
C      1  0.5158920000000  0.4690730000000  0.4884940000000 1.0
C      1  0.5143840000000  0.5429160000000  0.4859110000000 1.0
C      1  0.4766760000000  0.5093170000000  0.4346000000000 1.0
C      1  0.4890890000000  0.4290550000000  0.5058920000000 1.0
C      1  0.4831070000000  0.4417510000000  0.4830180000000 1.0
C      1  0.4443540000000  0.5148720000000  0.5245830000000 1.0
C      1  0.5192920000000  0.5486730000000  0.5432490000000 1.0
C      1  0.5374730000000  0.4659940000000  0.4499510000000 1.0
C      1  0.5097960000000  0.5698380000000  0.5273580000000 1.0
C      1  0.5441450000000  0.5085990000000  0.5392450000000 1.0
C      1  0.5673970000000  0.4872490000000  0.4805590000000 1.0
C      1  0.4961600000000  0.5111210000000  0.5209890000000 1.0
C      1  0.5716230000000  0.4968740000000  0.5063530000000 1.0
C      1  0.4744820000000  0.4510860000000  0.4582560000000 1.0
C      1  0.5098490000000  0.5066630000000  0.5661480000000 1.0
C      1  0.4656950000000  0.5587390000000  0.5405760000000 1.0
C      1  0.5033110000000  0.5662610000000  0.5001000000000 1.0
C      1  0.4540220000000  0.4719620000000  0.4576510000000 1.0
C      1  0.5055250000000  0.5019370000000  0.4402260000000 1.0
C      1  0.5325770000000  0.4650150000000  0.5180790000000 1.0
C      1  0.5183330000000  0.4996270000000  0.4765160000000 1.0
C      1  0.4494160000000  0.4720490000000  0.5071590000000 1.0
C      1  0.4631400000000  0.4637360000000  0.5307920000000 1.0
C      1  0.4919800000000  0.5055240000000  0.4936240000000 1.0
C      1  0.4870640000000  0.4470860000000  0.5271880000000 1.0
C      1  0.4929420000000  0.4534730000000  0.4373600000000 1.0
C      1  0.5434320000000  0.4444310000000  0.4974450000000 1.0
C      1  0.5541850000000  0.4846160000000  0.5267920000000 1.0
C      1  0.4571770000000  0.4891820000000  0.4357160000000 1.0
C      1  0.4703990000000  0.4844800000000  0.5513440000000 1.0
END
