TITL C-3577088-510-287 -8.46498184991823e-07 125000 -106.60931371615 0 0 18 (D2) n - 1
REM
REM in /home/bkarasulu/work/CARBON/AIRSS/Generating-Clusters/EDIP-Nigel-Params/with-SteepDescent/Higher-Symm/SD-CG/HFTN-CG
REM
REM
REM
REM
REM
REM ./C.cell (12c818d87b63d06a65506943cc24bca4)
REM
REM compiler GCC version 9.2.1 20190827 (Red Hat 9.2.1-1)
REM options -cpp -mtune=generic -march=x86-64 -g -O0 -fpre-include=/usr/include/finclude/math-vector-fortran.h
REM seed -755211729 -1104405192 -576770851 -7308839 -985261133 -1480186646 1778558726 1090697505 2047026074 -1591826069 5106636 -833219366 413075951 -1069809022 353472296 -1272476048 2120259218 -2127636242 1393460078 2021388997 -530211886 -1392048253 -919839050 -19366794 1993576106 -206847095 1686269222 1854770121 -835809128 1334120197 508164396 -1180544060 1330949497
REM
CELL 1.54180   50.00000   50.00000   50.00000   90.00000   90.00000   90.00000
LATT -1
SFAC C  
C      1  0.5334960000000  0.5185530000000  0.4946410000000 1.0
C      1  0.5085040000000  0.5207820000000  0.5369750000000 1.0
C      1  0.4655110000000  0.5160640000000  0.5067460000000 1.0
C      1  0.4902710000000  0.5202210000000  0.4644210000000 1.0
C      1  0.4666280000000  0.4882070000000  0.4940440000000 1.0
C      1  0.4909260000000  0.4858320000000  0.5367720000000 1.0
C      1  0.5344060000000  0.4906520000000  0.5072650000000 1.0
C      1  0.5103400000000  0.4866400000000  0.4645280000000 1.0
C      1  0.5221380000000  0.5159670000000  0.4665770000000 1.0
C      1  0.5174350000000  0.5364090000000  0.5127260000000 1.0
C      1  0.4770300000000  0.5142310000000  0.5348040000000 1.0
C      1  0.4802310000000  0.5350900000000  0.4887120000000 1.0
C      1  0.4784430000000  0.4908870000000  0.4661780000000 1.0
C      1  0.4823920000000  0.4702880000000  0.5123280000000 1.0
C      1  0.5224310000000  0.4923900000000  0.5351370000000 1.0
C      1  0.5199830000000  0.4716880000000  0.4889290000000 1.0
C      1  0.4981990000000  0.5531840000000  0.5007440000000 1.0
C      1  0.5018220000000  0.4535540000000  0.5006040000000 1.0
END
