TITL C-3578195-8548-51 -5.30722118282149e-07 125000 -821.584702685621 0 0 130 (C1) n - 1
REM
REM in /home/bkarasulu/work/CARBON/AIRSS/Generating-Clusters/EDIP-Nigel-Params/with-SteepDescent/Higher-Symm/SD-CG/HFTN-CG
REM
REM
REM
REM
REM
REM ./C.cell (12c818d87b63d06a65506943cc24bca4)
REM
REM compiler GCC version 9.2.1 20190827 (Red Hat 9.2.1-1)
REM options -cpp -mtune=generic -march=x86-64 -g -O0 -fpre-include=/usr/include/finclude/math-vector-fortran.h
REM seed 923526093 -1763013447 -1000841661 659317279 -2008422521 -1802513391 577199883 1755365878 -1297214255 -1427283000 -1972997442 1944699214 1247589164 436430793 1740988029 540750917 752044116 838600724 2067883567 2033240752 1453839285 560460731 -1723595918 1512713242 1596257141 -1255660779 630685649 1200228906 1432578810 700084589 -1682563149 -2080924470 -288492691
REM
CELL 1.54180   50.00000   50.00000   50.00000   90.00000   90.00000   90.00000
LATT -1
SFAC C  
C      1  0.4753060000000  0.4133390000000  0.5334790000000 1.0
C      1  0.5821920000000  0.5179770000000  0.5313410000000 1.0
C      1  0.4429540000000  0.5622380000000  0.5354120000000 1.0
C      1  0.5110850000000  0.5492850000000  0.4841810000000 1.0
C      1  0.4525580000000  0.4946650000000  0.4833050000000 1.0
C      1  0.5261860000000  0.4611920000000  0.5004680000000 1.0
C      1  0.5497730000000  0.5488900000000  0.5511580000000 1.0
C      1  0.4405140000000  0.5184170000000  0.5535230000000 1.0
C      1  0.5159910000000  0.4260000000000  0.5607770000000 1.0
C      1  0.4274890000000  0.4909600000000  0.5623890000000 1.0
C      1  0.5505850000000  0.4359580000000  0.5694140000000 1.0
C      1  0.5353230000000  0.5746670000000  0.5653320000000 1.0
C      1  0.5204490000000  0.5255450000000  0.6026920000000 1.0
C      1  0.4731540000000  0.5009530000000  0.5942730000000 1.0
C      1  0.5145480000000  0.4670940000000  0.6046840000000 1.0
C      1  0.4250670000000  0.5358280000000  0.4932940000000 1.0
C      1  0.5011920000000  0.4238940000000  0.4997480000000 1.0
C      1  0.5582230000000  0.5448430000000  0.4999920000000 1.0
C      1  0.4788720000000  0.4888580000000  0.5401450000000 1.0
C      1  0.5164230000000  0.4761350000000  0.5596630000000 1.0
C      1  0.5099470000000  0.5250380000000  0.5525150000000 1.0
C      1  0.5839440000000  0.4587240000000  0.4880960000000 1.0
C      1  0.4913760000000  0.5976110000000  0.4898310000000 1.0
C      1  0.4234000000000  0.4436120000000  0.4867270000000 1.0
C      1  0.4479770000000  0.5440290000000  0.4160740000000 1.0
C      1  0.4841580000000  0.4410330000000  0.4247760000000 1.0
C      1  0.5649760000000  0.5229120000000  0.4204460000000 1.0
C      1  0.5573340000000  0.5681160000000  0.4801230000000 1.0
C      1  0.4111710000000  0.5168190000000  0.4734980000000 1.0
C      1  0.5244660000000  0.4177590000000  0.4811930000000 1.0
C      1  0.5417520000000  0.4205640000000  0.5239960000000 1.0
C      1  0.5432010000000  0.5930760000000  0.5192770000000 1.0
C      1  0.4151830000000  0.5013860000000  0.5184650000000 1.0
C      1  0.4220810000000  0.5620630000000  0.4523610000000 1.0
C      1  0.4818470000000  0.4093370000000  0.4589990000000 1.0
C      1  0.5863140000000  0.5304940000000  0.4619480000000 1.0
C      1  0.5719330000000  0.4773020000000  0.5588150000000 1.0
C      1  0.4862360000000  0.5755860000000  0.5621700000000 1.0
C      1  0.4459810000000  0.4466450000000  0.5573830000000 1.0
C      1  0.5277060000000  0.4609480000000  0.4266330000000 1.0
C      1  0.5233150000000  0.5501150000000  0.4219920000000 1.0
C      1  0.4362990000000  0.4968910000000  0.4138020000000 1.0
C      1  0.5172910000000  0.4510400000000  0.5446870000000 1.0
C      1  0.5221230000000  0.5459460000000  0.5355960000000 1.0
C      1  0.4608880000000  0.5117690000000  0.5326970000000 1.0
C      1  0.5937960000000  0.4988680000000  0.5112910000000 1.0
C      1  0.4570860000000  0.5758230000000  0.5140060000000 1.0
C      1  0.4544470000000  0.4153720000000  0.5109260000000 1.0
C      1  0.5318890000000  0.4865900000000  0.4559400000000 1.0
C      1  0.5133380000000  0.5076330000000  0.4440740000000 1.0
C      1  0.4842280000000  0.4944270000000  0.4466320000000 1.0
C      1  0.4683230000000  0.5914490000000  0.4709600000000 1.0
C      1  0.4310360000000  0.4232670000000  0.4673210000000 1.0
C      1  0.5956260000000  0.4773390000000  0.4680130000000 1.0
C      1  0.5236920000000  0.5373870000000  0.4585590000000 1.0
C      1  0.4576310000000  0.5106190000000  0.4576940000000 1.0
C      1  0.5170200000000  0.4624690000000  0.4697050000000 1.0
C      1  0.4908330000000  0.4581830000000  0.5911940000000 1.0
C      1  0.5384110000000  0.5092070000000  0.5897210000000 1.0
C      1  0.4759270000000  0.5277520000000  0.5898200000000 1.0
C      1  0.4278300000000  0.5136920000000  0.4464210000000 1.0
C      1  0.5235660000000  0.4345960000000  0.4553370000000 1.0
C      1  0.5478800000000  0.5574060000000  0.4516080000000 1.0
C      1  0.4508220000000  0.4062740000000  0.4818910000000 1.0
C      1  0.6025160000000  0.5023100000000  0.4826540000000 1.0
C      1  0.4467660000000  0.5800020000000  0.4878040000000 1.0
C      1  0.4951160000000  0.5410090000000  0.4161450000000 1.0
C      1  0.4545860000000  0.4750640000000  0.4165450000000 1.0
C      1  0.5423500000000  0.4829700000000  0.4140330000000 1.0
C      1  0.4757290000000  0.5729650000000  0.4492950000000 1.0
C      1  0.4366480000000  0.4323950000000  0.4412620000000 1.0
C      1  0.5848240000000  0.4795170000000  0.4420430000000 1.0
C      1  0.4800250000000  0.4316820000000  0.4793290000000 1.0
C      1  0.5684710000000  0.5208610000000  0.4838570000000 1.0
C      1  0.4391630000000  0.5549940000000  0.4746560000000 1.0
C      1  0.5546000000000  0.5237650000000  0.5700040000000 1.0
C      1  0.4536010000000  0.5373220000000  0.5743000000000 1.0
C      1  0.4911780000000  0.4318780000000  0.5774080000000 1.0
C      1  0.4226840000000  0.4711580000000  0.4785680000000 1.0
C      1  0.5583410000000  0.4465500000000  0.4846720000000 1.0
C      1  0.5144150000000  0.5804660000000  0.4815300000000 1.0
C      1  0.5726710000000  0.5065930000000  0.5561930000000 1.0
C      1  0.4606930000000  0.5602800000000  0.5586120000000 1.0
C      1  0.4693240000000  0.4290420000000  0.5575920000000 1.0
C      1  0.5327760000000  0.4853420000000  0.5196850000000 1.0
C      1  0.4854100000000  0.5337810000000  0.4875260000000 1.0
C      1  0.4768730000000  0.4678470000000  0.5181550000000 1.0
C      1  0.5318190000000  0.4794850000000  0.5849370000000 1.0
C      1  0.5037490000000  0.5357550000000  0.5812290000000 1.0
C      1  0.4734330000000  0.4788670000000  0.5769020000000 1.0
C      1  0.4410130000000  0.4581510000000  0.5308770000000 1.0
C      1  0.5636960000000  0.4654150000000  0.5330850000000 1.0
C      1  0.5010660000000  0.5791310000000  0.5371850000000 1.0
C      1  0.5292480000000  0.5375880000000  0.5064850000000 1.0
C      1  0.4486320000000  0.5156350000000  0.5042040000000 1.0
C      1  0.5037060000000  0.4498950000000  0.5176120000000 1.0
C      1  0.4994040000000  0.4223210000000  0.4408090000000 1.0
C      1  0.5720960000000  0.5430130000000  0.4406930000000 1.0
C      1  0.4255870000000  0.5410900000000  0.4345140000000 1.0
C      1  0.4242600000000  0.5372240000000  0.5324660000000 1.0
C      1  0.5067700000000  0.4089320000000  0.5351690000000 1.0
C      1  0.5712610000000  0.5456470000000  0.5275560000000 1.0
C      1  0.5588040000000  0.4363050000000  0.5410350000000 1.0
C      1  0.5272210000000  0.5923780000000  0.5421200000000 1.0
C      1  0.4199030000000  0.4790810000000  0.5365180000000 1.0
C      1  0.5391890000000  0.5300660000000  0.4078110000000 1.0
C      1  0.4534710000000  0.5184860000000  0.4025420000000 1.0
C      1  0.5007040000000  0.4622560000000  0.4147740000000 1.0
C      1  0.4819580000000  0.4860610000000  0.4178710000000 1.0
C      1  0.5221820000000  0.5060960000000  0.4128300000000 1.0
C      1  0.4851650000000  0.5149320000000  0.4015850000000 1.0
C      1  0.4453570000000  0.4699300000000  0.5752560000000 1.0
C      1  0.5568240000000  0.4631800000000  0.5806720000000 1.0
C      1  0.5083870000000  0.5658930000000  0.5794110000000 1.0
C      1  0.4089210000000  0.4934280000000  0.4904260000000 1.0
C      1  0.5478270000000  0.4228440000000  0.4962280000000 1.0
C      1  0.5408480000000  0.5894810000000  0.4914240000000 1.0
C      1  0.4556820000000  0.4478980000000  0.4277220000000 1.0
C      1  0.5651280000000  0.4942210000000  0.4282010000000 1.0
C      1  0.4729190000000  0.5558370000000  0.4262340000000 1.0
C      1  0.4867380000000  0.4634060000000  0.4688280000000 1.0
C      1  0.5442860000000  0.5033840000000  0.4775810000000 1.0
C      1  0.4655250000000  0.5393030000000  0.4661640000000 1.0
C      1  0.4966360000000  0.5063320000000  0.4909460000000 1.0
C      1  0.4783770000000  0.4824110000000  0.4910570000000 1.0
C      1  0.5255410000000  0.5075260000000  0.4997820000000 1.0
C      1  0.4343920000000  0.4364690000000  0.5126830000000 1.0
C      1  0.5861670000000  0.4708060000000  0.5144040000000 1.0
C      1  0.4820610000000  0.5899400000000  0.5169850000000 1.0
C      1  0.5084730000000  0.4971220000000  0.5413440000000 1.0
END
