TITL C-3578195-8548-128 3.44882292721175e-06 125000 -101.475947400812 0 0 19 (C1) n - 1
REM
REM in /home/bkarasulu/work/CARBON/AIRSS/Generating-Clusters/EDIP-Nigel-Params/with-SteepDescent/Higher-Symm/SD-CG/HFTN-CG
REM
REM
REM
REM
REM
REM ./C.cell (12c818d87b63d06a65506943cc24bca4)
REM
REM compiler GCC version 9.2.1 20190827 (Red Hat 9.2.1-1)
REM options -cpp -mtune=generic -march=x86-64 -g -O0 -fpre-include=/usr/include/finclude/math-vector-fortran.h
REM seed 1706369199 774309981 106300982 1555402420 884315290 -554151215 853067542 953174733 130165520 -819158456 -977674403 -919687901 -1190266054 407604927 -1149148696 491499553 -1188470858 -486098042 1787641117 570558190 268139794 -959210124 220565936 1843768821 1595664447 1694076429 370400141 -1691475255 -334653782 1578667549 -518404859 1350430728 -1266116139
REM
CELL 1.54180   50.00000   50.00000   50.00000   90.00000   90.00000   90.00000
LATT -1
SFAC C  
C      1  0.4451310000000  0.4946740000000  0.4650320000000 1.0
C      1  0.4406040000000  0.5209920000000  0.4749100000000 1.0
C      1  0.4348880000000  0.5236740000000  0.5035280000000 1.0
C      1  0.4578380000000  0.5170040000000  0.5209040000000 1.0
C      1  0.4576650000000  0.4881790000000  0.5290730000000 1.0
C      1  0.4653970000000  0.4730060000000  0.5044020000000 1.0
C      1  0.4436310000000  0.4727420000000  0.4844120000000 1.0
C      1  0.5419410000000  0.5135340000000  0.5254190000000 1.0
C      1  0.5174050000000  0.4970560000000  0.5261080000000 1.0
C      1  0.5213080000000  0.4724290000000  0.5117710000000 1.0
C      1  0.5227620000000  0.4744190000000  0.4840160000000 1.0
C      1  0.5203210000000  0.5008200000000  0.4728600000000 1.0
C      1  0.5445300000000  0.5168140000000  0.4785270000000 1.0
C      1  0.5403760000000  0.5334030000000  0.5030910000000 1.0
C      1  0.4262820000000  0.4939340000000  0.4993970000000 1.0
C      1  0.5827770000000  0.4978600000000  0.5029480000000 1.0
C      1  0.4737010000000  0.5030550000000  0.4968630000000 1.0
C      1  0.5043420000000  0.5077880000000  0.4992620000000 1.0
C      1  0.5555810000000  0.4973820000000  0.5014080000000 1.0
END
