TITL C-3578201-9217-681 -0.00793513988869568 125000 -110.089266325198 0 0 23 (C1) n - 1
REM
REM in /home/bkarasulu/work/CARBON/AIRSS/Generating-Clusters/EDIP-Nigel-Params/with-SteepDescent/Higher-Symm/SD-CG/HFTN-CG
REM
REM
REM
REM
REM
REM ./C.cell (12c818d87b63d06a65506943cc24bca4)
REM
REM compiler GCC version 9.2.1 20190827 (Red Hat 9.2.1-1)
REM options -cpp -mtune=generic -march=x86-64 -g -O0 -fpre-include=/usr/include/finclude/math-vector-fortran.h
REM seed -1395493363 1089058992 2118640328 -1730830705 1350829364 -314305589 -626781348 398846041 209599011 243418847 -1845901236 -161193315 1798146698 1436530245 -198015904 -894386208 1633657121 234409069 -1339990971 -1095004576 -933048502 -1621524038 86766683 481034788 -1730095453 -692462314 -2034871284 -1689828689 -115074627 -777783202 -561379347 -948148091 810393452
REM
CELL 1.54180   50.00000   50.00000   50.00000   90.00000   90.00000   90.00000
LATT -1
SFAC C  
C      1  0.4823470000000  0.4543960000000  0.5234000000000 1.0
C      1  0.4530450000000  0.4996890000000  0.4844590000000 1.0
C      1  0.5209690000000  0.4585730000000  0.4727650000000 1.0
C      1  0.5480690000000  0.5064020000000  0.5084460000000 1.0
C      1  0.5169490000000  0.4808830000000  0.5438100000000 1.0
C      1  0.5196710000000  0.5410990000000  0.4936110000000 1.0
C      1  0.4964280000000  0.4916370000000  0.4496210000000 1.0
C      1  0.4701130000000  0.5313530000000  0.5151350000000 1.0
C      1  0.4358920000000  0.4878400000000  0.4695510000000 1.0
C      1  0.5352530000000  0.4375760000000  0.4759710000000 1.0
C      1  0.5704290000000  0.4957370000000  0.5149850000000 1.0
C      1  0.4828670000000  0.4381730000000  0.5442300000000 1.0
C      1  0.5148150000000  0.5660230000000  0.4862270000000 1.0
C      1  0.4861510000000  0.5039150000000  0.4296320000000 1.0
C      1  0.4697900000000  0.5513700000000  0.5311150000000 1.0
C      1  0.5316740000000  0.4869320000000  0.5639210000000 1.0
C      1  0.5044910000000  0.4804960000000  0.4733740000000 1.0
C      1  0.5227830000000  0.5152890000000  0.5024510000000 1.0
C      1  0.5005230000000  0.4763990000000  0.5222190000000 1.0
C      1  0.4744090000000  0.5102240000000  0.4981450000000 1.0
C      1  0.4658880000000  0.4492810000000  0.5033930000000 1.0
C      1  0.5111710000000  0.5901060000000  0.4784430000000 1.0
C      1  0.5005120000000  0.4955210000000  0.4990400000000 1.0
END
