TITL C-3577083-591-739 -2.58253770404227e-06 125000 -71.2772268048857 0 0 13 (C1) n - 1
REM
REM in /home/bkarasulu/work/CARBON/AIRSS/Generating-Clusters/EDIP-Nigel-Params/with-SteepDescent/Higher-Symm/SD-CG/HFTN-CG
REM
REM
REM
REM
REM
REM ./C.cell (12c818d87b63d06a65506943cc24bca4)
REM
REM compiler GCC version 9.2.1 20190827 (Red Hat 9.2.1-1)
REM options -cpp -mtune=generic -march=x86-64 -g -O0 -fpre-include=/usr/include/finclude/math-vector-fortran.h
REM seed -1895054825 1941358733 200387401 2073633323 1912679059 825525277 197848316 162306217 -197161863 -29983293 1074932815 1642056812 -1637123437 405799881 1993226555 -640596782 -2069708939 -541902227 -2026928234 247195571 -1846369518 1892197550 -1072921419 1383927551 -1702570756 -1356792126 -922697764 1537919641 -1434325002 757812926 41554204 -1942197589 75630790
REM
CELL 1.54180   50.00000   50.00000   50.00000   90.00000   90.00000   90.00000
LATT -1
SFAC C  
C      1  0.5576850000000  0.5018020000000  0.4861310000000 1.0
C      1  0.5545710000000  0.5094230000000  0.5311590000000 1.0
C      1  0.5165140000000  0.4944060000000  0.5014200000000 1.0
C      1  0.4707120000000  0.4836400000000  0.4778650000000 1.0
C      1  0.4677060000000  0.4903200000000  0.5206380000000 1.0
C      1  0.4377850000000  0.5084780000000  0.4936850000000 1.0
C      1  0.5703020000000  0.5085370000000  0.5090770000000 1.0
C      1  0.5290980000000  0.5027570000000  0.5248080000000 1.0
C      1  0.5324850000000  0.4955830000000  0.4785180000000 1.0
C      1  0.4623160000000  0.4669850000000  0.5018900000000 1.0
C      1  0.4445090000000  0.5067740000000  0.5203350000000 1.0
C      1  0.4480480000000  0.4989110000000  0.4699900000000 1.0
C      1  0.4883710000000  0.5006970000000  0.4984560000000 1.0
END
