TITL C-3577085-527-438 1.9333591209689e-07 125000 -1219.28478275028 0 0 192 (C1) n - 1
REM
REM in /home/bkarasulu/work/CARBON/AIRSS/Generating-Clusters/EDIP-Nigel-Params/with-SteepDescent/Higher-Symm/SD-CG/HFTN-CG
REM
REM
REM
REM
REM
REM ./C.cell (12c818d87b63d06a65506943cc24bca4)
REM
REM compiler GCC version 9.2.1 20190827 (Red Hat 9.2.1-1)
REM options -cpp -mtune=generic -march=x86-64 -g -O0 -fpre-include=/usr/include/finclude/math-vector-fortran.h
REM seed -129069059 1603982622 1669165585 -840307808 -1582773679 -547989289 1814921253 -774669087 1431650459 758079439 1105158232 1400925158 -1620935619 347219448 -905677601 -181981804 -453173469 1017997808 -268886639 1756573928 141905500 125959894 -1235831575 -1476748569 117824202 1701307487 1527505232 -963551656 -1182080733 -1908969635 617558502 111912093 1525936386
REM
CELL 1.54180   50.00000   50.00000   50.00000   90.00000   90.00000   90.00000
LATT -1
SFAC C  
C      1  0.4464470000000  0.4353740000000  0.4267510000000 1.0
C      1  0.4460450000000  0.5473430000000  0.4156580000000 1.0
C      1  0.4523790000000  0.6057900000000  0.5190590000000 1.0
C      1  0.4555750000000  0.5208390000000  0.6002170000000 1.0
C      1  0.4549920000000  0.4049830000000  0.5543000000000 1.0
C      1  0.5165260000000  0.4293980000000  0.4110600000000 1.0
C      1  0.5136920000000  0.5599580000000  0.4088550000000 1.0
C      1  0.5234940000000  0.6080220000000  0.5350920000000 1.0
C      1  0.5203230000000  0.5111920000000  0.6096840000000 1.0
C      1  0.5156670000000  0.3978140000000  0.5421860000000 1.0
C      1  0.5586840000000  0.4399760000000  0.5822130000000 1.0
C      1  0.5543950000000  0.3997160000000  0.4621190000000 1.0
C      1  0.5540110000000  0.5014350000000  0.4010980000000 1.0
C      1  0.5560130000000  0.5984660000000  0.4713970000000 1.0
C      1  0.5609880000000  0.5619260000000  0.5841410000000 1.0
C      1  0.5944860000000  0.4782980000000  0.4550440000000 1.0
C      1  0.5963810000000  0.5387550000000  0.4660680000000 1.0
C      1  0.5994710000000  0.5467020000000  0.5256990000000 1.0
C      1  0.6057850000000  0.4907560000000  0.5628790000000 1.0
C      1  0.5987440000000  0.4387030000000  0.5015320000000 1.0
C      1  0.5010490000000  0.5276310000000  0.5080330000000 1.0
C      1  0.5030590000000  0.5050470000000  0.5309910000000 1.0
C      1  0.5063450000000  0.4757280000000  0.5156490000000 1.0
C      1  0.5067080000000  0.4835910000000  0.4865690000000 1.0
C      1  0.5043240000000  0.5125650000000  0.4806690000000 1.0
C      1  0.4326680000000  0.4491140000000  0.5423810000000 1.0
C      1  0.4115970000000  0.4313160000000  0.4614230000000 1.0
C      1  0.4050900000000  0.5136540000000  0.4184140000000 1.0
C      1  0.4257540000000  0.5685740000000  0.4976920000000 1.0
C      1  0.4208360000000  0.5222350000000  0.5623520000000 1.0
C      1  0.3697400000000  0.5191210000000  0.4914770000000 1.0
C      1  0.3613800000000  0.4976950000000  0.5080610000000 1.0
C      1  0.3761190000000  0.4759460000000  0.4970630000000 1.0
C      1  0.3732560000000  0.4785000000000  0.4675200000000 1.0
C      1  0.3690110000000  0.5085500000000  0.4630120000000 1.0
C      1  0.5561610000000  0.5110440000000  0.4762940000000 1.0
C      1  0.5608490000000  0.5272060000000  0.5014220000000 1.0
C      1  0.5776130000000  0.5035880000000  0.5267550000000 1.0
C      1  0.5753530000000  0.4598870000000  0.5371360000000 1.0
C      1  0.5597240000000  0.4777180000000  0.4903080000000 1.0
C      1  0.5417630000000  0.4351240000000  0.5589520000000 1.0
C      1  0.5352190000000  0.4196740000000  0.4542840000000 1.0
C      1  0.5339910000000  0.5178420000000  0.4136460000000 1.0
C      1  0.5382630000000  0.5899150000000  0.4925280000000 1.0
C      1  0.5410550000000  0.5410810000000  0.5830050000000 1.0
C      1  0.5410530000000  0.4337030000000  0.4275590000000 1.0
C      1  0.5400500000000  0.5478980000000  0.4168140000000 1.0
C      1  0.5458730000000  0.5971260000000  0.5214900000000 1.0
C      1  0.5469260000000  0.5145920000000  0.5976410000000 1.0
C      1  0.5427740000000  0.4098020000000  0.5407170000000 1.0
C      1  0.4316770000000  0.4194320000000  0.5457570000000 1.0
C      1  0.4181510000000  0.4371190000000  0.4334570000000 1.0
C      1  0.4166100000000  0.5428670000000  0.4174570000000 1.0
C      1  0.4314770000000  0.5853700000000  0.5228800000000 1.0
C      1  0.4334500000000  0.5079610000000  0.5858500000000 1.0
C      1  0.6284110000000  0.4908080000000  0.5441960000000 1.0
C      1  0.6196900000000  0.4592920000000  0.5030660000000 1.0
C      1  0.6214400000000  0.4823930000000  0.4650930000000 1.0
C      1  0.6230320000000  0.5294280000000  0.4726520000000 1.0
C      1  0.6239990000000  0.5337860000000  0.5170040000000 1.0
C      1  0.4045470000000  0.4637650000000  0.4276410000000 1.0
C      1  0.4036240000000  0.5586130000000  0.4406390000000 1.0
C      1  0.3996350000000  0.5544260000000  0.5350140000000 1.0
C      1  0.4007470000000  0.4800320000000  0.5588960000000 1.0
C      1  0.4089570000000  0.4281340000000  0.5070050000000 1.0
C      1  0.4024010000000  0.5052700000000  0.5470370000000 1.0
C      1  0.4141620000000  0.4527330000000  0.5186510000000 1.0
C      1  0.4001580000000  0.4679340000000  0.4586700000000 1.0
C      1  0.3920900000000  0.5228120000000  0.4475150000000 1.0
C      1  0.4028830000000  0.5527070000000  0.5073670000000 1.0
C      1  0.5727500000000  0.5641780000000  0.5588010000000 1.0
C      1  0.5716460000000  0.4651580000000  0.5847210000000 1.0
C      1  0.5680760000000  0.4105610000000  0.4837940000000 1.0
C      1  0.5670030000000  0.4837030000000  0.4184270000000 1.0
C      1  0.5686910000000  0.5761070000000  0.4596700000000 1.0
C      1  0.4627080000000  0.4146460000000  0.4398320000000 1.0
C      1  0.4629170000000  0.5276480000000  0.4032230000000 1.0
C      1  0.4662170000000  0.5922140000000  0.4967900000000 1.0
C      1  0.4691130000000  0.5401160000000  0.5821180000000 1.0
C      1  0.4702270000000  0.4276810000000  0.5656810000000 1.0
C      1  0.5143530000000  0.5510400000000  0.5916940000000 1.0
C      1  0.5143200000000  0.4341470000000  0.5678510000000 1.0
C      1  0.5086010000000  0.4066090000000  0.4519130000000 1.0
C      1  0.5087150000000  0.5171250000000  0.3982450000000 1.0
C      1  0.5108310000000  0.6004910000000  0.4886430000000 1.0
C      1  0.5232850000000  0.5461400000000  0.5117260000000 1.0
C      1  0.5299800000000  0.5081700000000  0.5433630000000 1.0
C      1  0.5341030000000  0.4625510000000  0.5142870000000 1.0
C      1  0.5140120000000  0.4637680000000  0.4652160000000 1.0
C      1  0.5282850000000  0.5200070000000  0.4653280000000 1.0
C      1  0.4222420000000  0.4866750000000  0.4181020000000 1.0
C      1  0.4259160000000  0.5696350000000  0.4622600000000 1.0
C      1  0.4182300000000  0.5512790000000  0.5558930000000 1.0
C      1  0.4219000000000  0.4635330000000  0.5660700000000 1.0
C      1  0.4183830000000  0.4148540000000  0.4846520000000 1.0
C      1  0.4876940000000  0.4521290000000  0.4564870000000 1.0
C      1  0.4859560000000  0.5225220000000  0.4472940000000 1.0
C      1  0.4796000000000  0.5523910000000  0.5110030000000 1.0
C      1  0.4821230000000  0.5081460000000  0.5544020000000 1.0
C      1  0.4864290000000  0.4507400000000  0.5271580000000 1.0
C      1  0.4615550000000  0.4640640000000  0.5379530000000 1.0
C      1  0.4708950000000  0.4511620000000  0.4813160000000 1.0
C      1  0.4655590000000  0.4980620000000  0.4475340000000 1.0
C      1  0.4588420000000  0.5486700000000  0.4902830000000 1.0
C      1  0.4599950000000  0.5232780000000  0.5422480000000 1.0
C      1  0.4629430000000  0.4994130000000  0.4771520000000 1.0
C      1  0.4508750000000  0.5206410000000  0.4928960000000 1.0
C      1  0.4438600000000  0.5094810000000  0.5192970000000 1.0
C      1  0.4544100000000  0.4823660000000  0.5171580000000 1.0
C      1  0.4575820000000  0.4750330000000  0.4899120000000 1.0
C      1  0.6349080000000  0.4634010000000  0.4802270000000 1.0
C      1  0.6333530000000  0.5068850000000  0.4600510000000 1.0
C      1  0.6369310000000  0.5414760000000  0.4934650000000 1.0
C      1  0.6358460000000  0.5159270000000  0.5345570000000 1.0
C      1  0.6296070000000  0.4683200000000  0.5275380000000 1.0
C      1  0.4453890000000  0.4772250000000  0.3987610000000 1.0
C      1  0.4493760000000  0.5844130000000  0.4496210000000 1.0
C      1  0.4554790000000  0.5875470000000  0.5649160000000 1.0
C      1  0.4580140000000  0.4673660000000  0.6030180000000 1.0
C      1  0.4445440000000  0.4000700000000  0.4913780000000 1.0
C      1  0.5019450000000  0.4902220000000  0.6048860000000 1.0
C      1  0.4957390000000  0.3949320000000  0.5213720000000 1.0
C      1  0.4954240000000  0.4470140000000  0.4018560000000 1.0
C      1  0.4936180000000  0.5733030000000  0.4256750000000 1.0
C      1  0.4973840000000  0.5947410000000  0.5351040000000 1.0
C      1  0.4784330000000  0.4728760000000  0.4375930000000 1.0
C      1  0.4720990000000  0.5480130000000  0.4604690000000 1.0
C      1  0.4676500000000  0.5515570000000  0.5392640000000 1.0
C      1  0.4706720000000  0.4804160000000  0.5624960000000 1.0
C      1  0.4771420000000  0.4343140000000  0.5043080000000 1.0
C      1  0.4127620000000  0.5192260000000  0.4697750000000 1.0
C      1  0.3989460000000  0.5253390000000  0.4973790000000 1.0
C      1  0.4118110000000  0.5048030000000  0.5182110000000 1.0
C      1  0.4060250000000  0.4776540000000  0.5030780000000 1.0
C      1  0.4213060000000  0.4881150000000  0.4690670000000 1.0
C      1  0.5850130000000  0.4335490000000  0.4758440000000 1.0
C      1  0.5846160000000  0.4989100000000  0.4368240000000 1.0
C      1  0.5869720000000  0.5631930000000  0.4793880000000 1.0
C      1  0.5910450000000  0.5412760000000  0.5533490000000 1.0
C      1  0.5918480000000  0.4646430000000  0.5632830000000 1.0
C      1  0.4520540000000  0.4194060000000  0.5131100000000 1.0
C      1  0.4363240000000  0.4932630000000  0.4426670000000 1.0
C      1  0.4342790000000  0.5394260000000  0.4568770000000 1.0
C      1  0.4418360000000  0.5686120000000  0.5460240000000 1.0
C      1  0.4434350000000  0.4798470000000  0.5796540000000 1.0
C      1  0.4615000000000  0.5718470000000  0.4251800000000 1.0
C      1  0.4700210000000  0.6062310000000  0.5445570000000 1.0
C      1  0.4732860000000  0.4926180000000  0.6122670000000 1.0
C      1  0.4645100000000  0.3940720000000  0.5253860000000 1.0
C      1  0.4590110000000  0.4507470000000  0.4047660000000 1.0
C      1  0.4746940000000  0.4420830000000  0.5928240000000 1.0
C      1  0.4643450000000  0.4023350000000  0.4679820000000 1.0
C      1  0.4645300000000  0.4995120000000  0.3929550000000 1.0
C      1  0.4668140000000  0.5999920000000  0.4683550000000 1.0
C      1  0.4725300000000  0.5705140000000  0.5836180000000 1.0
C      1  0.5342000000000  0.4843820000000  0.5612790000000 1.0
C      1  0.5306000000000  0.4342670000000  0.5022470000000 1.0
C      1  0.5241540000000  0.4767710000000  0.4393010000000 1.0
C      1  0.5278970000000  0.5505850000000  0.4627470000000 1.0
C      1  0.5283690000000  0.5563070000000  0.5381810000000 1.0
C      1  0.4959510000000  0.5279930000000  0.5843240000000 1.0
C      1  0.4937330000000  0.4285070000000  0.5486810000000 1.0
C      1  0.4904730000000  0.4255780000000  0.4390590000000 1.0
C      1  0.4892580000000  0.5314510000000  0.4156960000000 1.0
C      1  0.4927480000000  0.5853890000000  0.5070000000000 1.0
C      1  0.5529680000000  0.5525900000000  0.4449760000000 1.0
C      1  0.5558750000000  0.5707790000000  0.5328220000000 1.0
C      1  0.5583180000000  0.4932590000000  0.5777920000000 1.0
C      1  0.5552460000000  0.4177140000000  0.5127010000000 1.0
C      1  0.5513420000000  0.4626990000000  0.4354530000000 1.0
C      1  0.5794940000000  0.4341420000000  0.5232180000000 1.0
C      1  0.5713980000000  0.4607840000000  0.4650680000000 1.0
C      1  0.5733410000000  0.5239970000000  0.4529690000000 1.0
C      1  0.5756900000000  0.5548790000000  0.5082770000000 1.0
C      1  0.5824650000000  0.5092930000000  0.5571310000000 1.0
C      1  0.5001100000000  0.4147290000000  0.4999700000000 1.0
C      1  0.4988800000000  0.4726680000000  0.4155670000000 1.0
C      1  0.4981370000000  0.5671370000000  0.4544360000000 1.0
C      1  0.5006810000000  0.5686000000000  0.5490640000000 1.0
C      1  0.5044310000000  0.4766350000000  0.5783690000000 1.0
C      1  0.5325150000000  0.4417590000000  0.4740060000000 1.0
C      1  0.5263230000000  0.5062280000000  0.4398620000000 1.0
C      1  0.5346330000000  0.5605090000000  0.4896890000000 1.0
C      1  0.5342960000000  0.5342390000000  0.5554480000000 1.0
C      1  0.5452660000000  0.4609130000000  0.5428800000000 1.0
C      1  0.4930630000000  0.3995540000000  0.4752330000000 1.0
C      1  0.4935130000000  0.4926660000000  0.3941970000000 1.0
C      1  0.4959250000000  0.5957720000000  0.4637020000000 1.0
C      1  0.5016020000000  0.5740450000000  0.5784230000000 1.0
C      1  0.5035820000000  0.4491190000000  0.5890790000000 1.0
C      1  0.5489780000000  0.5072880000000  0.5217070000000 1.0
C      1  0.5809930000000  0.4776640000000  0.5138470000000 1.0
END
