TITL C-3577086-586-641 -0.086230264907207 125000 -367.224584320368 0 0 61 (Cs) n - 1
REM
REM in /home/bkarasulu/work/CARBON/AIRSS/Generating-Clusters/EDIP-Nigel-Params/with-SteepDescent/Higher-Symm/SD-CG/HFTN-CG
REM
REM
REM
REM
REM
REM ./C.cell (12c818d87b63d06a65506943cc24bca4)
REM
REM compiler GCC version 9.2.1 20190827 (Red Hat 9.2.1-1)
REM options -cpp -mtune=generic -march=x86-64 -g -O0 -fpre-include=/usr/include/finclude/math-vector-fortran.h
REM seed -294317794 -455280361 302901795 1150823662 37568367 1752882677 -928953949 -542246079 -1729599302 -375440973 -1521979200 249824502 812345278 -123461820 1428124138 -1058659778 2021496960 848367485 1858144775 979514462 -843640874 -425449693 -24137941 -531002305 47383783 -141604845 -1376982903 -42934052 1946845287 127897639 -777642524 1518758216 686405613
REM
CELL 1.54180   50.00000   50.00000   50.00000   90.00000   90.00000   90.00000
LATT -1
SFAC C  
C      1  0.5202160000000  0.5629490000000  0.4614360000000 1.0
C      1  0.4896730000000  0.5608100000000  0.4537800000000 1.0
C      1  0.4681820000000  0.5424140000000  0.4679520000000 1.0
C      1  0.4532090000000  0.5157540000000  0.4610470000000 1.0
C      1  0.4631480000000  0.4872710000000  0.4751850000000 1.0
C      1  0.4716140000000  0.4583120000000  0.4610540000000 1.0
C      1  0.4992910000000  0.4453190000000  0.4679640000000 1.0
C      1  0.5274730000000  0.4428340000000  0.4537940000000 1.0
C      1  0.5535710000000  0.4588460000000  0.4614480000000 1.0
C      1  0.5541930000000  0.4875010000000  0.4598660000000 1.0
C      1  0.5373750000000  0.5399900000000  0.4598590000000 1.0
C      1  0.4919480000000  0.4193030000000  0.4804480000000 1.0
C      1  0.5362330000000  0.4201140000000  0.4834020000000 1.0
C      1  0.5697080000000  0.4514350000000  0.4856310000000 1.0
C      1  0.5748680000000  0.4975490000000  0.4787120000000 1.0
C      1  0.5600390000000  0.5438330000000  0.4787060000000 1.0
C      1  0.5290400000000  0.5783640000000  0.4856160000000 1.0
C      1  0.4835960000000  0.5843980000000  0.4833810000000 1.0
C      1  0.4470860000000  0.5593210000000  0.4804300000000 1.0
C      1  0.4253230000000  0.5207810000000  0.4746890000000 1.0
C      1  0.4262070000000  0.4754350000000  0.4759600000000 1.0
C      1  0.4518400000000  0.4380180000000  0.4746990000000 1.0
C      1  0.5203330000000  0.4544790000000  0.4258750000000 1.0
C      1  0.5329760000000  0.4785680000000  0.4191820000000 1.0
C      1  0.5449300000000  0.4982620000000  0.4349520000000 1.0
C      1  0.5360930000000  0.5258440000000  0.4349490000000 1.0
C      1  0.5149210000000  0.5349200000000  0.4191750000000 1.0
C      1  0.4906320000000  0.5471780000000  0.4258630000000 1.0
C      1  0.4682700000000  0.5318370000000  0.4195440000000 1.0
C      1  0.4533230000000  0.5118180000000  0.4315620000000 1.0
C      1  0.4580810000000  0.4856410000000  0.4238160000000 1.0
C      1  0.4694210000000  0.4615750000000  0.4315690000000 1.0
C      1  0.4932190000000  0.4539670000000  0.4195540000000 1.0
C      1  0.4547050000000  0.4670000000000  0.5131740000000 1.0
C      1  0.4769280000000  0.4450880000000  0.5148410000000 1.0
C      1  0.5076120000000  0.4392490000000  0.5174210000000 1.0
C      1  0.5331200000000  0.4566260000000  0.5146550000000 1.0
C      1  0.5489170000000  0.4828750000000  0.5167550000000 1.0
C      1  0.5426280000000  0.5127410000000  0.5117330000000 1.0
C      1  0.5303900000000  0.5407020000000  0.5167480000000 1.0
C      1  0.5022790000000  0.5528820000000  0.5146440000000 1.0
C      1  0.4714220000000  0.5522010000000  0.5174070000000 1.0
C      1  0.4498450000000  0.5296160000000  0.5148300000000 1.0
C      1  0.4444940000000  0.4988690000000  0.5131700000000 1.0
C      1  0.4232140000000  0.4977820000000  0.4922190000000 1.0
C      1  0.4367570000000  0.4555130000000  0.4922240000000 1.0
C      1  0.4675860000000  0.4238020000000  0.4954470000000 1.0
C      1  0.5127850000000  0.4146410000000  0.4998890000000 1.0
C      1  0.5510370000000  0.4366910000000  0.5018350000000 1.0
C      1  0.5746030000000  0.4769730000000  0.5007260000000 1.0
C      1  0.5667240000000  0.5204590000000  0.4955550000000 1.0
C      1  0.5478640000000  0.5604280000000  0.5007150000000 1.0
C      1  0.5052760000000  0.5795140000000  0.5018180000000 1.0
C      1  0.4613330000000  0.5752290000000  0.4998690000000 1.0
C      1  0.4298740000000  0.5415050000000  0.4954330000000 1.0
C      1  0.5075060000000  0.5014980000000  0.5972610000000 1.0
C      1  0.4978780000000  0.4984070000000  0.5454580000000 1.0
C      1  0.4944560000000  0.4973070000000  0.5190470000000 1.0
C      1  0.4840190000000  0.4939600000000  0.4943320000000 1.0
C      1  0.5030750000000  0.5000750000000  0.5712890000000 1.0
C      1  0.5123340000000  0.5030490000000  0.6223240000000 1.0
END
