TITL C-3577077-324-332 -4.00044072837915e-07 125000 -334.26121278654 0 0 54 (C3i) n - 1
REM
REM in /home/bkarasulu/work/CARBON/AIRSS/Generating-Clusters/EDIP-Nigel-Params/with-SteepDescent/Higher-Symm/SD-CG/HFTN-CG
REM
REM
REM
REM
REM
REM ./C.cell (12c818d87b63d06a65506943cc24bca4)
REM
REM compiler GCC version 9.2.1 20190827 (Red Hat 9.2.1-1)
REM options -cpp -mtune=generic -march=x86-64 -g -O0 -fpre-include=/usr/include/finclude/math-vector-fortran.h
REM seed -1158534069 2052910400 -2147340140 -949087023 1139502840 916344867 173015908 -374117475 288005631 -786781015 1633162936 -1285737760 1347084228 -937130194 1572565857 -186150070 446306346 -2142942550 526145677 -1025313702 1995354696 597335595 -417533090 494114817 -14687708 -294446759 1686173834 121720384 466871517 -375446475 -1823115623 -429095502 810517867
REM
CELL 1.54180   50.00000   50.00000   50.00000   90.00000   90.00000   90.00000
LATT -1
SFAC C  
C      1  0.4449750000000  0.5112030000000  0.5433280000000 1.0
C      1  0.4900000000000  0.5111750000000  0.4306770000000 1.0
C      1  0.5650460000000  0.5111280000000  0.5259950000000 1.0
C      1  0.5550250000000  0.4887970000000  0.5433280000000 1.0
C      1  0.5100000000000  0.4888250000000  0.4306770000000 1.0
C      1  0.4349540000000  0.4888720000000  0.5259950000000 1.0
C      1  0.5550250000000  0.4887970000000  0.4566720000000 1.0
C      1  0.5100000000000  0.4888250000000  0.5693230000000 1.0
C      1  0.4349540000000  0.4888720000000  0.4740050000000 1.0
C      1  0.4449750000000  0.5112030000000  0.4566720000000 1.0
C      1  0.4900000000000  0.5111750000000  0.5693230000000 1.0
C      1  0.5650460000000  0.5111280000000  0.4740050000000 1.0
C      1  0.4996580000000  0.4626950000000  0.4406820000000 1.0
C      1  0.5515070000000  0.4626630000000  0.5293830000000 1.0
C      1  0.4487650000000  0.4627260000000  0.5299350000000 1.0
C      1  0.5003420000000  0.5373050000000  0.4406820000000 1.0
C      1  0.4484930000000  0.5373370000000  0.5293830000000 1.0
C      1  0.5512350000000  0.5372740000000  0.5299350000000 1.0
C      1  0.5003420000000  0.5373050000000  0.5593180000000 1.0
C      1  0.4484930000000  0.5373370000000  0.4706170000000 1.0
C      1  0.5512350000000  0.5372740000000  0.4700650000000 1.0
C      1  0.4996580000000  0.4626950000000  0.5593180000000 1.0
C      1  0.5515070000000  0.4626630000000  0.4706170000000 1.0
C      1  0.4487650000000  0.4627260000000  0.4700650000000 1.0
C      1  0.5252740000000  0.5438230000000  0.4294660000000 1.0
C      1  0.5484880000000  0.5438090000000  0.5571310000000 1.0
C      1  0.4263200000000  0.5438840000000  0.5134020000000 1.0
C      1  0.4747260000000  0.4561770000000  0.4294660000000 1.0
C      1  0.4515120000000  0.4561910000000  0.5571310000000 1.0
C      1  0.5736800000000  0.4561160000000  0.5134020000000 1.0
C      1  0.4747260000000  0.4561770000000  0.5705340000000 1.0
C      1  0.4515120000000  0.4561910000000  0.4428690000000 1.0
C      1  0.5736800000000  0.4561160000000  0.4865980000000 1.0
C      1  0.5252740000000  0.5438230000000  0.5705340000000 1.0
C      1  0.5484880000000  0.5438090000000  0.4428690000000 1.0
C      1  0.4263200000000  0.5438840000000  0.4865980000000 1.0
C      1  0.5254260000000  0.4606760000000  0.4852360000000 1.0
C      1  0.5000360000000  0.4606920000000  0.5294220000000 1.0
C      1  0.4744650000000  0.4607080000000  0.4853410000000 1.0
C      1  0.4745740000000  0.5393240000000  0.4852360000000 1.0
C      1  0.4999640000000  0.5393080000000  0.5294220000000 1.0
C      1  0.5255350000000  0.5392920000000  0.4853410000000 1.0
C      1  0.4745740000000  0.5393240000000  0.5147640000000 1.0
C      1  0.4999640000000  0.5393080000000  0.4705780000000 1.0
C      1  0.5255350000000  0.5392920000000  0.5146590000000 1.0
C      1  0.5254260000000  0.4606760000000  0.5147640000000 1.0
C      1  0.5000360000000  0.4606920000000  0.4705780000000 1.0
C      1  0.4744650000000  0.4607080000000  0.5146590000000 1.0
C      1  0.4630320000000  0.5060280000000  0.5640360000000 1.0
C      1  0.5369680000000  0.4939720000000  0.5640360000000 1.0
C      1  0.5369680000000  0.4939720000000  0.4359640000000 1.0
C      1  0.4630320000000  0.5060280000000  0.4359640000000 1.0
C      1  0.5739460000000  0.5059600000000  0.5000000000000 1.0
C      1  0.4260540000000  0.4940400000000  0.5000000000000 1.0
END
