TITL C-3578201-9217-655 -3.34464895931974e-07 125000 -56.3808705456491 0 0 10 (C1) n - 1
REM
REM in /home/bkarasulu/work/CARBON/AIRSS/Generating-Clusters/EDIP-Nigel-Params/with-SteepDescent/Higher-Symm/SD-CG/HFTN-CG
REM
REM
REM
REM
REM
REM ./C.cell (12c818d87b63d06a65506943cc24bca4)
REM
REM compiler GCC version 9.2.1 20190827 (Red Hat 9.2.1-1)
REM options -cpp -mtune=generic -march=x86-64 -g -O0 -fpre-include=/usr/include/finclude/math-vector-fortran.h
REM seed -1337961242 -342563486 -141219190 1721869549 -1064576709 1807922126 -1306042700 1777999822 -491676132 -1717772797 -1552370229 534735901 -1121464042 -450540132 -1450742399 -1001704018 -911433502 874406295 1328032562 -1566040433 -2064084866 -1410774649 1777319936 -177514495 1178832449 -2058326433 13635589 1107386473 1134620481 -1396126468 1491406160 -1257252554 623906520
REM
CELL 1.54180   50.00000   50.00000   50.00000   90.00000   90.00000   90.00000
LATT -1
SFAC C  
C      1  0.4610570000000  0.4945100000000  0.5017700000000 1.0
C      1  0.5251040000000  0.4716210000000  0.5008480000000 1.0
C      1  0.5146840000000  0.5375800000000  0.5013160000000 1.0
C      1  0.5396230000000  0.4947950000000  0.5015430000000 1.0
C      1  0.4757430000000  0.4714660000000  0.5010950000000 1.0
C      1  0.4873790000000  0.5363450000000  0.5007850000000 1.0
C      1  0.5003440000000  0.4727070000000  0.4873860000000 1.0
C      1  0.4763290000000  0.5138650000000  0.4877930000000 1.0
C      1  0.5237820000000  0.5141600000000  0.4881690000000 1.0
C      1  0.5001620000000  0.5002430000000  0.4766160000000 1.0
END
