TITL C-3578195-8548-229 5.82768841570011e-07 125000 -658.053961956695 0 0 105 (C1) n - 1
REM
REM in /home/bkarasulu/work/CARBON/AIRSS/Generating-Clusters/EDIP-Nigel-Params/with-SteepDescent/Higher-Symm/SD-CG/HFTN-CG
REM
REM
REM
REM
REM
REM ./C.cell (12c818d87b63d06a65506943cc24bca4)
REM
REM compiler GCC version 9.2.1 20190827 (Red Hat 9.2.1-1)
REM options -cpp -mtune=generic -march=x86-64 -g -O0 -fpre-include=/usr/include/finclude/math-vector-fortran.h
REM seed 415234689 658033811 201462984 1245262181 2092692859 1884532286 -2039663467 -79368630 322641391 -27077618 654036725 673214482 1025370642 -460382644 134019167 -328856324 36670991 919804379 595490190 1566337634 -1514518317 535207031 -1098858164 -663024699 -1434225198 -1288209792 1875987403 1568169682 1609096576 -184272764 1396920548 -825495397 -1076611503
REM
CELL 1.54180   50.00000   50.00000   50.00000   90.00000   90.00000   90.00000
LATT -1
SFAC C  
C      1  0.5359110000000  0.4831050000000  0.5402540000000 1.0
C      1  0.5105000000000  0.4833870000000  0.4542100000000 1.0
C      1  0.4549350000000  0.4803860000000  0.5103820000000 1.0
C      1  0.5441250000000  0.5149760000000  0.5397750000000 1.0
C      1  0.5145180000000  0.5146430000000  0.4506150000000 1.0
C      1  0.4465470000000  0.5211560000000  0.5087670000000 1.0
C      1  0.4776600000000  0.4706400000000  0.5724990000000 1.0
C      1  0.5670410000000  0.4712450000000  0.4800500000000 1.0
C      1  0.4489210000000  0.4705470000000  0.4480850000000 1.0
C      1  0.4791890000000  0.5294950000000  0.5721300000000 1.0
C      1  0.5707030000000  0.5299660000000  0.4790890000000 1.0
C      1  0.4472390000000  0.5297220000000  0.4463030000000 1.0
C      1  0.5231720000000  0.4132540000000  0.4785260000000 1.0
C      1  0.4725330000000  0.4170630000000  0.4939710000000 1.0
C      1  0.5080310000000  0.4146620000000  0.5302450000000 1.0
C      1  0.5201700000000  0.5805960000000  0.4799130000000 1.0
C      1  0.4706250000000  0.5857080000000  0.4921390000000 1.0
C      1  0.5083430000000  0.5796420000000  0.5288710000000 1.0
C      1  0.4316720000000  0.5528040000000  0.5034070000000 1.0
C      1  0.5368940000000  0.5506480000000  0.5620040000000 1.0
C      1  0.5312670000000  0.5524950000000  0.4377750000000 1.0
C      1  0.4303070000000  0.4485890000000  0.5020890000000 1.0
C      1  0.5335190000000  0.4528120000000  0.5582810000000 1.0
C      1  0.5305230000000  0.4505400000000  0.4408170000000 1.0
C      1  0.4615460000000  0.5723150000000  0.5455470000000 1.0
C      1  0.5559470000000  0.5699560000000  0.5102610000000 1.0
C      1  0.4826710000000  0.5677840000000  0.4480520000000 1.0
C      1  0.4617180000000  0.4290940000000  0.5438320000000 1.0
C      1  0.5671570000000  0.4272270000000  0.5063790000000 1.0
C      1  0.4813010000000  0.4297580000000  0.4470300000000 1.0
C      1  0.5781410000000  0.4867930000000  0.5036000000000 1.0
C      1  0.4659360000000  0.4854800000000  0.4287980000000 1.0
C      1  0.4537020000000  0.4857830000000  0.5643800000000 1.0
C      1  0.5768910000000  0.5159870000000  0.5035890000000 1.0
C      1  0.4656930000000  0.5148790000000  0.4286330000000 1.0
C      1  0.4549630000000  0.5151400000000  0.5640810000000 1.0
C      1  0.5064640000000  0.4855210000000  0.4001280000000 1.0
C      1  0.4097360000000  0.4879930000000  0.5414400000000 1.0
C      1  0.5773240000000  0.4900540000000  0.5536480000000 1.0
C      1  0.5063530000000  0.5135530000000  0.3997940000000 1.0
C      1  0.4108860000000  0.5158970000000  0.5409200000000 1.0
C      1  0.5807600000000  0.5177470000000  0.5522940000000 1.0
C      1  0.4822410000000  0.4748230000000  0.4682720000000 1.0
C      1  0.4960180000000  0.4605880000000  0.5288350000000 1.0
C      1  0.5299900000000  0.4634220000000  0.4901670000000 1.0
C      1  0.4781530000000  0.5407230000000  0.4825180000000 1.0
C      1  0.4958470000000  0.5346750000000  0.5317470000000 1.0
C      1  0.5303570000000  0.5384750000000  0.4935320000000 1.0
C      1  0.5314240000000  0.5097610000000  0.4803710000000 1.0
C      1  0.4634790000000  0.5153800000000  0.4847580000000 1.0
C      1  0.4930210000000  0.5069160000000  0.5328240000000 1.0
C      1  0.5190580000000  0.4887820000000  0.4971130000000 1.0
C      1  0.4753490000000  0.4912570000000  0.4916750000000 1.0
C      1  0.5101570000000  0.4857350000000  0.5249960000000 1.0
C      1  0.5296720000000  0.4755850000000  0.5797240000000 1.0
C      1  0.5472710000000  0.4758050000000  0.4337960000000 1.0
C      1  0.4216190000000  0.4775310000000  0.4910620000000 1.0
C      1  0.5306250000000  0.5258010000000  0.5791230000000 1.0
C      1  0.5476960000000  0.5255010000000  0.4326020000000 1.0
C      1  0.4143440000000  0.5262880000000  0.4875660000000 1.0
C      1  0.4788340000000  0.4123360000000  0.5227960000000 1.0
C      1  0.5305640000000  0.4151950000000  0.5080000000000 1.0
C      1  0.4930530000000  0.4154570000000  0.4719670000000 1.0
C      1  0.4790570000000  0.5775710000000  0.5202960000000 1.0
C      1  0.5285880000000  0.5801420000000  0.5079260000000 1.0
C      1  0.4921220000000  0.5815160000000  0.4720640000000 1.0
C      1  0.4259800000000  0.5151210000000  0.4613610000000 1.0
C      1  0.5030630000000  0.5146060000000  0.5790100000000 1.0
C      1  0.5661660000000  0.5153710000000  0.4541340000000 1.0
C      1  0.4274440000000  0.4854250000000  0.4628060000000 1.0
C      1  0.5017920000000  0.4857180000000  0.5812010000000 1.0
C      1  0.5653960000000  0.4860260000000  0.4544370000000 1.0
C      1  0.5625560000000  0.5539750000000  0.5341160000000 1.0
C      1  0.5013230000000  0.5520740000000  0.4309670000000 1.0
C      1  0.4390920000000  0.5551980000000  0.5357190000000 1.0
C      1  0.5626750000000  0.4486820000000  0.5321440000000 1.0
C      1  0.5004320000000  0.4474170000000  0.4318390000000 1.0
C      1  0.4367990000000  0.4470450000000  0.5337870000000 1.0
C      1  0.5348250000000  0.4462870000000  0.5148430000000 1.0
C      1  0.5050250000000  0.4525080000000  0.4755940000000 1.0
C      1  0.4706920000000  0.4547460000000  0.5160980000000 1.0
C      1  0.5254580000000  0.5389560000000  0.5243220000000 1.0
C      1  0.5069810000000  0.5396620000000  0.4719050000000 1.0
C      1  0.4759130000000  0.5469220000000  0.5129650000000 1.0
C      1  0.4339000000000  0.5300050000000  0.5501570000000 1.0
C      1  0.5821070000000  0.5324490000000  0.5278950000000 1.0
C      1  0.4893740000000  0.5284840000000  0.4172720000000 1.0
C      1  0.4329250000000  0.4729860000000  0.5481530000000 1.0
C      1  0.5774490000000  0.4740780000000  0.5296700000000 1.0
C      1  0.4891060000000  0.4711920000000  0.4178210000000 1.0
C      1  0.5063320000000  0.4401890000000  0.5483010000000 1.0
C      1  0.5416350000000  0.4312630000000  0.4626550000000 1.0
C      1  0.4496460000000  0.4332230000000  0.4841920000000 1.0
C      1  0.5125530000000  0.5674520000000  0.5556230000000 1.0
C      1  0.5396680000000  0.5679380000000  0.4622040000000 1.0
C      1  0.4468040000000  0.5702800000000  0.4827950000000 1.0
C      1  0.5615910000000  0.5586760000000  0.4816700000000 1.0
C      1  0.4552890000000  0.5577470000000  0.4557430000000 1.0
C      1  0.4839750000000  0.5571520000000  0.5615940000000 1.0
C      1  0.5655400000000  0.4405040000000  0.4790210000000 1.0
C      1  0.4556620000000  0.4421660000000  0.4565170000000 1.0
C      1  0.4807060000000  0.4413930000000  0.5657190000000 1.0
C      1  0.5379110000000  0.4997120000000  0.4172280000000 1.0
C      1  0.4078520000000  0.5014030000000  0.5053980000000 1.0
C      1  0.5482860000000  0.5004940000000  0.5767920000000 1.0
END
