TITL C-3578199-7832-531 -1.83232088088178e-06 125000 -282.551632315764 0 0 47 (C1) n - 1
REM
REM in /home/bkarasulu/work/CARBON/AIRSS/Generating-Clusters/EDIP-Nigel-Params/with-SteepDescent/Higher-Symm/SD-CG/HFTN-CG
REM
REM
REM
REM
REM
REM ./C.cell (12c818d87b63d06a65506943cc24bca4)
REM
REM compiler GCC version 9.2.1 20190827 (Red Hat 9.2.1-1)
REM options -cpp -mtune=generic -march=x86-64 -g -O0 -fpre-include=/usr/include/finclude/math-vector-fortran.h
REM seed 1192011541 1594377952 -40738967 82752411 1031673947 -1156112828 2116848804 871911887 989973760 -1352844574 -1546534969 -908674925 87052303 -1490434024 575373736 -400156751 -498113503 1392447844 2007991943 1055660778 1519077640 -1298668680 -673238761 -1476233184 1934432064 886889804 1992641067 -1103439986 -164018788 1047339539 78916551 -1729093358 958561694
REM
CELL 1.54180   50.00000   50.00000   50.00000   90.00000   90.00000   90.00000
LATT -1
SFAC C  
C      1  0.4794420000000  0.5158550000000  0.4482160000000 1.0
C      1  0.4932710000000  0.4325210000000  0.4538000000000 1.0
C      1  0.5438680000000  0.5415490000000  0.5233950000000 1.0
C      1  0.4665320000000  0.4768980000000  0.4986570000000 1.0
C      1  0.4698340000000  0.4817360000000  0.5461460000000 1.0
C      1  0.4426150000000  0.5135070000000  0.4774280000000 1.0
C      1  0.5104540000000  0.4539670000000  0.5191110000000 1.0
C      1  0.5508170000000  0.5122760000000  0.4419060000000 1.0
C      1  0.4502620000000  0.4563870000000  0.5149580000000 1.0
C      1  0.4782160000000  0.5097160000000  0.5547020000000 1.0
C      1  0.5225430000000  0.5297680000000  0.5417720000000 1.0
C      1  0.5055840000000  0.5048990000000  0.4519820000000 1.0
C      1  0.5643240000000  0.5090420000000  0.4666370000000 1.0
C      1  0.5572720000000  0.4835710000000  0.4798100000000 1.0
C      1  0.5323120000000  0.4668470000000  0.5367250000000 1.0
C      1  0.4656000000000  0.4354390000000  0.5254630000000 1.0
C      1  0.5421880000000  0.4898990000000  0.5209880000000 1.0
C      1  0.4514310000000  0.5028480000000  0.5016890000000 1.0
C      1  0.4655510000000  0.5333650000000  0.5475240000000 1.0
C      1  0.5111160000000  0.5267650000000  0.4990400000000 1.0
C      1  0.4933510000000  0.4799580000000  0.5154020000000 1.0
C      1  0.4324500000000  0.4996690000000  0.5225330000000 1.0
C      1  0.5230800000000  0.5667430000000  0.4838620000000 1.0
C      1  0.4574290000000  0.4991260000000  0.4578890000000 1.0
C      1  0.5598410000000  0.5314480000000  0.4839110000000 1.0
C      1  0.5273810000000  0.4774500000000  0.4788060000000 1.0
C      1  0.5265290000000  0.5246160000000  0.4500450000000 1.0
C      1  0.5065270000000  0.5061230000000  0.5483810000000 1.0
C      1  0.4663550000000  0.4719210000000  0.4668660000000 1.0
C      1  0.4890580000000  0.4606250000000  0.5578340000000 1.0
C      1  0.4416660000000  0.4762250000000  0.5356080000000 1.0
C      1  0.5101140000000  0.4308680000000  0.4746250000000 1.0
C      1  0.4878430000000  0.4599290000000  0.4495970000000 1.0
C      1  0.5072440000000  0.5523350000000  0.5283780000000 1.0
C      1  0.5658120000000  0.4839110000000  0.5066760000000 1.0
C      1  0.5299580000000  0.5666440000000  0.5128100000000 1.0
C      1  0.4908310000000  0.4384060000000  0.5372110000000 1.0
C      1  0.4707840000000  0.5582790000000  0.5042260000000 1.0
C      1  0.5220210000000  0.4496450000000  0.4909690000000 1.0
C      1  0.4779050000000  0.5417820000000  0.4600130000000 1.0
C      1  0.4637930000000  0.5544310000000  0.5310640000000 1.0
C      1  0.5144110000000  0.4783470000000  0.5572590000000 1.0
C      1  0.4928360000000  0.5697790000000  0.4819290000000 1.0
C      1  0.4803990000000  0.5334140000000  0.4891250000000 1.0
C      1  0.5315500000000  0.5376420000000  0.4773880000000 1.0
C      1  0.5102770000000  0.4777780000000  0.4448030000000 1.0
C      1  0.5173260000000  0.4960480000000  0.5028420000000 1.0
END
