TITL C-3578200-9634-294 -2.21420189732483e-06 125000 -880.539069197965 0 0 144 (C4h) n - 1
REM
REM in /home/bkarasulu/work/CARBON/AIRSS/Generating-Clusters/EDIP-Nigel-Params/with-SteepDescent/Higher-Symm/SD-CG/HFTN-CG
REM
REM
REM
REM
REM
REM ./C.cell (12c818d87b63d06a65506943cc24bca4)
REM
REM compiler GCC version 9.2.1 20190827 (Red Hat 9.2.1-1)
REM options -cpp -mtune=generic -march=x86-64 -g -O0 -fpre-include=/usr/include/finclude/math-vector-fortran.h
REM seed -1212434034 1065724038 358245363 340668794 2137125921 -1669266370 -1476769937 55355117 1945396276 -191514608 -266332021 -1404772854 -1225230148 1288227365 867556062 -551799150 454130685 934962612 -143040919 1126006 2032730837 614703277 913554529 172210936 -173025130 -1137671931 970667667 198400121 -86777782 1419066530 -2040968084 -1638605962 -239841376
REM
CELL 1.54180   50.00000   50.00000   50.00000   90.00000   90.00000   90.00000
LATT -1
SFAC C  
C      1  0.5483200000000  0.5769570000000  0.5478130000000 1.0
C      1  0.4527270000000  0.5779260000000  0.5472880000000 1.0
C      1  0.4532490000000  0.5776140000000  0.4516910000000 1.0
C      1  0.5488410000000  0.5766450000000  0.4522160000000 1.0
C      1  0.5467510000000  0.4223860000000  0.5483090000000 1.0
C      1  0.4511590000000  0.4233550000000  0.5477840000000 1.0
C      1  0.4516800000000  0.4230430000000  0.4521870000000 1.0
C      1  0.5472730000000  0.4220740000000  0.4527120000000 1.0
C      1  0.4876130000000  0.4006840000000  0.5688360000000 1.0
C      1  0.4304750000000  0.4010080000000  0.4889420000000 1.0
C      1  0.5103640000000  0.4000130000000  0.4318040000000 1.0
C      1  0.5675020000000  0.3996900000000  0.5116980000000 1.0
C      1  0.4896360000000  0.5999870000000  0.5681960000000 1.0
C      1  0.4324980000000  0.6003100000000  0.4883020000000 1.0
C      1  0.5123870000000  0.5993160000000  0.4311640000000 1.0
C      1  0.5695250000000  0.5989920000000  0.5110580000000 1.0
C      1  0.4104070000000  0.5592070000000  0.4811460000000 1.0
C      1  0.5192550000000  0.5578720000000  0.4096240000000 1.0
C      1  0.5907780000000  0.5574960000000  0.5184790000000 1.0
C      1  0.4819290000000  0.5588300000000  0.5900020000000 1.0
C      1  0.4092220000000  0.4425040000000  0.4815210000000 1.0
C      1  0.5180710000000  0.4411700000000  0.4099980000000 1.0
C      1  0.5895930000000  0.4407930000000  0.5188540000000 1.0
C      1  0.4807450000000  0.4421280000000  0.5903760000000 1.0
C      1  0.6055960000000  0.4835410000000  0.4990320000000 1.0
C      1  0.5008650000000  0.4849470000000  0.6058060000000 1.0
C      1  0.3940920000000  0.4856940000000  0.5010670000000 1.0
C      1  0.4988230000000  0.4842880000000  0.3942930000000 1.0
C      1  0.6059080000000  0.5143060000000  0.4989330000000 1.0
C      1  0.5011770000000  0.5157120000000  0.6057070000000 1.0
C      1  0.3944040000000  0.5164590000000  0.5009680000000 1.0
C      1  0.4991350000000  0.5150530000000  0.3941940000000 1.0
C      1  0.4713210000000  0.4320330000000  0.4727750000000 1.0
C      1  0.5267500000000  0.4314690000000  0.4722320000000 1.0
C      1  0.5272950000000  0.4316410000000  0.5276630000000 1.0
C      1  0.4718660000000  0.4322060000000  0.5282060000000 1.0
C      1  0.4727050000000  0.5683590000000  0.4723370000000 1.0
C      1  0.5281340000000  0.5677940000000  0.4717940000000 1.0
C      1  0.5286790000000  0.5679670000000  0.5272250000000 1.0
C      1  0.4732500000000  0.5685310000000  0.5277680000000 1.0
C      1  0.4852740000000  0.4725710000000  0.4835820000000 1.0
C      1  0.5162260000000  0.4722640000000  0.4856420000000 1.0
C      1  0.5141670000000  0.4723840000000  0.5165950000000 1.0
C      1  0.4832150000000  0.4726920000000  0.5145350000000 1.0
C      1  0.4858330000000  0.5276160000000  0.4834050000000 1.0
C      1  0.5167850000000  0.5273080000000  0.4854650000000 1.0
C      1  0.5147260000000  0.5274290000000  0.5164180000000 1.0
C      1  0.4837740000000  0.5277360000000  0.5143580000000 1.0
C      1  0.4151380000000  0.5720580000000  0.4556260000000 1.0
C      1  0.5448650000000  0.5706090000000  0.4141820000000 1.0
C      1  0.5863110000000  0.5706040000000  0.5439160000000 1.0
C      1  0.4565830000000  0.5720540000000  0.5853600000000 1.0
C      1  0.4136890000000  0.4293960000000  0.4560840000000 1.0
C      1  0.5434170000000  0.4279460000000  0.4146400000000 1.0
C      1  0.5848620000000  0.4279420000000  0.5443740000000 1.0
C      1  0.4551350000000  0.4293910000000  0.5858180000000 1.0
C      1  0.5249730000000  0.4839770000000  0.4598560000000 1.0
C      1  0.5400350000000  0.4840340000000  0.5251850000000 1.0
C      1  0.4747090000000  0.4847450000000  0.5402450000000 1.0
C      1  0.4596480000000  0.4846880000000  0.4749160000000 1.0
C      1  0.5252910000000  0.5152550000000  0.4597550000000 1.0
C      1  0.5403520000000  0.5153120000000  0.5250840000000 1.0
C      1  0.4750270000000  0.5160230000000  0.5401440000000 1.0
C      1  0.4599650000000  0.5159660000000  0.4748150000000 1.0
C      1  0.5700280000000  0.5944080000000  0.5391820000000 1.0
C      1  0.4614820000000  0.5956050000000  0.5687600000000 1.0
C      1  0.4319010000000  0.5955570000000  0.4602090000000 1.0
C      1  0.5404470000000  0.5943600000000  0.4306300000000 1.0
C      1  0.5680990000000  0.4044430000000  0.5397910000000 1.0
C      1  0.4595530000000  0.4056400000000  0.5693700000000 1.0
C      1  0.4299720000000  0.4055920000000  0.4608180000000 1.0
C      1  0.5385180000000  0.4043950000000  0.4312400000000 1.0
C      1  0.5040100000000  0.5277650000000  0.4430510000000 1.0
C      1  0.5571400000000  0.5274210000000  0.5036390000000 1.0
C      1  0.4965580000000  0.5282060000000  0.5567690000000 1.0
C      1  0.4434280000000  0.5285510000000  0.4961820000000 1.0
C      1  0.5034420000000  0.4717940000000  0.4432310000000 1.0
C      1  0.5565720000000  0.4714490000000  0.5038180000000 1.0
C      1  0.4959900000000  0.4722350000000  0.5569490000000 1.0
C      1  0.4428600000000  0.4725790000000  0.4963610000000 1.0
C      1  0.5778160000000  0.5234710000000  0.4570760000000 1.0
C      1  0.5430940000000  0.5242100000000  0.5774950000000 1.0
C      1  0.4226790000000  0.5253210000000  0.5427670000000 1.0
C      1  0.4574010000000  0.5245820000000  0.4223480000000 1.0
C      1  0.5773210000000  0.4746790000000  0.4572330000000 1.0
C      1  0.5425990000000  0.4754180000000  0.5776520000000 1.0
C      1  0.4221840000000  0.4765290000000  0.5429240000000 1.0
C      1  0.4569060000000  0.4757900000000  0.4225050000000 1.0
C      1  0.4158570000000  0.5295090000000  0.4836570000000 1.0
C      1  0.5165390000000  0.5282680000000  0.4154700000000 1.0
C      1  0.5847260000000  0.5278990000000  0.5161590000000 1.0
C      1  0.4840440000000  0.5291400000000  0.5843460000000 1.0
C      1  0.4152740000000  0.4721010000000  0.4838410000000 1.0
C      1  0.5159560000000  0.4708600000000  0.4156540000000 1.0
C      1  0.5841430000000  0.4704910000000  0.5163430000000 1.0
C      1  0.4834610000000  0.4717320000000  0.5845300000000 1.0
C      1  0.5146100000000  0.4068260000000  0.5157990000000 1.0
C      1  0.4835560000000  0.4071420000000  0.5158530000000 1.0
C      1  0.4835010000000  0.4070430000000  0.4847980000000 1.0
C      1  0.5145540000000  0.4067270000000  0.4847440000000 1.0
C      1  0.5164990000000  0.5929570000000  0.5152020000000 1.0
C      1  0.4854460000000  0.5932730000000  0.5152560000000 1.0
C      1  0.4853900000000  0.5931740000000  0.4842010000000 1.0
C      1  0.5164440000000  0.5928580000000  0.4841470000000 1.0
C      1  0.5001300000000  0.5572740000000  0.5455810000000 1.0
C      1  0.4548180000000  0.5575850000000  0.4993650000000 1.0
C      1  0.5010300000000  0.5569710000000  0.4540520000000 1.0
C      1  0.5463420000000  0.5566590000000  0.5002680000000 1.0
C      1  0.4989700000000  0.4430290000000  0.5459480000000 1.0
C      1  0.4536580000000  0.4433410000000  0.4997320000000 1.0
C      1  0.4998700000000  0.4427260000000  0.4544190000000 1.0
C      1  0.5451820000000  0.4424150000000  0.5006350000000 1.0
C      1  0.4483810000000  0.4744380000000  0.5527920000000 1.0
C      1  0.4470270000000  0.4741170000000  0.4487280000000 1.0
C      1  0.5510860000000  0.4730570000000  0.4473770000000 1.0
C      1  0.5524400000000  0.4733770000000  0.5514410000000 1.0
C      1  0.4489140000000  0.5269430000000  0.5526230000000 1.0
C      1  0.4475600000000  0.5266230000000  0.4485590000000 1.0
C      1  0.5516190000000  0.5255620000000  0.4472080000000 1.0
C      1  0.5529730000000  0.5258830000000  0.5512720000000 1.0
C      1  0.6021090000000  0.5142580000000  0.4676060000000 1.0
C      1  0.5325030000000  0.5153960000000  0.6019090000000 1.0
C      1  0.3982040000000  0.5165360000000  0.5322950000000 1.0
C      1  0.4678100000000  0.5153980000000  0.3979920000000 1.0
C      1  0.6017960000000  0.4834640000000  0.4677050000000 1.0
C      1  0.5321900000000  0.4846020000000  0.6020080000000 1.0
C      1  0.3978910000000  0.4857420000000  0.5323940000000 1.0
C      1  0.4674970000000  0.4846040000000  0.3980910000000 1.0
C      1  0.4291600000000  0.5740270000000  0.4988310000000 1.0
C      1  0.5016750000000  0.5730640000000  0.4281780000000 1.0
C      1  0.5723280000000  0.5725800000000  0.5006980000000 1.0
C      1  0.4998130000000  0.5735430000000  0.5713520000000 1.0
C      1  0.4276720000000  0.4274200000000  0.4993020000000 1.0
C      1  0.5001870000000  0.4264570000000  0.4286480000000 1.0
C      1  0.5708400000000  0.4259730000000  0.5011690000000 1.0
C      1  0.4983250000000  0.4269360000000  0.5718220000000 1.0
C      1  0.4553390000000  0.4853160000000  0.5804540000000 1.0
C      1  0.4194420000000  0.4852800000000  0.4555400000000 1.0
C      1  0.5443480000000  0.4838970000000  0.4196450000000 1.0
C      1  0.5802460000000  0.4839330000000  0.5445580000000 1.0
C      1  0.4556520000000  0.5161030000000  0.5803550000000 1.0
C      1  0.4197540000000  0.5160670000000  0.4554420000000 1.0
C      1  0.5446610000000  0.5146840000000  0.4195460000000 1.0
C      1  0.5805580000000  0.5147200000000  0.5444600000000 1.0
END
