TITL C-3578195-8548-9 -2.54975316986669 125000 -71.740024250755 0 0 14 (C1) n - 1
REM
REM in /home/bkarasulu/work/CARBON/AIRSS/Generating-Clusters/EDIP-Nigel-Params/with-SteepDescent/Higher-Symm/SD-CG/HFTN-CG
REM
REM
REM
REM
REM
REM ./C.cell (12c818d87b63d06a65506943cc24bca4)
REM
REM compiler GCC version 9.2.1 20190827 (Red Hat 9.2.1-1)
REM options -cpp -mtune=generic -march=x86-64 -g -O0 -fpre-include=/usr/include/finclude/math-vector-fortran.h
REM seed 234568097 1549582200 1189139799 -1743495101 -1140196528 2143769169 -1880189033 1743147998 -1085602224 530593210 2065428848 569748486 -1203884402 608208846 256491290 1589875865 60975719 1362386305 1448298946 -1777901297 -939073544 1242383273 -559442546 897804715 -921664179 365758688 -1773278980 81837454 -2090527158 306381932 -719939011 1399834088 -1420579744
REM
CELL 1.54180   50.00000   50.00000   50.00000   90.00000   90.00000   90.00000
LATT -1
SFAC C  
C      1  0.4760120000000  0.4787430000000  0.5026420000000 1.0
C      1  0.4780970000000  0.4997210000000  0.5218310000000 1.0
C      1  0.5016120000000  0.5116580000000  0.5285750000000 1.0
C      1  0.4774200000000  0.5093950000000  0.4642910000000 1.0
C      1  0.4641240000000  0.4307700000000  0.4943680000000 1.0
C      1  0.5494020000000  0.5180290000000  0.5306000000000 1.0
C      1  0.5477930000000  0.5385730000000  0.4869490000000 1.0
C      1  0.4735910000000  0.4316450000000  0.5195870000000 1.0
C      1  0.5235190000000  0.5252810000000  0.5375030000000 1.0
C      1  0.4613420000000  0.4549360000000  0.5089750000000 1.0
C      1  0.5470910000000  0.5409350000000  0.4614820000000 1.0
C      1  0.4861050000000  0.5214770000000  0.4434790000000 1.0
C      1  0.5494020000000  0.5403670000000  0.5141270000000 1.0
C      1  0.4644910000000  0.4984730000000  0.4855900000000 1.0
END
