TITL C-3578199-7832-106 -1.92115365334346e-06 125000 -875.531230662378 0 0 144 (C1) n - 1
REM
REM in /home/bkarasulu/work/CARBON/AIRSS/Generating-Clusters/EDIP-Nigel-Params/with-SteepDescent/Higher-Symm/SD-CG/HFTN-CG
REM
REM
REM
REM
REM
REM ./C.cell (12c818d87b63d06a65506943cc24bca4)
REM
REM compiler GCC version 9.2.1 20190827 (Red Hat 9.2.1-1)
REM options -cpp -mtune=generic -march=x86-64 -g -O0 -fpre-include=/usr/include/finclude/math-vector-fortran.h
REM seed -1508566504 530614187 2122995080 1088271923 1377729007 -1776183560 -608045292 -1167238718 -1254374786 1938932171 -1012215926 983525352 -101740241 -1977475067 1681033639 173320994 1150068121 -1114064218 -144538939 -1289739672 -771050790 -793406993 -1833931234 -695649115 -40975379 2067777681 5425241 -633956712 1231486565 -841469519 -574976383 -166065947 1240884341
REM
CELL 1.54180   50.00000   50.00000   50.00000   90.00000   90.00000   90.00000
LATT -1
SFAC C  
C      1  0.5122190000000  0.5064240000000  0.3947880000000 1.0
C      1  0.5822900000000  0.5079750000000  0.5609970000000 1.0
C      1  0.4008280000000  0.5088640000000  0.5434000000000 1.0
C      1  0.4897930000000  0.4883280000000  0.3913290000000 1.0
C      1  0.4156070000000  0.4936060000000  0.5630670000000 1.0
C      1  0.5917540000000  0.4932880000000  0.5377920000000 1.0
C      1  0.5077130000000  0.4437880000000  0.4266480000000 1.0
C      1  0.5584130000000  0.4452720000000  0.5447540000000 1.0
C      1  0.4388170000000  0.4586010000000  0.5229680000000 1.0
C      1  0.4931460000000  0.5521410000000  0.4290660000000 1.0
C      1  0.4400880000000  0.5558940000000  0.5495240000000 1.0
C      1  0.5616170000000  0.5527850000000  0.5280230000000 1.0
C      1  0.4449500000000  0.4298890000000  0.5141740000000 1.0
C      1  0.5172220000000  0.4194810000000  0.4427960000000 1.0
C      1  0.5430670000000  0.4176860000000  0.5450430000000 1.0
C      1  0.5532220000000  0.5790190000000  0.5142510000000 1.0
C      1  0.4789430000000  0.5728800000000  0.4465420000000 1.0
C      1  0.4552760000000  0.5836750000000  0.5499310000000 1.0
C      1  0.5520560000000  0.4793890000000  0.4117420000000 1.0
C      1  0.5507150000000  0.4774520000000  0.5897830000000 1.0
C      1  0.3990660000000  0.4827040000000  0.4978900000000 1.0
C      1  0.4500260000000  0.5158380000000  0.4090680000000 1.0
C      1  0.4490030000000  0.5217660000000  0.5906200000000 1.0
C      1  0.5903150000000  0.5177570000000  0.4922300000000 1.0
C      1  0.4981740000000  0.4509240000000  0.4751590000000 1.0
C      1  0.5151030000000  0.4471190000000  0.5210760000000 1.0
C      1  0.4893720000000  0.4526670000000  0.5052270000000 1.0
C      1  0.5004770000000  0.5429840000000  0.4838760000000 1.0
C      1  0.4853760000000  0.5552510000000  0.5283480000000 1.0
C      1  0.5120070000000  0.5517070000000  0.5133270000000 1.0
C      1  0.5693150000000  0.4721370000000  0.5037970000000 1.0
C      1  0.4670360000000  0.4704660000000  0.5544620000000 1.0
C      1  0.4710470000000  0.4713590000000  0.4321730000000 1.0
C      1  0.4400480000000  0.5299620000000  0.5075690000000 1.0
C      1  0.5339940000000  0.5280120000000  0.5580130000000 1.0
C      1  0.5316790000000  0.5242740000000  0.4327070000000 1.0
C      1  0.6016160000000  0.5052160000000  0.4671410000000 1.0
C      1  0.4750330000000  0.5069810000000  0.5941640000000 1.0
C      1  0.4337900000000  0.5075370000000  0.4326050000000 1.0
C      1  0.4114860000000  0.4940080000000  0.4731780000000 1.0
C      1  0.5237460000000  0.4903870000000  0.5943270000000 1.0
C      1  0.5719090000000  0.4891030000000  0.4313160000000 1.0
C      1  0.4586830000000  0.4282110000000  0.4160940000000 1.0
C      1  0.5879690000000  0.4290260000000  0.5026770000000 1.0
C      1  0.4538100000000  0.4296410000000  0.5753540000000 1.0
C      1  0.5401790000000  0.5685770000000  0.4217000000000 1.0
C      1  0.4101850000000  0.5683700000000  0.5058980000000 1.0
C      1  0.5436290000000  0.5710570000000  0.5726600000000 1.0
C      1  0.4743630000000  0.4246950000000  0.5070560000000 1.0
C      1  0.5066580000000  0.4221960000000  0.4720600000000 1.0
C      1  0.5201790000000  0.4189650000000  0.5232170000000 1.0
C      1  0.5231260000000  0.5801280000000  0.5089480000000 1.0
C      1  0.4879020000000  0.5721170000000  0.4762660000000 1.0
C      1  0.4778560000000  0.5829910000000  0.5274560000000 1.0
C      1  0.5482890000000  0.4516880000000  0.4154240000000 1.0
C      1  0.5491320000000  0.4496500000000  0.5860620000000 1.0
C      1  0.4034410000000  0.4551070000000  0.4984920000000 1.0
C      1  0.4543680000000  0.5433330000000  0.4120570000000 1.0
C      1  0.4518640000000  0.5497670000000  0.5899040000000 1.0
C      1  0.5875930000000  0.5463930000000  0.4956160000000 1.0
C      1  0.4582640000000  0.4167070000000  0.4614610000000 1.0
C      1  0.5553810000000  0.4143600000000  0.4872180000000 1.0
C      1  0.4816640000000  0.4110070000000  0.5555140000000 1.0
C      1  0.5340070000000  0.5775130000000  0.4592100000000 1.0
C      1  0.4412950000000  0.5878570000000  0.4928790000000 1.0
C      1  0.5171460000000  0.5941930000000  0.5564500000000 1.0
C      1  0.4883340000000  0.4628370000000  0.5737590000000 1.0
C      1  0.4461190000000  0.4628120000000  0.4470800000000 1.0
C      1  0.5723930000000  0.4650530000000  0.4745830000000 1.0
C      1  0.5106380000000  0.5344040000000  0.5750740000000 1.0
C      1  0.5577390000000  0.5311470000000  0.4465400000000 1.0
C      1  0.4337510000000  0.5399680000000  0.4775170000000 1.0
C      1  0.4983650000000  0.4634320000000  0.4473460000000 1.0
C      1  0.5400860000000  0.4620050000000  0.5278690000000 1.0
C      1  0.4678540000000  0.4742930000000  0.5222720000000 1.0
C      1  0.5046390000000  0.5323720000000  0.4485600000000 1.0
C      1  0.4587800000000  0.5400430000000  0.5320310000000 1.0
C      1  0.5365860000000  0.5362010000000  0.5288920000000 1.0
C      1  0.4892370000000  0.4989810000000  0.4778290000000 1.0
C      1  0.5171230000000  0.4921960000000  0.4871440000000 1.0
C      1  0.5086410000000  0.4906100000000  0.5171880000000 1.0
C      1  0.5349820000000  0.5155200000000  0.4871720000000 1.0
C      1  0.4817730000000  0.5216350000000  0.4946900000000 1.0
C      1  0.4908680000000  0.5118840000000  0.5205890000000 1.0
C      1  0.5920830000000  0.4638640000000  0.5423030000000 1.0
C      1  0.4200090000000  0.4656570000000  0.5555000000000 1.0
C      1  0.4933320000000  0.4589350000000  0.3940770000000 1.0
C      1  0.4064420000000  0.5374790000000  0.5444160000000 1.0
C      1  0.5794140000000  0.5369350000000  0.5582890000000 1.0
C      1  0.5071310000000  0.5358410000000  0.3967680000000 1.0
C      1  0.5748030000000  0.4334660000000  0.4765360000000 1.0
C      1  0.4832960000000  0.4307900000000  0.5770770000000 1.0
C      1  0.4472010000000  0.4327200000000  0.4415350000000 1.0
C      1  0.4239160000000  0.5687410000000  0.4804230000000 1.0
C      1  0.5149180000000  0.5723600000000  0.5748970000000 1.0
C      1  0.5557230000000  0.5625340000000  0.4461430000000 1.0
C      1  0.4705770000000  0.5128400000000  0.5436210000000 1.0
C      1  0.4838660000000  0.5095280000000  0.4509200000000 1.0
C      1  0.5462710000000  0.5138350000000  0.5131820000000 1.0
C      1  0.5285030000000  0.4869850000000  0.5421810000000 1.0
C      1  0.5198820000000  0.4845130000000  0.4490420000000 1.0
C      1  0.4468700000000  0.4967700000000  0.5046680000000 1.0
C      1  0.5274370000000  0.4142730000000  0.4938020000000 1.0
C      1  0.4913230000000  0.4101440000000  0.5283490000000 1.0
C      1  0.4787020000000  0.4113830000000  0.4796990000000 1.0
C      1  0.4688770000000  0.5834030000000  0.4981450000000 1.0
C      1  0.5060310000000  0.5954010000000  0.5297650000000 1.0
C      1  0.5151240000000  0.5852910000000  0.4799370000000 1.0
C      1  0.4596060000000  0.5739240000000  0.5777630000000 1.0
C      1  0.4555610000000  0.5614720000000  0.4331930000000 1.0
C      1  0.5720860000000  0.5695110000000  0.4941700000000 1.0
C      1  0.5397700000000  0.4265820000000  0.5731650000000 1.0
C      1  0.5433620000000  0.4300690000000  0.4327460000000 1.0
C      1  0.4231300000000  0.4356140000000  0.4957660000000 1.0
C      1  0.4418630000000  0.4897230000000  0.4751500000000 1.0
C      1  0.5546750000000  0.4850880000000  0.4573700000000 1.0
C      1  0.5089450000000  0.4863660000000  0.5676120000000 1.0
C      1  0.5580860000000  0.5124910000000  0.4704600000000 1.0
C      1  0.4521240000000  0.5126460000000  0.4570760000000 1.0
C      1  0.4903890000000  0.5117310000000  0.5682490000000 1.0
C      1  0.5747500000000  0.5008030000000  0.5125920000000 1.0
C      1  0.4391100000000  0.5100090000000  0.5663980000000 1.0
C      1  0.4738910000000  0.4980460000000  0.4148440000000 1.0
C      1  0.4112690000000  0.4977800000000  0.5189600000000 1.0
C      1  0.5582330000000  0.4926300000000  0.5663540000000 1.0
C      1  0.5277460000000  0.4959250000000  0.4194070000000 1.0
C      1  0.5318700000000  0.5434170000000  0.4099380000000 1.0
C      1  0.5546410000000  0.5444350000000  0.5708640000000 1.0
C      1  0.4135380000000  0.5421410000000  0.5170560000000 1.0
C      1  0.4688240000000  0.4532500000000  0.4086910000000 1.0
C      1  0.4447190000000  0.4557820000000  0.5664030000000 1.0
C      1  0.5897780000000  0.4548370000000  0.5153520000000 1.0
C      1  0.4080630000000  0.5212840000000  0.4383130000000 1.0
C      1  0.6046230000000  0.5208990000000  0.4436950000000 1.0
C      1  0.4945580000000  0.5136520000000  0.6178050000000 1.0
C      1  0.5961520000000  0.4721440000000  0.4352790000000 1.0
C      1  0.4006500000000  0.4825230000000  0.4482170000000 1.0
C      1  0.5032560000000  0.4821820000000  0.6175880000000 1.0
C      1  0.5799190000000  0.5185740000000  0.4306890000000 1.0
C      1  0.5185560000000  0.5236510000000  0.6024690000000 1.0
C      1  0.4094710000000  0.5239320000000  0.4674440000000 1.0
C      1  0.4247540000000  0.4781970000000  0.4329430000000 1.0
C      1  0.4790810000000  0.4757050000000  0.6003530000000 1.0
C      1  0.5989720000000  0.4757550000000  0.4636500000000 1.0
END
