TITL C-3577078-809-442 8.36026259841048e-07 125000 -1229.0025562322 0 0 196 (C1) n - 1
REM
REM in /home/bkarasulu/work/CARBON/AIRSS/Generating-Clusters/EDIP-Nigel-Params/with-SteepDescent/Higher-Symm/SD-CG/HFTN-CG
REM
REM
REM
REM
REM
REM ./C.cell (12c818d87b63d06a65506943cc24bca4)
REM
REM compiler GCC version 9.2.1 20190827 (Red Hat 9.2.1-1)
REM options -cpp -mtune=generic -march=x86-64 -g -O0 -fpre-include=/usr/include/finclude/math-vector-fortran.h
REM seed 916927412 31622233 586899686 -379206023 -1622829080 994699539 14679597 206529157 -1370053987 912228056 949129273 1222722258 -1547717575 -691714499 -208826648 -1405588066 1364692297 -845865025 1954949530 -454153192 -1071345329 -1663587987 311109956 -324511384 -388975792 2043676517 543867960 -1432534226 498816485 -110434696 -528346668 -745718075 1268913214
REM
CELL 1.54180   50.00000   50.00000   50.00000   90.00000   90.00000   90.00000
LATT -1
SFAC C  
C      1  0.5690220000000  0.4991160000000  0.4547790000000 1.0
C      1  0.5027750000000  0.4994480000000  0.5741960000000 1.0
C      1  0.4287970000000  0.4999090000000  0.4627100000000 1.0
C      1  0.5668690000000  0.4920110000000  0.4063620000000 1.0
C      1  0.5467680000000  0.4942520000000  0.6028400000000 1.0
C      1  0.3810510000000  0.4975410000000  0.4881080000000 1.0
C      1  0.5421090000000  0.3771600000000  0.5239160000000 1.0
C      1  0.4602200000000  0.3846520000000  0.5208790000000 1.0
C      1  0.5025340000000  0.3775390000000  0.4526290000000 1.0
C      1  0.4399150000000  0.5281470000000  0.3952710000000 1.0
C      1  0.6231330000000  0.5232620000000  0.5022750000000 1.0
C      1  0.4396320000000  0.5136980000000  0.5972830000000 1.0
C      1  0.4130290000000  0.4698950000000  0.5721100000000 1.0
C      1  0.4800450000000  0.4683940000000  0.3967710000000 1.0
C      1  0.6037620000000  0.4686460000000  0.5369050000000 1.0
C      1  0.4506180000000  0.4679700000000  0.3986170000000 1.0
C      1  0.6001460000000  0.4579910000000  0.5101850000000 1.0
C      1  0.4400250000000  0.4602760000000  0.5808910000000 1.0
C      1  0.4920550000000  0.5832050000000  0.4849290000000 1.0
C      1  0.5178040000000  0.5829100000000  0.5002490000000 1.0
C      1  0.4811020000000  0.5830170000000  0.5129460000000 1.0
C      1  0.4821430000000  0.5039960000000  0.4597100000000 1.0
C      1  0.5538090000000  0.4951490000000  0.5029320000000 1.0
C      1  0.4628950000000  0.4988500000000  0.5409200000000 1.0
C      1  0.5332920000000  0.6129000000000  0.5465990000000 1.0
C      1  0.4443090000000  0.6160120000000  0.5029990000000 1.0
C      1  0.5249720000000  0.6147090000000  0.4490980000000 1.0
C      1  0.4750380000000  0.5014480000000  0.5119330000000 1.0
C      1  0.5040160000000  0.5152310000000  0.4796600000000 1.0
C      1  0.5025140000000  0.5122760000000  0.5092920000000 1.0
C      1  0.5282090000000  0.4680940000000  0.4887390000000 1.0
C      1  0.5104950000000  0.4736850000000  0.5300040000000 1.0
C      1  0.4756450000000  0.4718120000000  0.4983360000000 1.0
C      1  0.4509240000000  0.4668240000000  0.4823470000000 1.0
C      1  0.5516730000000  0.4562750000000  0.4726790000000 1.0
C      1  0.4911220000000  0.4603080000000  0.5453240000000 1.0
C      1  0.4715370000000  0.4274660000000  0.5991120000000 1.0
C      1  0.4317380000000  0.4373140000000  0.4321720000000 1.0
C      1  0.6039810000000  0.4266190000000  0.4754150000000 1.0
C      1  0.5908540000000  0.5144260000000  0.5192000000000 1.0
C      1  0.4308050000000  0.5182500000000  0.5708520000000 1.0
C      1  0.4683780000000  0.5106730000000  0.4148190000000 1.0
C      1  0.5165740000000  0.5265160000000  0.5329820000000 1.0
C      1  0.4544720000000  0.5263040000000  0.4994300000000 1.0
C      1  0.5241030000000  0.5289460000000  0.4613830000000 1.0
C      1  0.4274900000000  0.4496420000000  0.5354730000000 1.0
C      1  0.5125610000000  0.4442200000000  0.4277230000000 1.0
C      1  0.5790530000000  0.4287900000000  0.5568160000000 1.0
C      1  0.4153760000000  0.4957180000000  0.5566270000000 1.0
C      1  0.4905190000000  0.4913330000000  0.4112430000000 1.0
C      1  0.5879340000000  0.4932220000000  0.5403260000000 1.0
C      1  0.5730750000000  0.5896470000000  0.4677140000000 1.0
C      1  0.4894650000000  0.5886330000000  0.5763830000000 1.0
C      1  0.4384200000000  0.5913460000000  0.4527520000000 1.0
C      1  0.4461200000000  0.4264510000000  0.5374380000000 1.0
C      1  0.4997850000000  0.4255980000000  0.4461830000000 1.0
C      1  0.5694360000000  0.4147950000000  0.5341790000000 1.0
C      1  0.3924220000000  0.5069320000000  0.5386180000000 1.0
C      1  0.5149700000000  0.5035910000000  0.3968250000000 1.0
C      1  0.5852710000000  0.5056340000000  0.5687160000000 1.0
C      1  0.4727610000000  0.6033860000000  0.5542570000000 1.0
C      1  0.4674300000000  0.6054490000000  0.4497810000000 1.0
C      1  0.5610020000000  0.6037520000000  0.4943760000000 1.0
C      1  0.4859050000000  0.5584810000000  0.4703220000000 1.0
C      1  0.5326580000000  0.5578880000000  0.4993150000000 1.0
C      1  0.4777170000000  0.5570540000000  0.5256400000000 1.0
C      1  0.4244650000000  0.5745070000000  0.5473720000000 1.0
C      1  0.4935640000000  0.5730800000000  0.4114310000000 1.0
C      1  0.5785380000000  0.5742430000000  0.5380710000000 1.0
C      1  0.4885380000000  0.5210810000000  0.5897940000000 1.0
C      1  0.4247880000000  0.5243770000000  0.4443510000000 1.0
C      1  0.5870230000000  0.5225230000000  0.4616220000000 1.0
C      1  0.5171650000000  0.4333190000000  0.5225430000000 1.0
C      1  0.4947220000000  0.4277800000000  0.5022640000000 1.0
C      1  0.4989870000000  0.4381940000000  0.4743330000000 1.0
C      1  0.5447990000000  0.5226520000000  0.6074970000000 1.0
C      1  0.3799970000000  0.5262950000000  0.4839890000000 1.0
C      1  0.5701520000000  0.5212580000000  0.4058080000000 1.0
C      1  0.5299020000000  0.6104760000000  0.4972820000000 1.0
C      1  0.4866800000000  0.6113700000000  0.5265740000000 1.0
C      1  0.4847620000000  0.6116570000000  0.4757690000000 1.0
C      1  0.5524900000000  0.5723670000000  0.4537480000000 1.0
C      1  0.5107930000000  0.5706330000000  0.5646980000000 1.0
C      1  0.4360320000000  0.5732330000000  0.4770100000000 1.0
C      1  0.6161280000000  0.5423760000000  0.5249480000000 1.0
C      1  0.4145900000000  0.5395970000000  0.5794690000000 1.0
C      1  0.4669300000000  0.5368640000000  0.3874070000000 1.0
C      1  0.5811550000000  0.4833340000000  0.4318560000000 1.0
C      1  0.5212300000000  0.4805750000000  0.6013620000000 1.0
C      1  0.3933270000000  0.4858390000000  0.4647580000000 1.0
C      1  0.4709790000000  0.6237330000000  0.5013830000000 1.0
C      1  0.5137880000000  0.6216750000000  0.4733460000000 1.0
C      1  0.5173190000000  0.6191260000000  0.5245780000000 1.0
C      1  0.4237610000000  0.5730730000000  0.5197610000000 1.0
C      1  0.5194720000000  0.5730080000000  0.4224140000000 1.0
C      1  0.5522530000000  0.5648450000000  0.5479230000000 1.0
C      1  0.5630650000000  0.4874260000000  0.5790190000000 1.0
C      1  0.3940570000000  0.4885970000000  0.5141040000000 1.0
C      1  0.5363980000000  0.4845110000000  0.4061370000000 1.0
C      1  0.5297110000000  0.5879150000000  0.4438760000000 1.0
C      1  0.5311810000000  0.5851540000000  0.5494210000000 1.0
C      1  0.4390310000000  0.5886320000000  0.5018200000000 1.0
C      1  0.5988490000000  0.4746080000000  0.4843750000000 1.0
C      1  0.4661050000000  0.4748690000000  0.5877990000000 1.0
C      1  0.4337190000000  0.4834260000000  0.4180380000000 1.0
C      1  0.4086670000000  0.5590120000000  0.4782540000000 1.0
C      1  0.5642120000000  0.5572970000000  0.4300770000000 1.0
C      1  0.5254960000000  0.5560340000000  0.5869550000000 1.0
C      1  0.4913080000000  0.5456130000000  0.4021550000000 1.0
C      1  0.5937750000000  0.5496920000000  0.5446490000000 1.0
C      1  0.4069570000000  0.5522360000000  0.5551450000000 1.0
C      1  0.4447490000000  0.4314250000000  0.5867550000000 1.0
C      1  0.4594860000000  0.4512430000000  0.4320670000000 1.0
C      1  0.6066900000000  0.4300120000000  0.5041140000000 1.0
C      1  0.5421600000000  0.5422850000000  0.5234280000000 1.0
C      1  0.4496900000000  0.5451550000000  0.5259070000000 1.0
C      1  0.5020740000000  0.5468040000000  0.4450720000000 1.0
C      1  0.5181760000000  0.5319830000000  0.4015180000000 1.0
C      1  0.5778880000000  0.5338640000000  0.5664640000000 1.0
C      1  0.3986080000000  0.5351150000000  0.5319100000000 1.0
C      1  0.4966560000000  0.5481420000000  0.5469640000000 1.0
C      1  0.4574030000000  0.5495690000000  0.4750710000000 1.0
C      1  0.5438520000000  0.5495720000000  0.4734350000000 1.0
C      1  0.4551330000000  0.4803960000000  0.4560570000000 1.0
C      1  0.5691690000000  0.4809930000000  0.4788910000000 1.0
C      1  0.4800070000000  0.4827110000000  0.5612380000000 1.0
C      1  0.4863140000000  0.3846560000000  0.4744570000000 1.0
C      1  0.5320520000000  0.3811980000000  0.4984410000000 1.0
C      1  0.4878560000000  0.3840370000000  0.5251390000000 1.0
C      1  0.4764050000000  0.4031690000000  0.5699920000000 1.0
C      1  0.4531760000000  0.4069570000000  0.4429640000000 1.0
C      1  0.5790800000000  0.3997360000000  0.4870150000000 1.0
C      1  0.5137970000000  0.4534830000000  0.5930660000000 1.0
C      1  0.4080730000000  0.4615790000000  0.4606530000000 1.0
C      1  0.5865620000000  0.4548820000000  0.4392230000000 1.0
C      1  0.4786850000000  0.4488250000000  0.5195450000000 1.0
C      1  0.4993540000000  0.4670170000000  0.4768540000000 1.0
C      1  0.5314330000000  0.4599650000000  0.5175440000000 1.0
C      1  0.6092440000000  0.5069870000000  0.4806490000000 1.0
C      1  0.4654590000000  0.5028940000000  0.6019900000000 1.0
C      1  0.4249100000000  0.5122450000000  0.4156720000000 1.0
C      1  0.5466550000000  0.5399510000000  0.4106650000000 1.0
C      1  0.5539660000000  0.5414990000000  0.5851320000000 1.0
C      1  0.3942290000000  0.5446410000000  0.5030100000000 1.0
C      1  0.5407590000000  0.5071950000000  0.4484530000000 1.0
C      1  0.5237960000000  0.5075630000000  0.5550960000000 1.0
C      1  0.4314530000000  0.5097490000000  0.4911710000000 1.0
C      1  0.5596500000000  0.4379490000000  0.5764810000000 1.0
C      1  0.4117130000000  0.4458250000000  0.5103420000000 1.0
C      1  0.5406790000000  0.4443690000000  0.4247730000000 1.0
C      1  0.4011530000000  0.5400660000000  0.4563870000000 1.0
C      1  0.5869900000000  0.5379380000000  0.4343470000000 1.0
C      1  0.5107030000000  0.5366450000000  0.6045580000000 1.0
C      1  0.4484670000000  0.5691470000000  0.4328800000000 1.0
C      1  0.5851790000000  0.5671330000000  0.4871490000000 1.0
C      1  0.4663820000000  0.5670880000000  0.5788470000000 1.0
C      1  0.5715830000000  0.5398270000000  0.4818120000000 1.0
C      1  0.4761630000000  0.5396980000000  0.5686310000000 1.0
C      1  0.4502420000000  0.5416880000000  0.4466510000000 1.0
C      1  0.5644610000000  0.5238690000000  0.5074950000000 1.0
C      1  0.4540470000000  0.5263100000000  0.5520580000000 1.0
C      1  0.4758440000000  0.5264610000000  0.4393570000000 1.0
C      1  0.4279030000000  0.4458120000000  0.4835320000000 1.0
C      1  0.5558360000000  0.4368500000000  0.4486550000000 1.0
C      1  0.5299630000000  0.4347090000000  0.5742700000000 1.0
C      1  0.4734810000000  0.4240990000000  0.4326530000000 1.0
C      1  0.5885460000000  0.4083130000000  0.5130070000000 1.0
C      1  0.4497610000000  0.4136970000000  0.5633790000000 1.0
C      1  0.4450140000000  0.4075280000000  0.5158100000000 1.0
C      1  0.5163290000000  0.4011890000000  0.4461740000000 1.0
C      1  0.5464980000000  0.3985770000000  0.5411050000000 1.0
C      1  0.5447970000000  0.4868210000000  0.5547170000000 1.0
C      1  0.4235900000000  0.4886260000000  0.5094440000000 1.0
C      1  0.5272980000000  0.4851430000000  0.4356130000000 1.0
C      1  0.5438540000000  0.4077760000000  0.4556760000000 1.0
C      1  0.5223740000000  0.4152970000000  0.5490530000000 1.0
C      1  0.4434500000000  0.4168790000000  0.4884470000000 1.0
C      1  0.4525240000000  0.5788900000000  0.5547900000000 1.0
C      1  0.4760850000000  0.5804470000000  0.4332240000000 1.0
C      1  0.5702160000000  0.5788600000000  0.5100800000000 1.0
C      1  0.4846000000000  0.4529190000000  0.5992470000000 1.0
C      1  0.4169480000000  0.4619220000000  0.4325640000000 1.0
C      1  0.6038240000000  0.4529480000000  0.4627970000000 1.0
C      1  0.4594730000000  0.3997560000000  0.4699350000000 1.0
C      1  0.5509730000000  0.3965760000000  0.4813200000000 1.0
C      1  0.4969620000000  0.3978380000000  0.5500780000000 1.0
C      1  0.4358610000000  0.4840440000000  0.5364910000000 1.0
C      1  0.4973210000000  0.4826220000000  0.4422480000000 1.0
C      1  0.5611560000000  0.4815040000000  0.5305290000000 1.0
C      1  0.4020650000000  0.4500620000000  0.5534010000000 1.0
C      1  0.5025980000000  0.4479480000000  0.3994730000000 1.0
C      1  0.5989150000000  0.4501760000000  0.5587700000000 1.0
C      1  0.3871990000000  0.4602940000000  0.5204240000000 1.0
C      1  0.5304070000000  0.4587240000000  0.3908720000000 1.0
C      1  0.5743990000000  0.4615240000000  0.5858560000000 1.0
C      1  0.5024600000000  0.3845250000000  0.4994020000000 1.0
END
