TITL C-3577090-796-51 2.81906209429047e-06 125000 -990.164018978127 0 0 159 (C1) n - 1
REM
REM in /home/bkarasulu/work/CARBON/AIRSS/Generating-Clusters/EDIP-Nigel-Params/with-SteepDescent/Higher-Symm/SD-CG/HFTN-CG
REM
REM
REM
REM
REM
REM ./C.cell (12c818d87b63d06a65506943cc24bca4)
REM
REM compiler GCC version 9.2.1 20190827 (Red Hat 9.2.1-1)
REM options -cpp -mtune=generic -march=x86-64 -g -O0 -fpre-include=/usr/include/finclude/math-vector-fortran.h
REM seed 1281415421 -170453307 -1864110139 -1615907260 -546090142 -340510516 2037945100 1499706856 -1349130336 -1063646990 526702472 884789277 88612961 644547005 983906037 549228992 24435621 -1892774074 -157451557 676426525 35273831 1078570104 -71432131 647522441 -1118616327 1850861227 -194887736 2065933665 1399668905 -1678184480 1204130940 2104655172 -923120214
REM
CELL 1.54180   50.00000   50.00000   50.00000   90.00000   90.00000   90.00000
LATT -1
SFAC C  
C      1  0.4697450000000  0.4801570000000  0.4693920000000 1.0
C      1  0.4720570000000  0.4815490000000  0.5247800000000 1.0
C      1  0.5665270000000  0.4235070000000  0.4871990000000 1.0
C      1  0.5652380000000  0.4236330000000  0.5182120000000 1.0
C      1  0.5421070000000  0.4664610000000  0.4738010000000 1.0
C      1  0.5434340000000  0.4693320000000  0.5323590000000 1.0
C      1  0.4709250000000  0.6065510000000  0.4874260000000 1.0
C      1  0.4725900000000  0.6069880000000  0.5169490000000 1.0
C      1  0.4640540000000  0.5312900000000  0.5308050000000 1.0
C      1  0.4671120000000  0.5320860000000  0.4705060000000 1.0
C      1  0.4868850000000  0.5292090000000  0.6000950000000 1.0
C      1  0.4855800000000  0.5284060000000  0.3932230000000 1.0
C      1  0.4627200000000  0.5769760000000  0.5183560000000 1.0
C      1  0.4514220000000  0.5853600000000  0.4828690000000 1.0
C      1  0.4972560000000  0.6169900000000  0.5251440000000 1.0
C      1  0.4971120000000  0.6048500000000  0.4747300000000 1.0
C      1  0.5147020000000  0.5787510000000  0.5612020000000 1.0
C      1  0.5181460000000  0.5844010000000  0.4307370000000 1.0
C      1  0.4926410000000  0.5622990000000  0.5708440000000 1.0
C      1  0.4946630000000  0.5667880000000  0.4280940000000 1.0
C      1  0.5392570000000  0.5442100000000  0.5879580000000 1.0
C      1  0.5381860000000  0.5479170000000  0.4027430000000 1.0
C      1  0.5124100000000  0.4792110000000  0.5951880000000 1.0
C      1  0.5119600000000  0.4814960000000  0.4034320000000 1.0
C      1  0.5922020000000  0.4948840000000  0.4894570000000 1.0
C      1  0.5973960000000  0.4920010000000  0.5192180000000 1.0
C      1  0.5781940000000  0.5389890000000  0.4567180000000 1.0
C      1  0.5819740000000  0.5388220000000  0.5342870000000 1.0
C      1  0.5502420000000  0.4558740000000  0.4219850000000 1.0
C      1  0.5498810000000  0.4497510000000  0.5836940000000 1.0
C      1  0.5368540000000  0.4143000000000  0.5603110000000 1.0
C      1  0.5385950000000  0.4195270000000  0.4448470000000 1.0
C      1  0.4339010000000  0.5463590000000  0.4590000000000 1.0
C      1  0.4311230000000  0.5459580000000  0.5421700000000 1.0
C      1  0.5618770000000  0.5527010000000  0.4788030000000 1.0
C      1  0.5602010000000  0.5511990000000  0.5176180000000 1.0
C      1  0.5922030000000  0.4658660000000  0.5320350000000 1.0
C      1  0.5910250000000  0.4710600000000  0.4715420000000 1.0
C      1  0.4576150000000  0.4339440000000  0.4873930000000 1.0
C      1  0.4586490000000  0.4341270000000  0.5191930000000 1.0
C      1  0.5658350000000  0.4805140000000  0.4247830000000 1.0
C      1  0.5684470000000  0.4721400000000  0.5805690000000 1.0
C      1  0.5655580000000  0.5751990000000  0.5629240000000 1.0
C      1  0.5673560000000  0.5782480000000  0.4278010000000 1.0
C      1  0.4960140000000  0.3977670000000  0.4745870000000 1.0
C      1  0.4949760000000  0.3949570000000  0.5284750000000 1.0
C      1  0.4751090000000  0.4504900000000  0.5901100000000 1.0
C      1  0.4757960000000  0.4525920000000  0.4133760000000 1.0
C      1  0.5575840000000  0.4997560000000  0.5874170000000 1.0
C      1  0.5556510000000  0.5042530000000  0.4111720000000 1.0
C      1  0.4144650000000  0.5043890000000  0.5542650000000 1.0
C      1  0.4164740000000  0.5045540000000  0.4469350000000 1.0
C      1  0.4472620000000  0.5704270000000  0.5432060000000 1.0
C      1  0.4496330000000  0.5708500000000  0.4583660000000 1.0
C      1  0.4712770000000  0.5029340000000  0.6058110000000 1.0
C      1  0.4696550000000  0.5031040000000  0.3928390000000 1.0
C      1  0.5251130000000  0.4566700000000  0.4066740000000 1.0
C      1  0.5241580000000  0.4536760000000  0.5971160000000 1.0
C      1  0.5122440000000  0.4926110000000  0.4462860000000 1.0
C      1  0.5071460000000  0.4846370000000  0.5518100000000 1.0
C      1  0.4614510000000  0.4170200000000  0.4464610000000 1.0
C      1  0.4601150000000  0.4136910000000  0.5584910000000 1.0
C      1  0.4298290000000  0.4529650000000  0.4370640000000 1.0
C      1  0.4311550000000  0.4530760000000  0.5644930000000 1.0
C      1  0.5162190000000  0.5060360000000  0.4735930000000 1.0
C      1  0.5033210000000  0.5126440000000  0.5264600000000 1.0
C      1  0.4595800000000  0.5356920000000  0.4204950000000 1.0
C      1  0.4582280000000  0.5410810000000  0.5883710000000 1.0
C      1  0.5091020000000  0.4260200000000  0.5633550000000 1.0
C      1  0.5110560000000  0.4316130000000  0.4417600000000 1.0
C      1  0.5298190000000  0.5011580000000  0.5984780000000 1.0
C      1  0.5283820000000  0.5042360000000  0.4014170000000 1.0
C      1  0.4830000000000  0.4802300000000  0.5894560000000 1.0
C      1  0.4830880000000  0.4824920000000  0.4109420000000 1.0
C      1  0.5202080000000  0.4029220000000  0.4879400000000 1.0
C      1  0.5205470000000  0.3992520000000  0.5161020000000 1.0
C      1  0.4984480000000  0.5354470000000  0.5579190000000 1.0
C      1  0.5019490000000  0.5407770000000  0.4392810000000 1.0
C      1  0.4695030000000  0.5750320000000  0.4385430000000 1.0
C      1  0.4648710000000  0.5723760000000  0.5664260000000 1.0
C      1  0.5146470000000  0.5351050000000  0.4843100000000 1.0
C      1  0.5232910000000  0.5276860000000  0.5115810000000 1.0
C      1  0.4129250000000  0.5350440000000  0.5223450000000 1.0
C      1  0.4147190000000  0.5357470000000  0.4782100000000 1.0
C      1  0.4886290000000  0.4053390000000  0.5546570000000 1.0
C      1  0.4901890000000  0.4106940000000  0.4500770000000 1.0
C      1  0.5018150000000  0.4359220000000  0.5906660000000 1.0
C      1  0.5031260000000  0.4390100000000  0.4140400000000 1.0
C      1  0.5259300000000  0.4837720000000  0.5124680000000 1.0
C      1  0.5386370000000  0.4918610000000  0.4869860000000 1.0
C      1  0.4229910000000  0.4652980000000  0.4643830000000 1.0
C      1  0.4253710000000  0.4664350000000  0.5375280000000 1.0
C      1  0.5302880000000  0.5862740000000  0.5147240000000 1.0
C      1  0.5468870000000  0.6015060000000  0.4691100000000 1.0
C      1  0.4621640000000  0.5066530000000  0.5129700000000 1.0
C      1  0.4653540000000  0.5061480000000  0.4844320000000 1.0
C      1  0.4047790000000  0.4533930000000  0.5205790000000 1.0
C      1  0.4031220000000  0.4522340000000  0.4817080000000 1.0
C      1  0.4456740000000  0.5136760000000  0.4071910000000 1.0
C      1  0.4458800000000  0.5135540000000  0.5934100000000 1.0
C      1  0.5149470000000  0.5291170000000  0.3986680000000 1.0
C      1  0.5170780000000  0.5267380000000  0.5964050000000 1.0
C      1  0.4491660000000  0.4628930000000  0.5199930000000 1.0
C      1  0.4473970000000  0.4629590000000  0.4812490000000 1.0
C      1  0.4095030000000  0.5062870000000  0.4748460000000 1.0
C      1  0.4083320000000  0.5056470000000  0.5258480000000 1.0
C      1  0.5417560000000  0.5745660000000  0.4154940000000 1.0
C      1  0.5401670000000  0.5705330000000  0.5749730000000 1.0
C      1  0.4774420000000  0.5254090000000  0.4421530000000 1.0
C      1  0.4729760000000  0.5206910000000  0.5588980000000 1.0
C      1  0.4442480000000  0.4117950000000  0.4711050000000 1.0
C      1  0.4435380000000  0.4111290000000  0.5330600000000 1.0
C      1  0.4887350000000  0.4338430000000  0.4869010000000 1.0
C      1  0.4917040000000  0.4322180000000  0.5200520000000 1.0
C      1  0.5624770000000  0.5333900000000  0.4103510000000 1.0
C      1  0.5636100000000  0.5296180000000  0.5815900000000 1.0
C      1  0.5337510000000  0.5524350000000  0.4674780000000 1.0
C      1  0.5339250000000  0.5439840000000  0.5320390000000 1.0
C      1  0.5676260000000  0.4550340000000  0.5185230000000 1.0
C      1  0.5677520000000  0.4548970000000  0.4835250000000 1.0
C      1  0.3919100000000  0.5512510000000  0.5131020000000 1.0
C      1  0.3936280000000  0.5524320000000  0.4863100000000 1.0
C      1  0.4577690000000  0.4436800000000  0.4354020000000 1.0
C      1  0.4581490000000  0.4414940000000  0.5675300000000 1.0
C      1  0.5675380000000  0.5845430000000  0.4842670000000 1.0
C      1  0.5588710000000  0.5809030000000  0.5124950000000 1.0
C      1  0.5240980000000  0.5820730000000  0.4601370000000 1.0
C      1  0.5145830000000  0.5676430000000  0.5323380000000 1.0
C      1  0.5771380000000  0.5513960000000  0.4296060000000 1.0
C      1  0.5769950000000  0.5486980000000  0.5623240000000 1.0
C      1  0.4254880000000  0.4703530000000  0.5859380000000 1.0
C      1  0.4242050000000  0.4702120000000  0.4152600000000 1.0
C      1  0.5646870000000  0.5104890000000  0.4877900000000 1.0
C      1  0.5735070000000  0.5102430000000  0.5259900000000 1.0
C      1  0.4839340000000  0.5549870000000  0.5170810000000 1.0
C      1  0.4877780000000  0.5475780000000  0.4872570000000 1.0
C      1  0.4784600000000  0.4900700000000  0.5595700000000 1.0
C      1  0.4830720000000  0.4948360000000  0.4398720000000 1.0
C      1  0.4137810000000  0.4249360000000  0.4878690000000 1.0
C      1  0.4135740000000  0.4248460000000  0.5165630000000 1.0
C      1  0.5873840000000  0.4698920000000  0.5597490000000 1.0
C      1  0.5855790000000  0.4844560000000  0.4454930000000 1.0
C      1  0.4313810000000  0.4954460000000  0.4249840000000 1.0
C      1  0.4305980000000  0.4958840000000  0.5758940000000 1.0
C      1  0.5221050000000  0.6178410000000  0.4846140000000 1.0
C      1  0.5226840000000  0.6138860000000  0.5139630000000 1.0
C      1  0.5431650000000  0.4119120000000  0.4729610000000 1.0
C      1  0.5410740000000  0.4126310000000  0.5313140000000 1.0
C      1  0.5625830000000  0.5136950000000  0.4536850000000 1.0
C      1  0.5550700000000  0.4948490000000  0.5466250000000 1.0
C      1  0.5309580000000  0.5256780000000  0.4400500000000 1.0
C      1  0.5307330000000  0.5145050000000  0.5563540000000 1.0
C      1  0.4979690000000  0.4733160000000  0.5078780000000 1.0
C      1  0.4938540000000  0.4631740000000  0.4801090000000 1.0
C      1  0.5101970000000  0.4511960000000  0.5428860000000 1.0
C      1  0.5161320000000  0.4624810000000  0.4587370000000 1.0
C      1  0.5598010000000  0.4312570000000  0.4309140000000 1.0
C      1  0.5575140000000  0.4240030000000  0.5765350000000 1.0
C      1  0.4075230000000  0.4867760000000  0.4999990000000 1.0
END
