TITL C-3578205-846-187 -3.39051679022403e-06 125000 -812.906621170884 0 0 129 (C1) n - 1
REM
REM in /home/bkarasulu/work/CARBON/AIRSS/Generating-Clusters/EDIP-Nigel-Params/with-SteepDescent/Higher-Symm/SD-CG/HFTN-CG
REM
REM
REM
REM
REM
REM ./C.cell (12c818d87b63d06a65506943cc24bca4)
REM
REM compiler GCC version 9.2.1 20190827 (Red Hat 9.2.1-1)
REM options -cpp -mtune=generic -march=x86-64 -g -O0 -fpre-include=/usr/include/finclude/math-vector-fortran.h
REM seed 249945561 1612926759 552517280 1502758299 437743696 1046740753 -492427774 -36390972 -61864165 -15649101 -1064349456 1578496045 -1576521814 -547548069 997778049 1799642744 -1670173440 1009148854 1615240436 -1402071539 -1239545654 169424570 440644044 867078447 -1913098025 172343472 -340592146 1612721820 -1105634165 -1302692537 -1915335420 362375509 1805751424
REM
CELL 1.54180   50.00000   50.00000   50.00000   90.00000   90.00000   90.00000
LATT -1
SFAC C  
C      1  0.4167100000000  0.5522150000000  0.5235110000000 1.0
C      1  0.4160960000000  0.4791820000000  0.5531650000000 1.0
C      1  0.4160410000000  0.4481790000000  0.4786320000000 1.0
C      1  0.4192680000000  0.5238660000000  0.4398510000000 1.0
C      1  0.5874720000000  0.5519040000000  0.5223720000000 1.0
C      1  0.5857760000000  0.4816910000000  0.5534550000000 1.0
C      1  0.5809730000000  0.4489770000000  0.4789860000000 1.0
C      1  0.5826240000000  0.5213470000000  0.4462430000000 1.0
C      1  0.3894570000000  0.4931660000000  0.5130980000000 1.0
C      1  0.3827800000000  0.4863790000000  0.4858310000000 1.0
C      1  0.3774630000000  0.5141320000000  0.4761560000000 1.0
C      1  0.3805790000000  0.5209040000000  0.5137790000000 1.0
C      1  0.6145170000000  0.4931540000000  0.5123490000000 1.0
C      1  0.6173610000000  0.4861710000000  0.4842610000000 1.0
C      1  0.6238890000000  0.5079820000000  0.4678460000000 1.0
C      1  0.6231880000000  0.5188750000000  0.5188820000000 1.0
C      1  0.5406480000000  0.5729780000000  0.5289120000000 1.0
C      1  0.5391250000000  0.4717290000000  0.5754050000000 1.0
C      1  0.5371730000000  0.4205940000000  0.4703510000000 1.0
C      1  0.5358340000000  0.5282260000000  0.4238420000000 1.0
C      1  0.4628750000000  0.5790130000000  0.5302900000000 1.0
C      1  0.4602560000000  0.4697470000000  0.5793680000000 1.0
C      1  0.4625390000000  0.4244960000000  0.4725490000000 1.0
C      1  0.4664640000000  0.5329410000000  0.4213400000000 1.0
C      1  0.5553590000000  0.5466970000000  0.5654530000000 1.0
C      1  0.5572980000000  0.4385850000000  0.5488550000000 1.0
C      1  0.5513560000000  0.4541660000000  0.4387370000000 1.0
C      1  0.5557460000000  0.5645970000000  0.4534920000000 1.0
C      1  0.4432420000000  0.5479810000000  0.5662030000000 1.0
C      1  0.4449160000000  0.4358490000000  0.5466140000000 1.0
C      1  0.4467440000000  0.4543390000000  0.4389360000000 1.0
C      1  0.4442370000000  0.5628050000000  0.4532410000000 1.0
C      1  0.5334910000000  0.4742560000000  0.4863200000000 1.0
C      1  0.5240780000000  0.5198960000000  0.4699890000000 1.0
C      1  0.5172300000000  0.5307540000000  0.5225530000000 1.0
C      1  0.5204940000000  0.4786060000000  0.5291100000000 1.0
C      1  0.4744000000000  0.4694340000000  0.4847690000000 1.0
C      1  0.4761120000000  0.5192030000000  0.4709630000000 1.0
C      1  0.4730250000000  0.5304790000000  0.5231260000000 1.0
C      1  0.4733170000000  0.4770250000000  0.5291820000000 1.0
C      1  0.5404640000000  0.4950250000000  0.4681130000000 1.0
C      1  0.5231650000000  0.5353020000000  0.4944290000000 1.0
C      1  0.5241580000000  0.5073660000000  0.5372560000000 1.0
C      1  0.5431530000000  0.4693300000000  0.5126300000000 1.0
C      1  0.4632700000000  0.4925130000000  0.4682340000000 1.0
C      1  0.4651690000000  0.5370410000000  0.4929110000000 1.0
C      1  0.4667480000000  0.5060500000000  0.5388780000000 1.0
C      1  0.4536620000000  0.4659090000000  0.5092090000000 1.0
C      1  0.4886540000000  0.4342710000000  0.5073290000000 1.0
C      1  0.4757120000000  0.4895140000000  0.4209710000000 1.0
C      1  0.4833900000000  0.5625990000000  0.4950570000000 1.0
C      1  0.4848250000000  0.5025420000000  0.5639420000000 1.0
C      1  0.5143830000000  0.4415180000000  0.4930700000000 1.0
C      1  0.5025790000000  0.4955320000000  0.4331690000000 1.0
C      1  0.5147610000000  0.5634330000000  0.4891320000000 1.0
C      1  0.5151920000000  0.5119910000000  0.5650840000000 1.0
C      1  0.5653390000000  0.4627250000000  0.5640690000000 1.0
C      1  0.5602930000000  0.4377300000000  0.4613610000000 1.0
C      1  0.5619860000000  0.5399220000000  0.4370170000000 1.0
C      1  0.5648170000000  0.5592560000000  0.5397000000000 1.0
C      1  0.4366060000000  0.4599280000000  0.5629050000000 1.0
C      1  0.4387990000000  0.4392320000000  0.4626610000000 1.0
C      1  0.4398960000000  0.5435450000000  0.4307310000000 1.0
C      1  0.4367150000000  0.5643490000000  0.5413500000000 1.0
C      1  0.5305780000000  0.4980660000000  0.4216340000000 1.0
C      1  0.5397520000000  0.5776150000000  0.4998270000000 1.0
C      1  0.5376480000000  0.5005140000000  0.5812580000000 1.0
C      1  0.5343860000000  0.4231260000000  0.5088040000000 1.0
C      1  0.4682530000000  0.5110900000000  0.4031470000000 1.0
C      1  0.4687300000000  0.5873420000000  0.5022810000000 1.0
C      1  0.4625720000000  0.5010360000000  0.5857850000000 1.0
C      1  0.4626520000000  0.4200510000000  0.5019110000000 1.0
C      1  0.5613250000000  0.5183750000000  0.5744060000000 1.0
C      1  0.5553010000000  0.4425000000000  0.5189550000000 1.0
C      1  0.5508700000000  0.4851130000000  0.4409390000000 1.0
C      1  0.5621420000000  0.5672230000000  0.4829660000000 1.0
C      1  0.4420070000000  0.5170970000000  0.5676560000000 1.0
C      1  0.4427760000000  0.4387750000000  0.5160930000000 1.0
C      1  0.4523580000000  0.4843850000000  0.4409000000000 1.0
C      1  0.4370450000000  0.5484790000000  0.4789510000000 1.0
C      1  0.5871540000000  0.5072710000000  0.5672600000000 1.0
C      1  0.5817400000000  0.4390400000000  0.5058650000000 1.0
C      1  0.5789210000000  0.4946930000000  0.4361180000000 1.0
C      1  0.5879300000000  0.5609740000000  0.4946320000000 1.0
C      1  0.4154860000000  0.5052400000000  0.5655410000000 1.0
C      1  0.4149630000000  0.4370110000000  0.5054270000000 1.0
C      1  0.4248100000000  0.4958700000000  0.4329490000000 1.0
C      1  0.4151020000000  0.5613860000000  0.4962430000000 1.0
C      1  0.4834410000000  0.4625360000000  0.4103670000000 1.0
C      1  0.4842700000000  0.5885910000000  0.4665150000000 1.0
C      1  0.4844060000000  0.5342690000000  0.5861380000000 1.0
C      1  0.4885020000000  0.4159220000000  0.5308830000000 1.0
C      1  0.5128580000000  0.4642820000000  0.4128640000000 1.0
C      1  0.5130340000000  0.5895930000000  0.4614110000000 1.0
C      1  0.5122970000000  0.5415980000000  0.5893100000000 1.0
C      1  0.5186310000000  0.4148250000000  0.5338010000000 1.0
C      1  0.4041170000000  0.4794570000000  0.4427150000000 1.0
C      1  0.3927380000000  0.5481510000000  0.4810310000000 1.0
C      1  0.3964760000000  0.5234500000000  0.5568930000000 1.0
C      1  0.3959100000000  0.4474120000000  0.5226830000000 1.0
C      1  0.5984020000000  0.4756510000000  0.4427740000000 1.0
C      1  0.6063600000000  0.5508230000000  0.4763480000000 1.0
C      1  0.6051010000000  0.5269970000000  0.5591880000000 1.0
C      1  0.6021710000000  0.4488250000000  0.5217530000000 1.0
C      1  0.3932590000000  0.5378110000000  0.5332680000000 1.0
C      1  0.3953940000000  0.4730330000000  0.5333750000000 1.0
C      1  0.3991880000000  0.4696610000000  0.4684580000000 1.0
C      1  0.4136010000000  0.5262720000000  0.4693900000000 1.0
C      1  0.6099120000000  0.5378130000000  0.5341630000000 1.0
C      1  0.6053760000000  0.4741230000000  0.5326390000000 1.0
C      1  0.6020340000000  0.4664550000000  0.4689310000000 1.0
C      1  0.6076320000000  0.5290420000000  0.4590520000000 1.0
C      1  0.5257110000000  0.4439590000000  0.4299950000000 1.0
C      1  0.5268610000000  0.5678170000000  0.4477730000000 1.0
C      1  0.5267860000000  0.5540270000000  0.5676940000000 1.0
C      1  0.5287590000000  0.4326500000000  0.5548830000000 1.0
C      1  0.4724870000000  0.4439670000000  0.4309520000000 1.0
C      1  0.4729690000000  0.5655810000000  0.4519470000000 1.0
C      1  0.4714240000000  0.5534530000000  0.5688720000000 1.0
C      1  0.4736130000000  0.4298940000000  0.5531940000000 1.0
C      1  0.5131020000000  0.4288600000000  0.4526010000000 1.0
C      1  0.5169520000000  0.5384290000000  0.4456620000000 1.0
C      1  0.5154130000000  0.5568250000000  0.5391520000000 1.0
C      1  0.5164390000000  0.4607560000000  0.5563420000000 1.0
C      1  0.4849230000000  0.4413340000000  0.4598510000000 1.0
C      1  0.4838960000000  0.5374960000000  0.4463020000000 1.0
C      1  0.4808690000000  0.5556950000000  0.5400920000000 1.0
C      1  0.4815450000000  0.4589220000000  0.5572520000000 1.0
C      1  0.4963830000000  0.4777380000000  0.5103700000000 1.0
END
