TITL C-3578209-2550-673 -1.31411803280663e-06 125000 -615.7436668856 0 0 99 (C1) n - 1
REM
REM in /home/bkarasulu/work/CARBON/AIRSS/Generating-Clusters/EDIP-Nigel-Params/with-SteepDescent/Higher-Symm/SD-CG/HFTN-CG
REM
REM
REM
REM
REM
REM ./C.cell (12c818d87b63d06a65506943cc24bca4)
REM
REM compiler GCC version 9.2.1 20190827 (Red Hat 9.2.1-1)
REM options -cpp -mtune=generic -march=x86-64 -g -O0 -fpre-include=/usr/include/finclude/math-vector-fortran.h
REM seed -1830533820 1661856935 -403511330 624488711 1545001832 793512260 1559777773 -1832418877 -1834309874 -1268245725 201212322 880548741 -250500694 1508378087 1169255924 -1965438600 -156770934 -105626254 -746864634 259707377 1556494180 -770301446 906076667 -478958963 -1603345605 -691706169 -1498699017 928553303 972071260 1726762099 -1868892717 -27369547 277347195
REM
CELL 1.54180   50.00000   50.00000   50.00000   90.00000   90.00000   90.00000
LATT -1
SFAC C  
C      1  0.5362660000000  0.4654160000000  0.5261640000000 1.0
C      1  0.5068410000000  0.4608910000000  0.4461100000000 1.0
C      1  0.4566990000000  0.4619090000000  0.5203960000000 1.0
C      1  0.5613370000000  0.4887940000000  0.5229780000000 1.0
C      1  0.4943310000000  0.4847840000000  0.4321320000000 1.0
C      1  0.4483570000000  0.4848700000000  0.5392740000000 1.0
C      1  0.4823260000000  0.5753620000000  0.5251000000000 1.0
C      1  0.5367070000000  0.5745590000000  0.5052710000000 1.0
C      1  0.4799610000000  0.5761020000000  0.4644760000000 1.0
C      1  0.4452750000000  0.4786490000000  0.5662110000000 1.0
C      1  0.5870140000000  0.4763930000000  0.5189400000000 1.0
C      1  0.4705950000000  0.4814370000000  0.4181780000000 1.0
C      1  0.4471310000000  0.4132590000000  0.4812620000000 1.0
C      1  0.5118200000000  0.4141250000000  0.5519980000000 1.0
C      1  0.5382920000000  0.4174680000000  0.4620120000000 1.0
C      1  0.4575900000000  0.5156380000000  0.4614930000000 1.0
C      1  0.4870830000000  0.5198290000000  0.5585690000000 1.0
C      1  0.5576050000000  0.5085700000000  0.4949920000000 1.0
C      1  0.5742190000000  0.4765640000000  0.4695640000000 1.0
C      1  0.4360900000000  0.4778620000000  0.4538630000000 1.0
C      1  0.4922950000000  0.4754860000000  0.5781480000000 1.0
C      1  0.5128920000000  0.4625580000000  0.4778660000000 1.0
C      1  0.4852030000000  0.4655520000000  0.4946270000000 1.0
C      1  0.4992150000000  0.4652880000000  0.5241840000000 1.0
C      1  0.5843220000000  0.4641520000000  0.4939920000000 1.0
C      1  0.4505230000000  0.4670990000000  0.4309500000000 1.0
C      1  0.4657880000000  0.4639140000000  0.5774340000000 1.0
C      1  0.5568090000000  0.5772340000000  0.5267160000000 1.0
C      1  0.4901340000000  0.5758110000000  0.4368650000000 1.0
C      1  0.4536050000000  0.5741340000000  0.5292730000000 1.0
C      1  0.5193960000000  0.5989740000000  0.5016460000000 1.0
C      1  0.4866120000000  0.6005420000000  0.4811730000000 1.0
C      1  0.4916260000000  0.6002060000000  0.5103090000000 1.0
C      1  0.5274070000000  0.5096970000000  0.5843180000000 1.0
C      1  0.5597170000000  0.5110650000000  0.4380800000000 1.0
C      1  0.4120800000000  0.5092010000000  0.4826910000000 1.0
C      1  0.5261280000000  0.5315010000000  0.5312780000000 1.0
C      1  0.5121690000000  0.5336280000000  0.4657270000000 1.0
C      1  0.4654600000000  0.5339000000000  0.5072730000000 1.0
C      1  0.5269830000000  0.4946540000000  0.4955240000000 1.0
C      1  0.4795080000000  0.4966000000000  0.4813620000000 1.0
C      1  0.4901660000000  0.4976520000000  0.5312740000000 1.0
C      1  0.4632240000000  0.5405090000000  0.5633760000000 1.0
C      1  0.5696190000000  0.5365940000000  0.5038010000000 1.0
C      1  0.4638720000000  0.5345140000000  0.4366220000000 1.0
C      1  0.5423010000000  0.4625990000000  0.4335910000000 1.0
C      1  0.4262150000000  0.4614700000000  0.4986960000000 1.0
C      1  0.5368480000000  0.4632380000000  0.5635070000000 1.0
C      1  0.4933710000000  0.5544250000000  0.4773150000000 1.0
C      1  0.4905930000000  0.5524760000000  0.5065300000000 1.0
C      1  0.5197680000000  0.5510080000000  0.5123270000000 1.0
C      1  0.4701410000000  0.4371880000000  0.5652540000000 1.0
C      1  0.5698150000000  0.4385210000000  0.4948790000000 1.0
C      1  0.4584330000000  0.4395870000000  0.4392600000000 1.0
C      1  0.4267440000000  0.4562800000000  0.4704490000000 1.0
C      1  0.5130620000000  0.4555650000000  0.5781490000000 1.0
C      1  0.5638360000000  0.4565250000000  0.4516350000000 1.0
C      1  0.4955480000000  0.5685920000000  0.5523730000000 1.0
C      1  0.5500090000000  0.5679340000000  0.4789490000000 1.0
C      1  0.4517400000000  0.5654840000000  0.4656550000000 1.0
C      1  0.5655510000000  0.5502910000000  0.5295950000000 1.0
C      1  0.4901540000000  0.5476520000000  0.4308990000000 1.0
C      1  0.4449480000000  0.5499130000000  0.5414530000000 1.0
C      1  0.4296800000000  0.5301820000000  0.5229690000000 1.0
C      1  0.5577470000000  0.5326940000000  0.5534780000000 1.0
C      1  0.5164980000000  0.5312970000000  0.4273740000000 1.0
C      1  0.4181910000000  0.4888970000000  0.5037130000000 1.0
C      1  0.5456610000000  0.4902110000000  0.5698310000000 1.0
C      1  0.5404030000000  0.4909800000000  0.4284260000000 1.0
C      1  0.4452540000000  0.5562010000000  0.4394800000000 1.0
C      1  0.4754770000000  0.5648160000000  0.5721730000000 1.0
C      1  0.5757670000000  0.5557560000000  0.4832350000000 1.0
C      1  0.4977200000000  0.5038410000000  0.5820860000000 1.0
C      1  0.5753280000000  0.5038530000000  0.4615440000000 1.0
C      1  0.4226740000000  0.5029260000000  0.4560660000000 1.0
C      1  0.5330810000000  0.5372050000000  0.5737330000000 1.0
C      1  0.5458190000000  0.5370620000000  0.4384370000000 1.0
C      1  0.4218800000000  0.5351510000000  0.4933350000000 1.0
C      1  0.4991850000000  0.4303810000000  0.5709380000000 1.0
C      1  0.5616520000000  0.4318610000000  0.4666480000000 1.0
C      1  0.4392910000000  0.4315590000000  0.4612180000000 1.0
C      1  0.4725940000000  0.5058090000000  0.5086610000000 1.0
C      1  0.5176140000000  0.5049520000000  0.5224150000000 1.0
C      1  0.5072610000000  0.5062510000000  0.4759160000000 1.0
C      1  0.5043050000000  0.4269130000000  0.5271990000000 1.0
C      1  0.5191460000000  0.4301420000000  0.4798370000000 1.0
C      1  0.4716020000000  0.4233710000000  0.4903270000000 1.0
C      1  0.5146930000000  0.5020740000000  0.4208960000000 1.0
C      1  0.4262900000000  0.5009080000000  0.5288560000000 1.0
C      1  0.5624910000000  0.5033880000000  0.5498930000000 1.0
C      1  0.4881630000000  0.4355360000000  0.4452090000000 1.0
C      1  0.4605460000000  0.4353620000000  0.5357280000000 1.0
C      1  0.5474710000000  0.4386930000000  0.5154460000000 1.0
C      1  0.4774890000000  0.4185780000000  0.5183590000000 1.0
C      1  0.5252430000000  0.4220200000000  0.5075430000000 1.0
C      1  0.4926920000000  0.4205050000000  0.4707320000000 1.0
C      1  0.4491070000000  0.5387970000000  0.4814160000000 1.0
C      1  0.5094400000000  0.5407240000000  0.5545560000000 1.0
C      1  0.5431710000000  0.5394070000000  0.4683160000000 1.0
END
