TITL C-3577077-324-30 -2.11721210589302e-06 125000 -987.092787365539 0 0 159 (C1) n - 1
REM
REM in /home/bkarasulu/work/CARBON/AIRSS/Generating-Clusters/EDIP-Nigel-Params/with-SteepDescent/Higher-Symm/SD-CG/HFTN-CG
REM
REM
REM
REM
REM
REM ./C.cell (12c818d87b63d06a65506943cc24bca4)
REM
REM compiler GCC version 9.2.1 20190827 (Red Hat 9.2.1-1)
REM options -cpp -mtune=generic -march=x86-64 -g -O0 -fpre-include=/usr/include/finclude/math-vector-fortran.h
REM seed 1331467556 -1848163666 -1072965125 1759244987 -1620349512 659542451 -712760349 -1667547828 671542407 -1541841384 -486450948 556685063 1213161027 1605205257 -945882862 -1247522238 -29184923 676223086 1907353767 -1671833030 -1966310205 470787662 1638782161 -816777978 612404515 -1664558682 1669452490 239443642 845147686 1484852017 826701714 1871749769 -797065926
REM
CELL 1.54180   50.00000   50.00000   50.00000   90.00000   90.00000   90.00000
LATT -1
SFAC C  
C      1  0.4784000000000  0.4335710000000  0.4172530000000 1.0
C      1  0.4725560000000  0.5582310000000  0.4143420000000 1.0
C      1  0.4737200000000  0.5978400000000  0.5277620000000 1.0
C      1  0.4746380000000  0.5037410000000  0.6009030000000 1.0
C      1  0.4708750000000  0.4002600000000  0.5374350000000 1.0
C      1  0.5287770000000  0.4707570000000  0.5337460000000 1.0
C      1  0.5211500000000  0.4593510000000  0.4841550000000 1.0
C      1  0.5288430000000  0.5074040000000  0.4472370000000 1.0
C      1  0.5314000000000  0.5516680000000  0.4898420000000 1.0
C      1  0.5305490000000  0.5245130000000  0.5397510000000 1.0
C      1  0.4927590000000  0.3981220000000  0.5166120000000 1.0
C      1  0.5008980000000  0.4533550000000  0.4115120000000 1.0
C      1  0.4970110000000  0.5706730000000  0.4276110000000 1.0
C      1  0.4979000000000  0.5890910000000  0.5437240000000 1.0
C      1  0.4962480000000  0.4830550000000  0.5958330000000 1.0
C      1  0.4285370000000  0.4873490000000  0.4565050000000 1.0
C      1  0.4253330000000  0.5378170000000  0.4752670000000 1.0
C      1  0.4204270000000  0.5354500000000  0.5282500000000 1.0
C      1  0.4162540000000  0.4833880000000  0.5428430000000 1.0
C      1  0.4076640000000  0.4450910000000  0.4900370000000 1.0
C      1  0.4623430000000  0.4766110000000  0.4087360000000 1.0
C      1  0.4591490000000  0.5806380000000  0.4539420000000 1.0
C      1  0.4578580000000  0.5684980000000  0.5609510000000 1.0
C      1  0.4544560000000  0.4631420000000  0.5855480000000 1.0
C      1  0.4508060000000  0.3997250000000  0.4925080000000 1.0
C      1  0.4858690000000  0.4954180000000  0.5451970000000 1.0
C      1  0.4788670000000  0.4478220000000  0.5098020000000 1.0
C      1  0.4937160000000  0.4719320000000  0.4964060000000 1.0
C      1  0.4952650000000  0.5205000000000  0.4713250000000 1.0
C      1  0.4886950000000  0.5449930000000  0.5145050000000 1.0
C      1  0.5679900000000  0.5710200000000  0.5264850000000 1.0
C      1  0.5669000000000  0.4932870000000  0.5756870000000 1.0
C      1  0.5593160000000  0.4232030000000  0.5241780000000 1.0
C      1  0.5688070000000  0.4742970000000  0.4250910000000 1.0
C      1  0.5654390000000  0.5516100000000  0.4385330000000 1.0
C      1  0.4947040000000  0.5873270000000  0.4888750000000 1.0
C      1  0.4974500000000  0.5315290000000  0.5746900000000 1.0
C      1  0.4934080000000  0.4392760000000  0.5534310000000 1.0
C      1  0.4913710000000  0.4303050000000  0.4595390000000 1.0
C      1  0.4886330000000  0.5168570000000  0.4116230000000 1.0
C      1  0.5671380000000  0.5733240000000  0.4633840000000 1.0
C      1  0.5686840000000  0.5557410000000  0.5559660000000 1.0
C      1  0.5670230000000  0.4614920000000  0.5694460000000 1.0
C      1  0.5626370000000  0.4154890000000  0.4948660000000 1.0
C      1  0.5665990000000  0.5031150000000  0.4119270000000 1.0
C      1  0.5936140000000  0.4705680000000  0.4980160000000 1.0
C      1  0.5821720000000  0.4772700000000  0.4515690000000 1.0
C      1  0.5958600000000  0.5178680000000  0.4773420000000 1.0
C      1  0.5952180000000  0.5323570000000  0.5189590000000 1.0
C      1  0.5938710000000  0.4908900000000  0.5371090000000 1.0
C      1  0.4546020000000  0.4516450000000  0.4229520000000 1.0
C      1  0.4540560000000  0.5569160000000  0.4375030000000 1.0
C      1  0.4517870000000  0.5774040000000  0.5332520000000 1.0
C      1  0.4512550000000  0.4932820000000  0.5807450000000 1.0
C      1  0.4449790000000  0.4089680000000  0.5223910000000 1.0
C      1  0.5518000000000  0.5125990000000  0.5221670000000 1.0
C      1  0.5505940000000  0.4824240000000  0.5168080000000 1.0
C      1  0.5471400000000  0.4773500000000  0.4865620000000 1.0
C      1  0.5487500000000  0.5057350000000  0.4716140000000 1.0
C      1  0.5515070000000  0.5276860000000  0.4947810000000 1.0
C      1  0.4750160000000  0.5214580000000  0.5569690000000 1.0
C      1  0.4692450000000  0.4510550000000  0.5388760000000 1.0
C      1  0.4661240000000  0.4486110000000  0.4653170000000 1.0
C      1  0.4875950000000  0.4909820000000  0.4498840000000 1.0
C      1  0.4756140000000  0.5615860000000  0.4905670000000 1.0
C      1  0.5349760000000  0.4215830000000  0.5608640000000 1.0
C      1  0.5380250000000  0.4344860000000  0.4416470000000 1.0
C      1  0.5307190000000  0.5399610000000  0.4078740000000 1.0
C      1  0.5359050000000  0.6013300000000  0.5094130000000 1.0
C      1  0.5425710000000  0.5268710000000  0.5903050000000 1.0
C      1  0.4330250000000  0.4558280000000  0.4468140000000 1.0
C      1  0.4337600000000  0.5365750000000  0.4453870000000 1.0
C      1  0.4274980000000  0.5642420000000  0.5190730000000 1.0
C      1  0.4231410000000  0.5019170000000  0.5671970000000 1.0
C      1  0.4236320000000  0.4338500000000  0.5245640000000 1.0
C      1  0.4489660000000  0.5222100000000  0.4868500000000 1.0
C      1  0.4456270000000  0.5217500000000  0.5187380000000 1.0
C      1  0.4414830000000  0.4918410000000  0.5276560000000 1.0
C      1  0.4335350000000  0.4506380000000  0.5023960000000 1.0
C      1  0.4483460000000  0.4918720000000  0.4793240000000 1.0
C      1  0.5245610000000  0.4858370000000  0.6058060000000 1.0
C      1  0.5199870000000  0.3907770000000  0.5266270000000 1.0
C      1  0.5279130000000  0.4418960000000  0.4047240000000 1.0
C      1  0.5231670000000  0.5774260000000  0.4136250000000 1.0
C      1  0.5253410000000  0.6040310000000  0.5461940000000 1.0
C      1  0.5073860000000  0.4696010000000  0.4368170000000 1.0
C      1  0.5055280000000  0.5493170000000  0.4482500000000 1.0
C      1  0.5086450000000  0.5652690000000  0.5281730000000 1.0
C      1  0.5006840000000  0.4811110000000  0.5666180000000 1.0
C      1  0.4968430000000  0.4257320000000  0.5074600000000 1.0
C      1  0.4619940000000  0.4797310000000  0.5454440000000 1.0
C      1  0.4574850000000  0.4383100000000  0.4916600000000 1.0
C      1  0.4743790000000  0.4771060000000  0.4726160000000 1.0
C      1  0.4716070000000  0.5374070000000  0.4731420000000 1.0
C      1  0.4674900000000  0.5360990000000  0.5325740000000 1.0
C      1  0.5218510000000  0.4413290000000  0.5390380000000 1.0
C      1  0.5158030000000  0.4483120000000  0.4557840000000 1.0
C      1  0.5138580000000  0.5277580000000  0.4293020000000 1.0
C      1  0.5196680000000  0.5773660000000  0.5034100000000 1.0
C      1  0.5240190000000  0.5175510000000  0.5680730000000 1.0
C      1  0.5783450000000  0.4707490000000  0.5236010000000 1.0
C      1  0.5740060000000  0.4634350000000  0.4770950000000 1.0
C      1  0.5767010000000  0.5061030000000  0.4581710000000 1.0
C      1  0.5807040000000  0.5380480000000  0.4942380000000 1.0
C      1  0.5794340000000  0.5155790000000  0.5356090000000 1.0
C      1  0.5002080000000  0.4018680000000  0.4706980000000 1.0
C      1  0.5028780000000  0.4985360000000  0.3923730000000 1.0
C      1  0.5050360000000  0.5995860000000  0.4640980000000 1.0
C      1  0.5038380000000  0.5600920000000  0.5829400000000 1.0
C      1  0.5011500000000  0.4399310000000  0.5827700000000 1.0
C      1  0.4016320000000  0.4939090000000  0.4703400000000 1.0
C      1  0.4012640000000  0.5213100000000  0.4828260000000 1.0
C      1  0.3981070000000  0.5197500000000  0.5126650000000 1.0
C      1  0.3951110000000  0.4907140000000  0.5198570000000 1.0
C      1  0.3950240000000  0.4746920000000  0.4925200000000 1.0
C      1  0.5525190000000  0.5965040000000  0.5321720000000 1.0
C      1  0.5492330000000  0.4997190000000  0.5993690000000 1.0
C      1  0.5429500000000  0.4029240000000  0.5392930000000 1.0
C      1  0.5526410000000  0.4471060000000  0.4199690000000 1.0
C      1  0.5489140000000  0.5612190000000  0.4153150000000 1.0
C      1  0.5729680000000  0.4347870000000  0.4773630000000 1.0
C      1  0.5742860000000  0.5225960000000  0.4335650000000 1.0
C      1  0.5763700000000  0.5676180000000  0.4933700000000 1.0
C      1  0.5760690000000  0.5256490000000  0.5624940000000 1.0
C      1  0.5737500000000  0.4464800000000  0.5407030000000 1.0
C      1  0.4463490000000  0.5434320000000  0.5706950000000 1.0
C      1  0.4425790000000  0.4453570000000  0.5663400000000 1.0
C      1  0.4333290000000  0.4095370000000  0.4700730000000 1.0
C      1  0.4675850000000  0.4995700000000  0.4272400000000 1.0
C      1  0.4463810000000  0.5842790000000  0.4796750000000 1.0
C      1  0.4215060000000  0.4526670000000  0.5483530000000 1.0
C      1  0.4190900000000  0.4336990000000  0.4638620000000 1.0
C      1  0.4392500000000  0.5085100000000  0.4370930000000 1.0
C      1  0.4268090000000  0.5655970000000  0.4894300000000 1.0
C      1  0.4231030000000  0.5304980000000  0.5589670000000 1.0
C      1  0.4855420000000  0.5778880000000  0.5682890000000 1.0
C      1  0.4818680000000  0.4566900000000  0.5984000000000 1.0
C      1  0.4803510000000  0.3887510000000  0.4898340000000 1.0
C      1  0.4878660000000  0.4730980000000  0.3930170000000 1.0
C      1  0.4852530000000  0.5923540000000  0.4441820000000 1.0
C      1  0.4827670000000  0.4132190000000  0.5606720000000 1.0
C      1  0.4853860000000  0.4134180000000  0.4365470000000 1.0
C      1  0.4751320000000  0.5372420000000  0.3967310000000 1.0
C      1  0.4803530000000  0.6080640000000  0.5029630000000 1.0
C      1  0.4874280000000  0.5290790000000  0.6014640000000 1.0
C      1  0.5321160000000  0.5896310000000  0.4591790000000 1.0
C      1  0.5337380000000  0.5603250000000  0.5729180000000 1.0
C      1  0.5369220000000  0.4547310000000  0.5786030000000 1.0
C      1  0.5346850000000  0.4098150000000  0.4858810000000 1.0
C      1  0.5306910000000  0.4946870000000  0.4011150000000 1.0
C      1  0.5233450000000  0.4337770000000  0.5009180000000 1.0
C      1  0.5316100000000  0.4850170000000  0.4293840000000 1.0
C      1  0.5303730000000  0.5601350000000  0.4619490000000 1.0
C      1  0.5322590000000  0.5531070000000  0.5425480000000 1.0
C      1  0.5279880000000  0.4794860000000  0.5611230000000 1.0
C      1  0.6044670000000  0.4993310000000  0.5000500000000 1.0
C      1  0.5018020000000  0.5207130000000  0.5011690000000 1.0
C      1  0.4970540000000  0.4954680000000  0.5153990000000 1.0
C      1  0.4382230000000  0.4786720000000  0.5028810000000 1.0
END
