TITL C-3577086-586-528 8.68864531091425e-06 125000 -1091.82057143887 0 0 178 (D2h) n - 1
REM
REM in /home/bkarasulu/work/CARBON/AIRSS/Generating-Clusters/EDIP-Nigel-Params/with-SteepDescent/Higher-Symm/SD-CG/HFTN-CG
REM
REM
REM
REM
REM
REM ./C.cell (12c818d87b63d06a65506943cc24bca4)
REM
REM compiler GCC version 9.2.1 20190827 (Red Hat 9.2.1-1)
REM options -cpp -mtune=generic -march=x86-64 -g -O0 -fpre-include=/usr/include/finclude/math-vector-fortran.h
REM seed -270323658 -2113101935 450625709 -815956680 -1899049606 -502190195 -876238263 1614202064 -57298967 1620266674 -364670313 -1282499154 -1804772198 1140295507 762285139 -145929350 -2108814504 1991227481 1092284106 -500980012 -23684177 1150845676 1961942314 1159359915 1140556158 1262763261 1442224950 -1771965617 1733928656 328127875 31735708 -939680403 1243669402
REM
CELL 1.54180   50.00000   50.00000   50.00000   90.00000   90.00000   90.00000
LATT -1
SFAC C  
C      1  0.4068550000000  0.5657690000000  0.5262130000000 1.0
C      1  0.4068560000000  0.4342290000000  0.4737870000000 1.0
C      1  0.5926100000000  0.5657710000000  0.5262130000000 1.0
C      1  0.5926110000000  0.4342310000000  0.4737870000000 1.0
C      1  0.4068560000000  0.4342300000000  0.5262130000000 1.0
C      1  0.4068550000000  0.5657690000000  0.4737870000000 1.0
C      1  0.5926110000000  0.4342310000000  0.5262130000000 1.0
C      1  0.5926100000000  0.5657700000000  0.4737870000000 1.0
C      1  0.5500880000000  0.4846210000000  0.4304730000000 1.0
C      1  0.5500880000000  0.5153800000000  0.5695270000000 1.0
C      1  0.4493780000000  0.4846200000000  0.4304730000000 1.0
C      1  0.4493780000000  0.5153790000000  0.5695270000000 1.0
C      1  0.5500880000000  0.5153790000000  0.4304730000000 1.0
C      1  0.5500880000000  0.4846220000000  0.5695270000000 1.0
C      1  0.4493780000000  0.5153780000000  0.4304730000000 1.0
C      1  0.4493780000000  0.4846210000000  0.5695270000000 1.0
C      1  0.4806370000000  0.5145860000000  0.3938140000000 1.0
C      1  0.4806370000000  0.4854140000000  0.6061860000000 1.0
C      1  0.5188290000000  0.5145860000000  0.3938140000000 1.0
C      1  0.5188300000000  0.4854140000000  0.6061860000000 1.0
C      1  0.4806370000000  0.4854130000000  0.3938140000000 1.0
C      1  0.4806360000000  0.5145860000000  0.6061860000000 1.0
C      1  0.5188300000000  0.4854140000000  0.3938140000000 1.0
C      1  0.5188290000000  0.5145870000000  0.6061860000000 1.0
C      1  0.4720610000000  0.5143350000000  0.4727240000000 1.0
C      1  0.4720620000000  0.4856640000000  0.5272760000000 1.0
C      1  0.5274040000000  0.5143360000000  0.4727240000000 1.0
C      1  0.5274050000000  0.4856650000000  0.5272760000000 1.0
C      1  0.4720620000000  0.4856640000000  0.4727240000000 1.0
C      1  0.4720610000000  0.5143350000000  0.5272760000000 1.0
C      1  0.5274050000000  0.4856650000000  0.4727240000000 1.0
C      1  0.5274040000000  0.5143360000000  0.5272760000000 1.0
C      1  0.5474460000000  0.4435500000000  0.5867680000000 1.0
C      1  0.5474440000000  0.5564510000000  0.4132320000000 1.0
C      1  0.4520220000000  0.4435490000000  0.5867680000000 1.0
C      1  0.4520210000000  0.5564500000000  0.4132320000000 1.0
C      1  0.5474440000000  0.5564510000000  0.5867670000000 1.0
C      1  0.5474460000000  0.4435500000000  0.4132330000000 1.0
C      1  0.4520200000000  0.5564500000000  0.5867670000000 1.0
C      1  0.4520220000000  0.4435490000000  0.4132330000000 1.0
C      1  0.5238010000000  0.4285740000000  0.4103550000000 1.0
C      1  0.5237990000000  0.5714260000000  0.5896450000000 1.0
C      1  0.4756670000000  0.4285740000000  0.4103550000000 1.0
C      1  0.4756650000000  0.5714260000000  0.5896450000000 1.0
C      1  0.5237990000000  0.5714260000000  0.4103550000000 1.0
C      1  0.5238010000000  0.4285750000000  0.5896450000000 1.0
C      1  0.4756650000000  0.5714250000000  0.4103550000000 1.0
C      1  0.4756670000000  0.4285740000000  0.5896450000000 1.0
C      1  0.5276200000000  0.4161210000000  0.4846840000000 1.0
C      1  0.5276180000000  0.5838790000000  0.5153160000000 1.0
C      1  0.4718480000000  0.4161210000000  0.4846840000000 1.0
C      1  0.4718460000000  0.5838790000000  0.5153160000000 1.0
C      1  0.5276180000000  0.5838790000000  0.4846840000000 1.0
C      1  0.5276200000000  0.4161210000000  0.5153160000000 1.0
C      1  0.4718460000000  0.5838790000000  0.4846840000000 1.0
C      1  0.4718480000000  0.4161210000000  0.5153160000000 1.0
C      1  0.4016150000000  0.5394480000000  0.4852740000000 1.0
C      1  0.4016150000000  0.4605500000000  0.5147260000000 1.0
C      1  0.5978510000000  0.5394500000000  0.4852740000000 1.0
C      1  0.5978520000000  0.4605520000000  0.5147260000000 1.0
C      1  0.4016150000000  0.4605500000000  0.4852740000000 1.0
C      1  0.4016150000000  0.5394480000000  0.5147250000000 1.0
C      1  0.5978520000000  0.4605520000000  0.4852750000000 1.0
C      1  0.5978510000000  0.5394500000000  0.5147260000000 1.0
C      1  0.4838550000000  0.5517570000000  0.5570770000000 1.0
C      1  0.4838560000000  0.4482420000000  0.4429230000000 1.0
C      1  0.5156100000000  0.5517580000000  0.5570770000000 1.0
C      1  0.5156110000000  0.4482430000000  0.4429230000000 1.0
C      1  0.4838560000000  0.4482430000000  0.5570780000000 1.0
C      1  0.4838550000000  0.5517570000000  0.4429220000000 1.0
C      1  0.5156110000000  0.4482430000000  0.5570780000000 1.0
C      1  0.5156100000000  0.5517570000000  0.4429220000000 1.0
C      1  0.4415280000000  0.4141360000000  0.4559160000000 1.0
C      1  0.4415260000000  0.5858630000000  0.5440840000000 1.0
C      1  0.5579400000000  0.4141370000000  0.4559160000000 1.0
C      1  0.5579380000000  0.5858640000000  0.5440840000000 1.0
C      1  0.4415260000000  0.5858630000000  0.4559150000000 1.0
C      1  0.4415280000000  0.4141360000000  0.5440850000000 1.0
C      1  0.5579380000000  0.5858640000000  0.4559150000000 1.0
C      1  0.5579400000000  0.4141370000000  0.5440850000000 1.0
C      1  0.4668110000000  0.6044240000000  0.5532180000000 1.0
C      1  0.4668140000000  0.3955750000000  0.4467820000000 1.0
C      1  0.5326530000000  0.6044250000000  0.5532180000000 1.0
C      1  0.5326550000000  0.3955760000000  0.4467820000000 1.0
C      1  0.4668140000000  0.3955750000000  0.5532190000000 1.0
C      1  0.4668110000000  0.6044240000000  0.4467810000000 1.0
C      1  0.5326550000000  0.3955760000000  0.5532190000000 1.0
C      1  0.5326530000000  0.6044250000000  0.4467810000000 1.0
C      1  0.5616630000000  0.4407980000000  0.4396890000000 1.0
C      1  0.5616620000000  0.5592040000000  0.5603110000000 1.0
C      1  0.4378040000000  0.4407960000000  0.4396890000000 1.0
C      1  0.4378030000000  0.5592020000000  0.5603110000000 1.0
C      1  0.5616620000000  0.5592030000000  0.4396880000000 1.0
C      1  0.5616630000000  0.4407980000000  0.5603120000000 1.0
C      1  0.4378030000000  0.5592020000000  0.4396880000000 1.0
C      1  0.4378040000000  0.4407970000000  0.5603120000000 1.0
C      1  0.4124950000000  0.4831000000000  0.4675790000000 1.0
C      1  0.4124950000000  0.5168980000000  0.5324210000000 1.0
C      1  0.5869710000000  0.4831020000000  0.4675790000000 1.0
C      1  0.5869710000000  0.5169000000000  0.5324210000000 1.0
C      1  0.4124950000000  0.5168980000000  0.4675790000000 1.0
C      1  0.4124950000000  0.4831000000000  0.5324210000000 1.0
C      1  0.5869710000000  0.5169000000000  0.4675790000000 1.0
C      1  0.5869710000000  0.4831020000000  0.5324210000000 1.0
C      1  0.4556400000000  0.5273740000000  0.4040760000000 1.0
C      1  0.4556400000000  0.4726250000000  0.5959240000000 1.0
C      1  0.5438260000000  0.5273750000000  0.4040760000000 1.0
C      1  0.5438270000000  0.4726260000000  0.5959240000000 1.0
C      1  0.4556400000000  0.4726250000000  0.4040770000000 1.0
C      1  0.4556390000000  0.5273740000000  0.5959230000000 1.0
C      1  0.5438270000000  0.4726260000000  0.4040770000000 1.0
C      1  0.5438260000000  0.5273750000000  0.5959230000000 1.0
C      1  0.5156440000000  0.6105700000000  0.4717650000000 1.0
C      1  0.5156470000000  0.3894310000000  0.5282350000000 1.0
C      1  0.4838190000000  0.6105690000000  0.4717650000000 1.0
C      1  0.4838220000000  0.3894300000000  0.5282350000000 1.0
C      1  0.5156470000000  0.3894310000000  0.4717660000000 1.0
C      1  0.5156440000000  0.6105700000000  0.5282340000000 1.0
C      1  0.4838220000000  0.3894300000000  0.4717660000000 1.0
C      1  0.4838190000000  0.6105690000000  0.5282340000000 1.0
C      1  0.5566320000000  0.4447770000000  0.5164670000000 1.0
C      1  0.5566310000000  0.5552250000000  0.4835330000000 1.0
C      1  0.4428350000000  0.4447750000000  0.5164670000000 1.0
C      1  0.4428340000000  0.5552230000000  0.4835330000000 1.0
C      1  0.5566310000000  0.5552250000000  0.5164660000000 1.0
C      1  0.5566320000000  0.4447760000000  0.4835340000000 1.0
C      1  0.4428340000000  0.5552240000000  0.5164660000000 1.0
C      1  0.4428350000000  0.4447750000000  0.4835340000000 1.0
C      1  0.5144430000000  0.5926780000000  0.5734230000000 1.0
C      1  0.5144450000000  0.4073220000000  0.4265770000000 1.0
C      1  0.4850210000000  0.5926780000000  0.5734230000000 1.0
C      1  0.4850230000000  0.4073220000000  0.4265770000000 1.0
C      1  0.5144450000000  0.4073220000000  0.5734230000000 1.0
C      1  0.5144440000000  0.5926780000000  0.4265770000000 1.0
C      1  0.4850230000000  0.4073220000000  0.5734230000000 1.0
C      1  0.4850210000000  0.5926780000000  0.4265770000000 1.0
C      1  0.4759330000000  0.5222850000000  0.4443970000000 1.0
C      1  0.4759340000000  0.4777150000000  0.5556030000000 1.0
C      1  0.5235320000000  0.5222850000000  0.4443970000000 1.0
C      1  0.5235330000000  0.4777150000000  0.5556030000000 1.0
C      1  0.4759340000000  0.4777140000000  0.4443970000000 1.0
C      1  0.4759330000000  0.5222850000000  0.5556030000000 1.0
C      1  0.5235330000000  0.4777150000000  0.4443970000000 1.0
C      1  0.5235320000000  0.5222860000000  0.5556030000000 1.0
C      1  0.4851420000000  0.5596820000000  0.4736000000000 1.0
C      1  0.4851430000000  0.4403180000000  0.5264000000000 1.0
C      1  0.5143230000000  0.5596820000000  0.4736000000000 1.0
C      1  0.5143240000000  0.4403180000000  0.5264000000000 1.0
C      1  0.4851440000000  0.4403180000000  0.4736000000000 1.0
C      1  0.4851420000000  0.5596820000000  0.5264000000000 1.0
C      1  0.5143240000000  0.4403180000000  0.4736000000000 1.0
C      1  0.5143230000000  0.5596820000000  0.5264000000000 1.0
C      1  0.4469190000000  0.5240250000000  0.4846540000000 1.0
C      1  0.4469200000000  0.4759740000000  0.5153460000000 1.0
C      1  0.5525460000000  0.5240260000000  0.4846540000000 1.0
C      1  0.5525470000000  0.4759750000000  0.5153460000000 1.0
C      1  0.4469200000000  0.4759740000000  0.4846540000000 1.0
C      1  0.4469190000000  0.5240250000000  0.5153460000000 1.0
C      1  0.5525470000000  0.4759750000000  0.4846540000000 1.0
C      1  0.5525460000000  0.5240260000000  0.5153460000000 1.0
C      1  0.4180130000000  0.4098050000000  0.4852030000000 1.0
C      1  0.4180110000000  0.5901930000000  0.5147970000000 1.0
C      1  0.5814550000000  0.4098070000000  0.4852030000000 1.0
C      1  0.5814530000000  0.5901950000000  0.5147970000000 1.0
C      1  0.4180110000000  0.5901930000000  0.4852030000000 1.0
C      1  0.4180130000000  0.4098050000000  0.5147970000000 1.0
C      1  0.5814530000000  0.5901950000000  0.4852030000000 1.0
C      1  0.5814550000000  0.4098070000000  0.5147970000000 1.0
C      1  0.4279980000000  0.5306090000000  0.5549840000000 1.0
C      1  0.4279990000000  0.4693900000000  0.4450160000000 1.0
C      1  0.5714670000000  0.5306100000000  0.5549840000000 1.0
C      1  0.5714680000000  0.4693910000000  0.4450160000000 1.0
C      1  0.4279990000000  0.4693900000000  0.5549840000000 1.0
C      1  0.4279980000000  0.5306080000000  0.4450160000000 1.0
C      1  0.5714680000000  0.4693920000000  0.5549840000000 1.0
C      1  0.5714670000000  0.5306100000000  0.4450160000000 1.0
C      1  0.4997330000000  0.5000000000000  0.4304800000000 1.0
C      1  0.4997330000000  0.5000000000000  0.5695200000000 1.0
END
