TITL C-3577076-40-477 -1.36597939067721e-05 125000 -987.623627221342 0 0 159 (C1) n - 1
REM
REM in /home/bkarasulu/work/CARBON/AIRSS/Generating-Clusters/EDIP-Nigel-Params/with-SteepDescent/Higher-Symm/SD-CG/HFTN-CG
REM
REM
REM
REM
REM
REM ./C.cell (12c818d87b63d06a65506943cc24bca4)
REM
REM compiler GCC version 9.2.1 20190827 (Red Hat 9.2.1-1)
REM options -cpp -mtune=generic -march=x86-64 -g -O0 -fpre-include=/usr/include/finclude/math-vector-fortran.h
REM seed 1386710078 1056458245 215991216 -455913349 371566435 -1489840505 2008739641 2117916846 -237042277 -593715799 920437781 -1962930170 -433181334 388134272 -162616226 -298373243 1069046029 1605305647 429839621 840882431 2040988255 -642587935 -1254964243 -794953744 1040085794 1582623264 457118651 2101854052 953784351 258268193 1536188983 -1340461654 823625817
REM
CELL 1.54180   50.00000   50.00000   50.00000   90.00000   90.00000   90.00000
LATT -1
SFAC C  
C      1  0.4290110000000  0.4498630000000  0.5486460000000 1.0
C      1  0.4241740000000  0.5101740000000  0.5707260000000 1.0
C      1  0.4276510000000  0.5609310000000  0.5425880000000 1.0
C      1  0.4287990000000  0.5611290000000  0.4838780000000 1.0
C      1  0.4277500000000  0.5204330000000  0.4184160000000 1.0
C      1  0.4304600000000  0.4610510000000  0.4338890000000 1.0
C      1  0.4311330000000  0.4315410000000  0.4964320000000 1.0
C      1  0.4913530000000  0.5862610000000  0.5083410000000 1.0
C      1  0.4880590000000  0.5548490000000  0.4433100000000 1.0
C      1  0.4972200000000  0.4877740000000  0.4156790000000 1.0
C      1  0.4922750000000  0.4291350000000  0.4551800000000 1.0
C      1  0.4963140000000  0.4213240000000  0.5256030000000 1.0
C      1  0.4916170000000  0.4669000000000  0.5789890000000 1.0
C      1  0.4915150000000  0.5396830000000  0.5654690000000 1.0
C      1  0.4589390000000  0.5029770000000  0.4528500000000 1.0
C      1  0.4331260000000  0.4734050000000  0.4721700000000 1.0
C      1  0.4641980000000  0.4618160000000  0.5104460000000 1.0
C      1  0.4695780000000  0.4743310000000  0.5384980000000 1.0
C      1  0.4570140000000  0.5236700000000  0.5212620000000 1.0
C      1  0.4657920000000  0.5449440000000  0.4961990000000 1.0
C      1  0.4373110000000  0.5203070000000  0.4620350000000 1.0
C      1  0.5999660000000  0.4786740000000  0.4409730000000 1.0
C      1  0.5917010000000  0.4422320000000  0.4803520000000 1.0
C      1  0.5885020000000  0.4491560000000  0.5299690000000 1.0
C      1  0.5891820000000  0.4919770000000  0.5586310000000 1.0
C      1  0.5944910000000  0.5418210000000  0.5419900000000 1.0
C      1  0.5946680000000  0.5576050000000  0.4928090000000 1.0
C      1  0.5896140000000  0.5281220000000  0.4501600000000 1.0
C      1  0.4719390000000  0.4994550000000  0.5779770000000 1.0
C      1  0.4739080000000  0.5611760000000  0.5542750000000 1.0
C      1  0.4675020000000  0.5949360000000  0.4920060000000 1.0
C      1  0.4703520000000  0.5436610000000  0.4220770000000 1.0
C      1  0.4762000000000  0.4659650000000  0.4181150000000 1.0
C      1  0.4739360000000  0.4117560000000  0.4712560000000 1.0
C      1  0.4796680000000  0.4281490000000  0.5506400000000 1.0
C      1  0.5207350000000  0.6148240000000  0.5310370000000 1.0
C      1  0.5156450000000  0.5925300000000  0.4404160000000 1.0
C      1  0.5217240000000  0.5041210000000  0.3799360000000 1.0
C      1  0.5217600000000  0.4104230000000  0.4225690000000 1.0
C      1  0.5221640000000  0.3849120000000  0.5270090000000 1.0
C      1  0.5220360000000  0.4458900000000  0.6077990000000 1.0
C      1  0.5204140000000  0.5440410000000  0.6054080000000 1.0
C      1  0.4965420000000  0.4221570000000  0.4262060000000 1.0
C      1  0.4985510000000  0.3945200000000  0.5149960000000 1.0
C      1  0.4972070000000  0.4418560000000  0.5950130000000 1.0
C      1  0.4957970000000  0.5348250000000  0.5954540000000 1.0
C      1  0.4962930000000  0.6013320000000  0.5336400000000 1.0
C      1  0.4891910000000  0.5842840000000  0.4452010000000 1.0
C      1  0.4977580000000  0.5085780000000  0.3939150000000 1.0
C      1  0.6014770000000  0.4669910000000  0.4880600000000 1.0
C      1  0.5958190000000  0.4719890000000  0.5157600000000 1.0
C      1  0.5995220000000  0.4952280000000  0.5322900000000 1.0
C      1  0.6015810000000  0.5224740000000  0.5234880000000 1.0
C      1  0.6009990000000  0.5307920000000  0.4960800000000 1.0
C      1  0.5972000000000  0.5143760000000  0.4727930000000 1.0
C      1  0.6033440000000  0.4869950000000  0.4674770000000 1.0
C      1  0.4873540000000  0.4674190000000  0.4910920000000 1.0
C      1  0.4904970000000  0.4575660000000  0.5508040000000 1.0
C      1  0.4787030000000  0.5152440000000  0.5512920000000 1.0
C      1  0.4851170000000  0.5572090000000  0.5169580000000 1.0
C      1  0.4878090000000  0.5392250000000  0.4706200000000 1.0
C      1  0.4855120000000  0.5093170000000  0.4639760000000 1.0
C      1  0.4841800000000  0.4585450000000  0.4608750000000 1.0
C      1  0.5599420000000  0.4687850000000  0.5879280000000 1.0
C      1  0.5604280000000  0.5426550000000  0.5767400000000 1.0
C      1  0.5557420000000  0.5836500000000  0.5091850000000 1.0
C      1  0.5553840000000  0.5620940000000  0.4439070000000 1.0
C      1  0.5555900000000  0.4871770000000  0.4147730000000 1.0
C      1  0.5621220000000  0.4228980000000  0.4494830000000 1.0
C      1  0.5499690000000  0.4178570000000  0.5287950000000 1.0
C      1  0.5317240000000  0.5449770000000  0.5333810000000 1.0
C      1  0.5340200000000  0.5660940000000  0.4820270000000 1.0
C      1  0.5271620000000  0.5220540000000  0.4416030000000 1.0
C      1  0.5334260000000  0.4616490000000  0.4332220000000 1.0
C      1  0.5316480000000  0.4435150000000  0.4844320000000 1.0
C      1  0.5233480000000  0.4306860000000  0.5378400000000 1.0
C      1  0.5245500000000  0.4967840000000  0.5563950000000 1.0
C      1  0.4155180000000  0.5074670000000  0.5414760000000 1.0
C      1  0.4279500000000  0.5338370000000  0.5284010000000 1.0
C      1  0.4159170000000  0.5372080000000  0.5002600000000 1.0
C      1  0.4143220000000  0.5133850000000  0.4439270000000 1.0
C      1  0.4093280000000  0.4841530000000  0.4519020000000 1.0
C      1  0.4202720000000  0.4612770000000  0.4970540000000 1.0
C      1  0.4276260000000  0.4805540000000  0.5252470000000 1.0
C      1  0.5248930000000  0.4149940000000  0.5657030000000 1.0
C      1  0.5149530000000  0.4873920000000  0.5843590000000 1.0
C      1  0.5175410000000  0.5555010000000  0.5587800000000 1.0
C      1  0.5170450000000  0.5901870000000  0.4916690000000 1.0
C      1  0.5138790000000  0.5465510000000  0.4286600000000 1.0
C      1  0.5187400000000  0.4662440000000  0.4065160000000 1.0
C      1  0.5175060000000  0.4200540000000  0.4691140000000 1.0
C      1  0.5534510000000  0.5150560000000  0.4689970000000 1.0
C      1  0.5409940000000  0.4859350000000  0.4742380000000 1.0
C      1  0.5582930000000  0.4671620000000  0.4925160000000 1.0
C      1  0.5526920000000  0.4707490000000  0.5249690000000 1.0
C      1  0.5530660000000  0.4960750000000  0.5439030000000 1.0
C      1  0.5576300000000  0.5229870000000  0.5282110000000 1.0
C      1  0.5576070000000  0.5379470000000  0.4926950000000 1.0
C      1  0.4552070000000  0.4326440000000  0.5132540000000 1.0
C      1  0.4484760000000  0.4669280000000  0.5606400000000 1.0
C      1  0.4368190000000  0.5345340000000  0.5770590000000 1.0
C      1  0.4339210000000  0.5829790000000  0.5268780000000 1.0
C      1  0.4453980000000  0.5496110000000  0.4615670000000 1.0
C      1  0.4525150000000  0.5030530000000  0.4231420000000 1.0
C      1  0.4509620000000  0.4523120000000  0.4576090000000 1.0
C      1  0.4879140000000  0.4420010000000  0.4077200000000 1.0
C      1  0.4939030000000  0.3949270000000  0.4866080000000 1.0
C      1  0.4966160000000  0.4187230000000  0.5758300000000 1.0
C      1  0.4931120000000  0.5062470000000  0.5993540000000 1.0
C      1  0.4923710000000  0.5846830000000  0.5565550000000 1.0
C      1  0.4732670000000  0.5956550000000  0.4647800000000 1.0
C      1  0.4891180000000  0.5351010000000  0.4008890000000 1.0
C      1  0.5634450000000  0.4467890000000  0.5701380000000 1.0
C      1  0.5703000000000  0.5207800000000  0.5917170000000 1.0
C      1  0.5527680000000  0.5665470000000  0.5338390000000 1.0
C      1  0.5685960000000  0.5799440000000  0.4607130000000 1.0
C      1  0.5509860000000  0.5158650000000  0.4252420000000 1.0
C      1  0.5603720000000  0.4517540000000  0.4409670000000 1.0
C      1  0.5509890000000  0.4242110000000  0.4978380000000 1.0
C      1  0.4486680000000  0.4746030000000  0.4145040000000 1.0
C      1  0.4456660000000  0.4254630000000  0.4705970000000 1.0
C      1  0.4470020000000  0.4273290000000  0.5412490000000 1.0
C      1  0.4425930000000  0.4892530000000  0.5798510000000 1.0
C      1  0.4453700000000  0.5583660000000  0.5650160000000 1.0
C      1  0.4422390000000  0.5817860000000  0.5003560000000 1.0
C      1  0.4411740000000  0.5460750000000  0.4238190000000 1.0
C      1  0.5120020000000  0.4556260000000  0.5026130000000 1.0
C      1  0.5225430000000  0.4615220000000  0.5300290000000 1.0
C      1  0.5003480000000  0.4985040000000  0.5383710000000 1.0
C      1  0.5094850000000  0.5390250000000  0.5122650000000 1.0
C      1  0.5156410000000  0.5425490000000  0.4841060000000 1.0
C      1  0.5067560000000  0.4993650000000  0.4437510000000 1.0
C      1  0.5193800000000  0.4751790000000  0.4560530000000 1.0
C      1  0.5731220000000  0.5556510000000  0.5532820000000 1.0
C      1  0.5761270000000  0.5775270000000  0.4874940000000 1.0
C      1  0.5687600000000  0.5374340000000  0.4345460000000 1.0
C      1  0.5789360000000  0.4684100000000  0.4259120000000 1.0
C      1  0.5733070000000  0.4210760000000  0.4779170000000 1.0
C      1  0.5693520000000  0.4356030000000  0.5448090000000 1.0
C      1  0.5736260000000  0.4944090000000  0.5820210000000 1.0
C      1  0.5347810000000  0.3900780000000  0.5513220000000 1.0
C      1  0.5339840000000  0.4706820000000  0.6012020000000 1.0
C      1  0.5342720000000  0.5530370000000  0.5828940000000 1.0
C      1  0.5350130000000  0.6069620000000  0.5080040000000 1.0
C      1  0.5306680000000  0.5703500000000  0.4313830000000 1.0
C      1  0.5373900000000  0.4826130000000  0.3892520000000 1.0
C      1  0.5350320000000  0.4096440000000  0.4475390000000 1.0
C      1  0.3750000000000  0.5279290000000  0.5244450000000 1.0
C      1  0.3861170000000  0.5315160000000  0.4990870000000 1.0
C      1  0.3791780000000  0.5110450000000  0.4807970000000 1.0
C      1  0.3857940000000  0.4848130000000  0.4720480000000 1.0
C      1  0.3908230000000  0.4678430000000  0.4957460000000 1.0
C      1  0.3832430000000  0.4816520000000  0.5191620000000 1.0
C      1  0.3865150000000  0.5047600000000  0.5348780000000 1.0
C      1  0.5036940000000  0.5099770000000  0.5120930000000 1.0
C      1  0.4474990000000  0.4973160000000  0.5063290000000 1.0
C      1  0.5673150000000  0.5032720000000  0.5033800000000 1.0
C      1  0.4888910000000  0.4967720000000  0.4907720000000 1.0
C      1  0.4286480000000  0.5134250000000  0.4886160000000 1.0
END
