TITL C-3578194-7807-76 -6.69022158384365e-06 125000 -912.707817994226 0 0 145 (C1) n - 1
REM
REM in /home/bkarasulu/work/CARBON/AIRSS/Generating-Clusters/EDIP-Nigel-Params/with-SteepDescent/Higher-Symm/SD-CG/HFTN-CG
REM
REM
REM
REM
REM
REM ./C.cell (12c818d87b63d06a65506943cc24bca4)
REM
REM compiler GCC version 9.2.1 20190827 (Red Hat 9.2.1-1)
REM options -cpp -mtune=generic -march=x86-64 -g -O0 -fpre-include=/usr/include/finclude/math-vector-fortran.h
REM seed 1702482456 -518210266 32609465 2029059002 792243647 1920896679 2091239824 -1541738092 -122204099 -1988108284 46892638 -744297726 -370044866 1901325330 2052303138 1651893692 614970111 -1156000650 62846576 -1602154386 -128322725 967785994 -2147057471 -64817852 -2050404062 1674151147 -431200918 -1014437652 1259648878 174470540 -1533399220 -227792924 -777581856
REM
CELL 1.54180   50.00000   50.00000   50.00000   90.00000   90.00000   90.00000
LATT -1
SFAC C  
C      1  0.5430940000000  0.4311340000000  0.5483610000000 1.0
C      1  0.5390650000000  0.4934330000000  0.5863560000000 1.0
C      1  0.5422750000000  0.5599940000000  0.5554550000000 1.0
C      1  0.5437510000000  0.5807880000000  0.4856420000000 1.0
C      1  0.5435220000000  0.5427450000000  0.4197570000000 1.0
C      1  0.5408600000000  0.4681400000000  0.4169040000000 1.0
C      1  0.5437820000000  0.4201460000000  0.4751080000000 1.0
C      1  0.4197380000000  0.4610220000000  0.5429220000000 1.0
C      1  0.4191650000000  0.5100640000000  0.5577540000000 1.0
C      1  0.4165820000000  0.5539200000000  0.5291030000000 1.0
C      1  0.4179310000000  0.5576610000000  0.4781370000000 1.0
C      1  0.4172220000000  0.5192580000000  0.4434240000000 1.0
C      1  0.4178850000000  0.4663560000000  0.4520050000000 1.0
C      1  0.4219680000000  0.4424400000000  0.4962080000000 1.0
C      1  0.5801340000000  0.4640350000000  0.4462460000000 1.0
C      1  0.5800980000000  0.4508370000000  0.5050640000000 1.0
C      1  0.5832390000000  0.4600160000000  0.5332420000000 1.0
C      1  0.5798860000000  0.5065690000000  0.5643860000000 1.0
C      1  0.5820890000000  0.5506450000000  0.5173770000000 1.0
C      1  0.5837790000000  0.5491720000000  0.4874200000000 1.0
C      1  0.5712020000000  0.5218100000000  0.4472750000000 1.0
C      1  0.5064490000000  0.5224810000000  0.5254880000000 1.0
C      1  0.5093630000000  0.5358730000000  0.4985650000000 1.0
C      1  0.5078780000000  0.5176180000000  0.4711010000000 1.0
C      1  0.5138700000000  0.4889030000000  0.4571690000000 1.0
C      1  0.5141080000000  0.4698330000000  0.4797690000000 1.0
C      1  0.5127760000000  0.4717940000000  0.5261470000000 1.0
C      1  0.5162740000000  0.4923070000000  0.5482050000000 1.0
C      1  0.4588010000000  0.3943400000000  0.4613390000000 1.0
C      1  0.4578070000000  0.4041540000000  0.5573050000000 1.0
C      1  0.4541550000000  0.4840360000000  0.6112210000000 1.0
C      1  0.4561840000000  0.5773740000000  0.5801340000000 1.0
C      1  0.4591480000000  0.6134190000000  0.4904850000000 1.0
C      1  0.4561710000000  0.5633250000000  0.4069840000000 1.0
C      1  0.4542320000000  0.4675440000000  0.3927840000000 1.0
C      1  0.4438430000000  0.4796240000000  0.5852400000000 1.0
C      1  0.4435350000000  0.5544550000000  0.5689950000000 1.0
C      1  0.4455960000000  0.5908590000000  0.5009210000000 1.0
C      1  0.4444870000000  0.5575220000000  0.4319650000000 1.0
C      1  0.4436710000000  0.4818740000000  0.4148000000000 1.0
C      1  0.4465240000000  0.4198370000000  0.4618420000000 1.0
C      1  0.4461710000000  0.4206510000000  0.5374070000000 1.0
C      1  0.5582600000000  0.5169010000000  0.4215830000000 1.0
C      1  0.5556100000000  0.4547460000000  0.4378020000000 1.0
C      1  0.5581970000000  0.4306150000000  0.4993480000000 1.0
C      1  0.5590120000000  0.4553570000000  0.5546280000000 1.0
C      1  0.5543270000000  0.5130510000000  0.5729870000000 1.0
C      1  0.5572270000000  0.5606310000000  0.5297420000000 1.0
C      1  0.5596780000000  0.5608650000000  0.4708730000000 1.0
C      1  0.5989440000000  0.5329700000000  0.5313620000000 1.0
C      1  0.6000180000000  0.5237600000000  0.4817650000000 1.0
C      1  0.5957040000000  0.5092950000000  0.4567810000000 1.0
C      1  0.5944880000000  0.4803880000000  0.4633070000000 1.0
C      1  0.5991990000000  0.4730450000000  0.4927450000000 1.0
C      1  0.6043180000000  0.4817670000000  0.5312790000000 1.0
C      1  0.5990030000000  0.5081020000000  0.5445280000000 1.0
C      1  0.4569290000000  0.4371870000000  0.4399960000000 1.0
C      1  0.4602600000000  0.4160530000000  0.5113970000000 1.0
C      1  0.4574090000000  0.4558340000000  0.5729210000000 1.0
C      1  0.4573490000000  0.5295270000000  0.5794190000000 1.0
C      1  0.4578600000000  0.5815480000000  0.5266330000000 1.0
C      1  0.4581820000000  0.5729340000000  0.4535850000000 1.0
C      1  0.4570890000000  0.5089430000000  0.4174800000000 1.0
C      1  0.4101680000000  0.5109500000000  0.4688050000000 1.0
C      1  0.4101070000000  0.4823790000000  0.4732050000000 1.0
C      1  0.4131060000000  0.4686430000000  0.4978270000000 1.0
C      1  0.4109910000000  0.4791310000000  0.5238810000000 1.0
C      1  0.4123000000000  0.5065470000000  0.5313450000000 1.0
C      1  0.4096840000000  0.5304270000000  0.5159130000000 1.0
C      1  0.4107850000000  0.5324440000000  0.4876660000000 1.0
C      1  0.4816040000000  0.4730530000000  0.3940160000000 1.0
C      1  0.4857210000000  0.4003350000000  0.4567650000000 1.0
C      1  0.4849590000000  0.4040380000000  0.5503780000000 1.0
C      1  0.4813830000000  0.4780270000000  0.6084370000000 1.0
C      1  0.4832750000000  0.5701460000000  0.5796870000000 1.0
C      1  0.4860920000000  0.6073610000000  0.4947580000000 1.0
C      1  0.4835090000000  0.5645540000000  0.4126130000000 1.0
C      1  0.4459130000000  0.5038510000000  0.5665020000000 1.0
C      1  0.4439380000000  0.5560110000000  0.5383150000000 1.0
C      1  0.4449100000000  0.5678050000000  0.4811740000000 1.0
C      1  0.4444630000000  0.5278960000000  0.4390190000000 1.0
C      1  0.4443220000000  0.4655700000000  0.4407500000000 1.0
C      1  0.4483890000000  0.4333560000000  0.4890690000000 1.0
C      1  0.4464610000000  0.4503170000000  0.5447880000000 1.0
C      1  0.5004190000000  0.4528260000000  0.3905210000000 1.0
C      1  0.5060620000000  0.3865090000000  0.4695990000000 1.0
C      1  0.5049500000000  0.4047870000000  0.5696440000000 1.0
C      1  0.5002390000000  0.4958300000000  0.6185510000000 1.0
C      1  0.5039870000000  0.5879470000000  0.5748960000000 1.0
C      1  0.5059240000000  0.6134030000000  0.4763310000000 1.0
C      1  0.5019210000000  0.5548180000000  0.3942030000000 1.0
C      1  0.5143410000000  0.4319790000000  0.4343000000000 1.0
C      1  0.5162730000000  0.4088320000000  0.5129530000000 1.0
C      1  0.5142770000000  0.4520820000000  0.5808090000000 1.0
C      1  0.5124810000000  0.5324740000000  0.5866270000000 1.0
C      1  0.5155340000000  0.5864610000000  0.5269380000000 1.0
C      1  0.5172720000000  0.5747780000000  0.4473440000000 1.0
C      1  0.5132140000000  0.5076970000000  0.4076510000000 1.0
C      1  0.5171800000000  0.5361950000000  0.4085360000000 1.0
C      1  0.5156690000000  0.4530870000000  0.4141520000000 1.0
C      1  0.5198770000000  0.4059120000000  0.4843920000000 1.0
C      1  0.5187920000000  0.4287590000000  0.5645170000000 1.0
C      1  0.5140360000000  0.5049180000000  0.5956740000000 1.0
C      1  0.5185260000000  0.5768080000000  0.5536820000000 1.0
C      1  0.5196750000000  0.5893860000000  0.4718650000000 1.0
C      1  0.4893560000000  0.5329540000000  0.4527620000000 1.0
C      1  0.4898630000000  0.4812970000000  0.4421800000000 1.0
C      1  0.4935000000000  0.4467230000000  0.4768530000000 1.0
C      1  0.4914080000000  0.4508010000000  0.5315170000000 1.0
C      1  0.4895630000000  0.4923050000000  0.5610710000000 1.0
C      1  0.4865580000000  0.5368260000000  0.5411370000000 1.0
C      1  0.4891470000000  0.5577540000000  0.4952400000000 1.0
C      1  0.4867210000000  0.4683230000000  0.5803850000000 1.0
C      1  0.4863260000000  0.5413460000000  0.5719450000000 1.0
C      1  0.4885370000000  0.5832110000000  0.5121590000000 1.0
C      1  0.4890950000000  0.5621570000000  0.4422560000000 1.0
C      1  0.4865290000000  0.4940720000000  0.4149250000000 1.0
C      1  0.4887680000000  0.4297400000000  0.4512040000000 1.0
C      1  0.4896720000000  0.4200020000000  0.5253930000000 1.0
C      1  0.5390810000000  0.4668940000000  0.5757470000000 1.0
C      1  0.5391010000000  0.5377210000000  0.5742060000000 1.0
C      1  0.5399500000000  0.5771480000000  0.5138540000000 1.0
C      1  0.5418270000000  0.5579550000000  0.4456140000000 1.0
C      1  0.5368940000000  0.4967150000000  0.4205260000000 1.0
C      1  0.5394480000000  0.4341330000000  0.4495910000000 1.0
C      1  0.5410780000000  0.4217900000000  0.5212430000000 1.0
C      1  0.4623500000000  0.5451360000000  0.4921290000000 1.0
C      1  0.4630420000000  0.5266060000000  0.4656940000000 1.0
C      1  0.4657290000000  0.4770580000000  0.4600980000000 1.0
C      1  0.4677840000000  0.4574330000000  0.4884120000000 1.0
C      1  0.4658000000000  0.4661910000000  0.5258700000000 1.0
C      1  0.4662700000000  0.4973980000000  0.5413170000000 1.0
C      1  0.4606850000000  0.5326070000000  0.5262740000000 1.0
C      1  0.5445790000000  0.4699380000000  0.4870290000000 1.0
C      1  0.5418480000000  0.4656010000000  0.5206880000000 1.0
C      1  0.5549110000000  0.4935750000000  0.5334060000000 1.0
C      1  0.5363770000000  0.5223280000000  0.5338870000000 1.0
C      1  0.5475690000000  0.5296940000000  0.5000260000000 1.0
C      1  0.5397120000000  0.5217980000000  0.4702230000000 1.0
C      1  0.5518720000000  0.4914280000000  0.4619750000000 1.0
C      1  0.5604820000000  0.5013090000000  0.5036430000000 1.0
C      1  0.4796630000000  0.4985280000000  0.4996910000000 1.0
C      1  0.5907730000000  0.5024580000000  0.5017120000000 1.0
C      1  0.4625570000000  0.5002250000000  0.4779220000000 1.0
C      1  0.5040820000000  0.4854990000000  0.5018280000000 1.0
END
