TITL C-3577091-527-241 2.97330675231878e-06 125000 -465.726720008626 0 0 77 (C1) n - 1
REM
REM in /home/bkarasulu/work/CARBON/AIRSS/Generating-Clusters/EDIP-Nigel-Params/with-SteepDescent/Higher-Symm/SD-CG/HFTN-CG
REM
REM
REM
REM
REM
REM ./C.cell (12c818d87b63d06a65506943cc24bca4)
REM
REM compiler GCC version 9.2.1 20190827 (Red Hat 9.2.1-1)
REM options -cpp -mtune=generic -march=x86-64 -g -O0 -fpre-include=/usr/include/finclude/math-vector-fortran.h
REM seed -358918665 2066382416 1304414317 -232301008 -36161359 1073053290 -1605594456 2061163357 -1921717183 913122359 1060275534 -941018077 71303427 -2116746764 1550026898 -745447825 -138311010 -1087261560 -651499521 1247321328 -1687629696 -1095052983 1086826392 351275045 -39025490 -112717536 -938829868 -1270153482 -743698766 92407138 2106320790 137333677 1231045043
REM
CELL 1.54180   50.00000   50.00000   50.00000   90.00000   90.00000   90.00000
LATT -1
SFAC C  
C      1  0.4635780000000  0.5330200000000  0.4420700000000 1.0
C      1  0.4333700000000  0.5299050000000  0.4848880000000 1.0
C      1  0.4197390000000  0.5296000000000  0.5121410000000 1.0
C      1  0.4426440000000  0.5234190000000  0.5305670000000 1.0
C      1  0.4856250000000  0.5339170000000  0.5718570000000 1.0
C      1  0.5145100000000  0.5349660000000  0.5734560000000 1.0
C      1  0.5598820000000  0.5334210000000  0.5374880000000 1.0
C      1  0.5717380000000  0.5354490000000  0.5116330000000 1.0
C      1  0.5625420000000  0.5361410000000  0.4630330000000 1.0
C      1  0.5407450000000  0.5343180000000  0.4447460000000 1.0
C      1  0.4909560000000  0.5332620000000  0.4342150000000 1.0
C      1  0.5897630000000  0.5120810000000  0.5069470000000 1.0
C      1  0.5815410000000  0.5130920000000  0.4589980000000 1.0
C      1  0.5452390000000  0.5117830000000  0.4262350000000 1.0
C      1  0.4959760000000  0.5100430000000  0.4161190000000 1.0
C      1  0.4493380000000  0.5117110000000  0.4270580000000 1.0
C      1  0.4145900000000  0.5142670000000  0.4650700000000 1.0
C      1  0.4017280000000  0.5060990000000  0.5141070000000 1.0
C      1  0.4312770000000  0.5067880000000  0.5541640000000 1.0
C      1  0.4761020000000  0.5068950000000  0.5807120000000 1.0
C      1  0.5248810000000  0.5077420000000  0.5821770000000 1.0
C      1  0.5676860000000  0.5085980000000  0.5502200000000 1.0
C      1  0.5008470000000  0.4900610000000  0.5857530000000 1.0
C      1  0.5494510000000  0.4932880000000  0.5687930000000 1.0
C      1  0.5815550000000  0.4952480000000  0.5287160000000 1.0
C      1  0.5899880000000  0.4972860000000  0.4819500000000 1.0
C      1  0.5669190000000  0.4957230000000  0.4396250000000 1.0
C      1  0.5220250000000  0.4948500000000  0.4185710000000 1.0
C      1  0.4708740000000  0.4946630000000  0.4157970000000 1.0
C      1  0.4282050000000  0.4980020000000  0.4433640000000 1.0
C      1  0.4031490000000  0.4945500000000  0.4857260000000 1.0
C      1  0.4157560000000  0.4879700000000  0.5352580000000 1.0
C      1  0.4515800000000  0.4937270000000  0.5703280000000 1.0
C      1  0.5260500000000  0.4668370000000  0.4458420000000 1.0
C      1  0.4829140000000  0.4653310000000  0.4377310000000 1.0
C      1  0.4416180000000  0.4694980000000  0.4662160000000 1.0
C      1  0.4226820000000  0.4724260000000  0.4890480000000 1.0
C      1  0.4367030000000  0.4759740000000  0.5153440000000 1.0
C      1  0.4770670000000  0.4772840000000  0.5477670000000 1.0
C      1  0.5035500000000  0.4749600000000  0.5597710000000 1.0
C      1  0.5528890000000  0.4614000000000  0.5665730000000 1.0
C      1  0.5581170000000  0.4587410000000  0.5357560000000 1.0
C      1  0.5672860000000  0.4656900000000  0.4849170000000 1.0
C      1  0.5509870000000  0.4783050000000  0.4592030000000 1.0
C      1  0.4588340000000  0.5491370000000  0.5312760000000 1.0
C      1  0.4814300000000  0.5513070000000  0.5486740000000 1.0
C      1  0.5193580000000  0.5555120000000  0.5527310000000 1.0
C      1  0.5433280000000  0.5572430000000  0.5375850000000 1.0
C      1  0.5605030000000  0.5616330000000  0.5035580000000 1.0
C      1  0.5559950000000  0.5622120000000  0.4754910000000 1.0
C      1  0.5274810000000  0.5599330000000  0.4502730000000 1.0
C      1  0.4995180000000  0.5586490000000  0.4458800000000 1.0
C      1  0.4630640000000  0.5576770000000  0.4583480000000 1.0
C      1  0.4458450000000  0.5575430000000  0.4816000000000 1.0
C      1  0.4569930000000  0.5636140000000  0.5070790000000 1.0
C      1  0.4512620000000  0.4492300000000  0.5213260000000 1.0
C      1  0.4719480000000  0.4492030000000  0.5413750000000 1.0
C      1  0.5061460000000  0.4452780000000  0.5578450000000 1.0
C      1  0.5341480000000  0.4368080000000  0.5575170000000 1.0
C      1  0.5519650000000  0.4327810000000  0.5234660000000 1.0
C      1  0.5535050000000  0.4384150000000  0.4942510000000 1.0
C      1  0.5311400000000  0.4308380000000  0.4788650000000 1.0
C      1  0.5135860000000  0.4456560000000  0.4628570000000 1.0
C      1  0.4844010000000  0.4412210000000  0.4554630000000 1.0
C      1  0.4599150000000  0.4454740000000  0.4728420000000 1.0
C      1  0.4569560000000  0.4341950000000  0.4983690000000 1.0
C      1  0.4561350000000  0.5009070000000  0.5138000000000 1.0
C      1  0.4817290000000  0.4928770000000  0.5237930000000 1.0
C      1  0.5050200000000  0.5084640000000  0.5247630000000 1.0
C      1  0.5221900000000  0.4912710000000  0.5411120000000 1.0
C      1  0.5375110000000  0.4747110000000  0.5226920000000 1.0
C      1  0.5533620000000  0.4883090000000  0.5026550000000 1.0
C      1  0.5341220000000  0.4970300000000  0.4775760000000 1.0
C      1  0.5125500000000  0.5017860000000  0.4550180000000 1.0
C      1  0.4880380000000  0.4849640000000  0.4595220000000 1.0
C      1  0.4606460000000  0.4950370000000  0.4648920000000 1.0
C      1  0.4577080000000  0.5127530000000  0.4875540000000 1.0
END
