TITL C-3578201-9217-340 -2.07728516917021e-06 125000 -917.07171283791 0 0 146 (Ci) n - 1
REM
REM in /home/bkarasulu/work/CARBON/AIRSS/Generating-Clusters/EDIP-Nigel-Params/with-SteepDescent/Higher-Symm/SD-CG/HFTN-CG
REM
REM
REM
REM
REM
REM ./C.cell (12c818d87b63d06a65506943cc24bca4)
REM
REM compiler GCC version 9.2.1 20190827 (Red Hat 9.2.1-1)
REM options -cpp -mtune=generic -march=x86-64 -g -O0 -fpre-include=/usr/include/finclude/math-vector-fortran.h
REM seed 1708623330 -106784352 -762951333 -1187516835 545266403 1386826550 -2003266393 1430038347 -1814652632 880887382 -1602920833 1137535753 1057888859 1808835473 2002659583 -116303527 -1980634810 -614718524 1959357295 1178067923 -623163816 2129109953 1299740173 1042358734 -40169263 -1344245449 1686767026 -1637528955 42621489 546292598 1282381847 866249155 -1454555607
REM
CELL 1.54180   50.00000   50.00000   50.00000   90.00000   90.00000   90.00000
LATT -1
SFAC C  
C      1  0.5915370000000  0.5481080000000  0.5367160000000 1.0
C      1  0.5923790000000  0.4514980000000  0.4693570000000 1.0
C      1  0.4080270000000  0.5485020000000  0.5306430000000 1.0
C      1  0.4088690000000  0.4518920000000  0.4632840000000 1.0
C      1  0.4844860000000  0.5623520000000  0.5787420000000 1.0
C      1  0.4859910000000  0.4383960000000  0.4209770000000 1.0
C      1  0.5144150000000  0.5616040000000  0.5790230000000 1.0
C      1  0.5159200000000  0.4376480000000  0.4212580000000 1.0
C      1  0.5488350000000  0.5869180000000  0.5204260000000 1.0
C      1  0.5454560000000  0.4210850000000  0.4861100000000 1.0
C      1  0.4549490000000  0.5789150000000  0.5138900000000 1.0
C      1  0.4515700000000  0.4130820000000  0.4795740000000 1.0
C      1  0.4709610000000  0.5810450000000  0.5609710000000 1.0
C      1  0.4716170000000  0.4179700000000  0.4350720000000 1.0
C      1  0.5287880000000  0.5820300000000  0.5649280000000 1.0
C      1  0.5294450000000  0.4189550000000  0.4390290000000 1.0
C      1  0.5172910000000  0.5596540000000  0.5353730000000 1.0
C      1  0.5128160000000  0.4422930000000  0.4647260000000 1.0
C      1  0.4875890000000  0.5577070000000  0.5352740000000 1.0
C      1  0.4831150000000  0.4403460000000  0.4646270000000 1.0
C      1  0.5807150000000  0.5501330000000  0.5089890000000 1.0
C      1  0.5870830000000  0.4475200000000  0.4987050000000 1.0
C      1  0.4133220000000  0.5524800000000  0.5012950000000 1.0
C      1  0.4196910000000  0.4498670000000  0.4910110000000 1.0
C      1  0.5395550000000  0.5074740000000  0.4084060000000 1.0
C      1  0.5444270000000  0.4932970000000  0.5912500000000 1.0
C      1  0.4559790000000  0.5067030000000  0.4087500000000 1.0
C      1  0.4608500000000  0.4925260000000  0.5915940000000 1.0
C      1  0.5444010000000  0.4649190000000  0.5859510000000 1.0
C      1  0.5318810000000  0.5349080000000  0.4156470000000 1.0
C      1  0.4685240000000  0.4650920000000  0.5843530000000 1.0
C      1  0.4560040000000  0.5350810000000  0.4140490000000 1.0
C      1  0.5954010000000  0.5377570000000  0.4869490000000 1.0
C      1  0.5948070000000  0.4675880000000  0.5191850000000 1.0
C      1  0.4055980000000  0.5324120000000  0.4808150000000 1.0
C      1  0.4050040000000  0.4622430000000  0.5130510000000 1.0
C      1  0.5302570000000  0.4778380000000  0.5120420000000 1.0
C      1  0.5296550000000  0.5183920000000  0.4841610000000 1.0
C      1  0.4707500000000  0.4816080000000  0.5158390000000 1.0
C      1  0.4701480000000  0.5221620000000  0.4879580000000 1.0
C      1  0.4378630000000  0.5054570000000  0.5769240000000 1.0
C      1  0.4354440000000  0.4932270000000  0.4251600000000 1.0
C      1  0.5649620000000  0.5067730000000  0.5748400000000 1.0
C      1  0.5625420000000  0.4945430000000  0.4230760000000 1.0
C      1  0.6081480000000  0.5131860000000  0.4932710000000 1.0
C      1  0.6198490000000  0.4797230000000  0.5241160000000 1.0
C      1  0.3805560000000  0.5202770000000  0.4758840000000 1.0
C      1  0.3922570000000  0.4868140000000  0.5067290000000 1.0
C      1  0.5555950000000  0.5741040000000  0.4723040000000 1.0
C      1  0.5522740000000  0.4334420000000  0.5337060000000 1.0
C      1  0.4481320000000  0.5665580000000  0.4662940000000 1.0
C      1  0.4448110000000  0.4258960000000  0.5276960000000 1.0
C      1  0.4406260000000  0.5356060000000  0.5763530000000 1.0
C      1  0.4416030000000  0.4639760000000  0.4236610000000 1.0
C      1  0.5588030000000  0.5360240000000  0.5763390000000 1.0
C      1  0.5597800000000  0.4643940000000  0.4236470000000 1.0
C      1  0.5127220000000  0.4893790000000  0.4460850000000 1.0
C      1  0.5178050000000  0.5101730000000  0.5512660000000 1.0
C      1  0.4826000000000  0.4898270000000  0.4487340000000 1.0
C      1  0.4876840000000  0.5106210000000  0.5539150000000 1.0
C      1  0.4927150000000  0.5908760000000  0.4498080000000 1.0
C      1  0.4824360000000  0.4201130000000  0.5508500000000 1.0
C      1  0.5179690000000  0.5798870000000  0.4491500000000 1.0
C      1  0.5076900000000  0.4091240000000  0.5501920000000 1.0
C      1  0.4715550000000  0.4687820000000  0.4679850000000 1.0
C      1  0.4773380000000  0.5300520000000  0.5345810000000 1.0
C      1  0.5230670000000  0.4699480000000  0.4654190000000 1.0
C      1  0.5288510000000  0.5312180000000  0.5320150000000 1.0
C      1  0.4836020000000  0.5712970000000  0.5086240000000 1.0
C      1  0.4794600000000  0.4190610000000  0.4858350000000 1.0
C      1  0.5209450000000  0.5809390000000  0.5141650000000 1.0
C      1  0.5168040000000  0.4287030000000  0.4913760000000 1.0
C      1  0.4090830000000  0.5055780000000  0.5217460000000 1.0
C      1  0.3858370000000  0.4927980000000  0.4791240000000 1.0
C      1  0.6145680000000  0.5072020000000  0.5208760000000 1.0
C      1  0.5913230000000  0.4944220000000  0.4782540000000 1.0
C      1  0.5770960000000  0.4691180000000  0.5425050000000 1.0
C      1  0.5788960000000  0.5323420000000  0.4634550000000 1.0
C      1  0.4215090000000  0.4676580000000  0.5365450000000 1.0
C      1  0.4233090000000  0.5308820000000  0.4574950000000 1.0
C      1  0.4708890000000  0.4860290000000  0.5460260000000 1.0
C      1  0.4686450000000  0.5161270000000  0.4573520000000 1.0
C      1  0.5317600000000  0.4838730000000  0.5426480000000 1.0
C      1  0.5295170000000  0.5139710000000  0.4539740000000 1.0
C      1  0.4701200000000  0.4624340000000  0.4161210000000 1.0
C      1  0.4694160000000  0.5379630000000  0.5835570000000 1.0
C      1  0.5309890000000  0.4620370000000  0.4164430000000 1.0
C      1  0.5302860000000  0.5375660000000  0.5838790000000 1.0
C      1  0.4480330000000  0.5752580000000  0.5430220000000 1.0
C      1  0.4465370000000  0.4206550000000  0.4502120000000 1.0
C      1  0.5538680000000  0.5793450000000  0.5497880000000 1.0
C      1  0.5523730000000  0.4247420000000  0.4569780000000 1.0
C      1  0.5522240000000  0.4748330000000  0.4674410000000 1.0
C      1  0.5579110000000  0.5227180000000  0.5256380000000 1.0
C      1  0.4424940000000  0.4772820000000  0.4743620000000 1.0
C      1  0.4481820000000  0.5251670000000  0.5325590000000 1.0
C      1  0.5505080000000  0.5509110000000  0.4293150000000 1.0
C      1  0.5688860000000  0.4530720000000  0.5768500000000 1.0
C      1  0.4315190000000  0.5469280000000  0.4231500000000 1.0
C      1  0.4498980000000  0.4490890000000  0.5706850000000 1.0
C      1  0.6070710000000  0.4746770000000  0.4647140000000 1.0
C      1  0.6088310000000  0.5263430000000  0.5406270000000 1.0
C      1  0.3915750000000  0.4736570000000  0.4593730000000 1.0
C      1  0.3933340000000  0.5253230000000  0.5352860000000 1.0
C      1  0.5179580000000  0.4536290000000  0.5528730000000 1.0
C      1  0.5137990000000  0.5498610000000  0.4530400000000 1.0
C      1  0.4866070000000  0.4501390000000  0.5469600000000 1.0
C      1  0.4824470000000  0.5463710000000  0.4471270000000 1.0
C      1  0.4352110000000  0.4447930000000  0.5472280000000 1.0
C      1  0.4305620000000  0.5662300000000  0.4436990000000 1.0
C      1  0.5698440000000  0.4337700000000  0.5563010000000 1.0
C      1  0.5651940000000  0.5552070000000  0.4527720000000 1.0
C      1  0.5210650000000  0.4489230000000  0.5908860000000 1.0
C      1  0.5056790000000  0.5429960000000  0.4101620000000 1.0
C      1  0.4947260000000  0.4570040000000  0.5898380000000 1.0
C      1  0.4793410000000  0.5510770000000  0.4091140000000 1.0
C      1  0.4375340000000  0.5669090000000  0.4936900000000 1.0
C      1  0.4344250000000  0.4258190000000  0.4999850000000 1.0
C      1  0.5659810000000  0.5741810000000  0.5000150000000 1.0
C      1  0.5628710000000  0.4330910000000  0.5063100000000 1.0
C      1  0.4337250000000  0.5485820000000  0.5472340000000 1.0
C      1  0.4316400000000  0.4460920000000  0.4454040000000 1.0
C      1  0.5687660000000  0.5539080000000  0.5545960000000 1.0
C      1  0.5666810000000  0.4514180000000  0.4527660000000 1.0
C      1  0.5612700000000  0.4956110000000  0.5461870000000 1.0
C      1  0.5581850000000  0.5021410000000  0.4516320000000 1.0
C      1  0.4422200000000  0.4978590000000  0.5483680000000 1.0
C      1  0.4391360000000  0.5043890000000  0.4538130000000 1.0
C      1  0.5183080000000  0.4868630000000  0.4076590000000 1.0
C      1  0.5200530000000  0.5110250000000  0.5902210000000 1.0
C      1  0.4803520000000  0.4889750000000  0.4097790000000 1.0
C      1  0.4820970000000  0.5131370000000  0.5923410000000 1.0
C      1  0.5597430000000  0.4817650000000  0.4967410000000 1.0
C      1  0.5593230000000  0.5141000000000  0.4954670000000 1.0
C      1  0.4410820000000  0.4859000000000  0.5045330000000 1.0
C      1  0.4406620000000  0.5182350000000  0.5032590000000 1.0
C      1  0.5161560000000  0.5448270000000  0.4831020000000 1.0
C      1  0.5143900000000  0.4503570000000  0.5138200000000 1.0
C      1  0.4860160000000  0.5496430000000  0.4861800000000 1.0
C      1  0.4842490000000  0.4551730000000  0.5168980000000 1.0
C      1  0.4622020000000  0.4063640000000  0.5371410000000 1.0
C      1  0.4702680000000  0.5831260000000  0.4625650000000 1.0
C      1  0.5301370000000  0.4168740000000  0.5374350000000 1.0
C      1  0.5382030000000  0.5936360000000  0.4628590000000 1.0
C      1  0.5139930000000  0.4982190000000  0.4981320000000 1.0
C      1  0.4864120000000  0.5017810000000  0.5018680000000 1.0
END
