TITL C-3577090-796-36 -1.62709865863563e-06 125000 -512.80194723494 0 0 84 (C1) n - 1
REM
REM in /home/bkarasulu/work/CARBON/AIRSS/Generating-Clusters/EDIP-Nigel-Params/with-SteepDescent/Higher-Symm/SD-CG/HFTN-CG
REM
REM
REM
REM
REM
REM ./C.cell (12c818d87b63d06a65506943cc24bca4)
REM
REM compiler GCC version 9.2.1 20190827 (Red Hat 9.2.1-1)
REM options -cpp -mtune=generic -march=x86-64 -g -O0 -fpre-include=/usr/include/finclude/math-vector-fortran.h
REM seed -1376323070 -464975371 -1575577420 -1237152270 1899676495 1323270942 -1578618400 -662731240 -1156027126 -28809227 -617302516 -1645268974 -1438676078 997030493 587788176 -2034999636 -228270107 1132653486 2003285952 2046945142 704457022 -1828980988 -343506313 -671353516 1734820660 -554876474 -1148534566 1863296395 -1874333154 821993127 -1849216078 -2073938366 -211819440
REM
CELL 1.54180   50.00000   50.00000   50.00000   90.00000   90.00000   90.00000
LATT -1
SFAC C  
C      1  0.5606420000000  0.5409770000000  0.4498990000000 1.0
C      1  0.4855800000000  0.5427120000000  0.4188160000000 1.0
C      1  0.4262500000000  0.5400190000000  0.4750810000000 1.0
C      1  0.4304760000000  0.5432130000000  0.5576470000000 1.0
C      1  0.5148630000000  0.5407320000000  0.5679150000000 1.0
C      1  0.5752850000000  0.5393840000000  0.5311570000000 1.0
C      1  0.4395580000000  0.5407780000000  0.4494140000000 1.0
C      1  0.5145180000000  0.5413060000000  0.4207760000000 1.0
C      1  0.5740520000000  0.5397700000000  0.4755490000000 1.0
C      1  0.5731280000000  0.5365150000000  0.5584290000000 1.0
C      1  0.4859650000000  0.5413960000000  0.5705380000000 1.0
C      1  0.4263230000000  0.5367200000000  0.5297650000000 1.0
C      1  0.5403570000000  0.4464940000000  0.5382160000000 1.0
C      1  0.5542790000000  0.4477450000000  0.4849820000000 1.0
C      1  0.5137700000000  0.4487470000000  0.4462970000000 1.0
C      1  0.4597590000000  0.4481430000000  0.4617330000000 1.0
C      1  0.4458350000000  0.4472360000000  0.5158020000000 1.0
C      1  0.4866660000000  0.4459680000000  0.5527650000000 1.0
C      1  0.4616700000000  0.4560990000000  0.5415470000000 1.0
C      1  0.4439230000000  0.4561710000000  0.4880640000000 1.0
C      1  0.4829890000000  0.4568080000000  0.4461730000000 1.0
C      1  0.5390990000000  0.4567100000000  0.4585880000000 1.0
C      1  0.5562190000000  0.4563220000000  0.5128520000000 1.0
C      1  0.5168700000000  0.4555700000000  0.5529360000000 1.0
C      1  0.5416560000000  0.5622530000000  0.4557000000000 1.0
C      1  0.4809270000000  0.5644370000000  0.4378630000000 1.0
C      1  0.4419530000000  0.5605090000000  0.4888580000000 1.0
C      1  0.4545890000000  0.5686530000000  0.5414430000000 1.0
C      1  0.5181840000000  0.5647750000000  0.5513680000000 1.0
C      1  0.5580890000000  0.5580050000000  0.5181250000000 1.0
C      1  0.4580600000000  0.5626790000000  0.4545250000000 1.0
C      1  0.5188960000000  0.5636230000000  0.4389730000000 1.0
C      1  0.5586350000000  0.5599540000000  0.4897040000000 1.0
C      1  0.5385150000000  0.5698990000000  0.5334940000000 1.0
C      1  0.4804110000000  0.5638930000000  0.5526780000000 1.0
C      1  0.4430870000000  0.5562690000000  0.5172930000000 1.0
C      1  0.5284450000000  0.4988010000000  0.3987900000000 1.0
C      1  0.4266160000000  0.4984070000000  0.4267140000000 1.0
C      1  0.3971130000000  0.4968930000000  0.5274150000000 1.0
C      1  0.4757730000000  0.4983000000000  0.5933640000000 1.0
C      1  0.5714310000000  0.4944640000000  0.5810070000000 1.0
C      1  0.6010190000000  0.4979710000000  0.4755940000000 1.0
C      1  0.4717680000000  0.5012980000000  0.3955950000000 1.0
C      1  0.5767960000000  0.5015790000000  0.4247690000000 1.0
C      1  0.6050860000000  0.5009530000000  0.5297210000000 1.0
C      1  0.5225000000000  0.5027400000000  0.5979830000000 1.0
C      1  0.4238280000000  0.5009410000000  0.5796690000000 1.0
C      1  0.3966210000000  0.5005240000000  0.4730140000000 1.0
C      1  0.5981340000000  0.4713370000000  0.4741600000000 1.0
C      1  0.5258640000000  0.4723250000000  0.4023750000000 1.0
C      1  0.4280620000000  0.4717420000000  0.4294720000000 1.0
C      1  0.4015040000000  0.4704260000000  0.5277650000000 1.0
C      1  0.4747890000000  0.4713560000000  0.5944050000000 1.0
C      1  0.5701880000000  0.4686610000000  0.5736150000000 1.0
C      1  0.3988270000000  0.4739500000000  0.4711030000000 1.0
C      1  0.4746730000000  0.4748940000000  0.3984240000000 1.0
C      1  0.5763040000000  0.4750670000000  0.4279470000000 1.0
C      1  0.6010670000000  0.4746060000000  0.5314630000000 1.0
C      1  0.5228650000000  0.4758890000000  0.5990590000000 1.0
C      1  0.4253590000000  0.4749260000000  0.5736240000000 1.0
C      1  0.4664100000000  0.5218310000000  0.4131920000000 1.0
C      1  0.4103890000000  0.5195020000000  0.4874460000000 1.0
C      1  0.4395250000000  0.5235980000000  0.5762640000000 1.0
C      1  0.5326970000000  0.5227620000000  0.5819600000000 1.0
C      1  0.5922910000000  0.5215850000000  0.5166810000000 1.0
C      1  0.5585340000000  0.5218810000000  0.4284300000000 1.0
C      1  0.5342070000000  0.5214330000000  0.4135920000000 1.0
C      1  0.5894970000000  0.5194520000000  0.4885450000000 1.0
C      1  0.5605100000000  0.5194380000000  0.5760040000000 1.0
C      1  0.4678990000000  0.5204330000000  0.5787920000000 1.0
C      1  0.4082630000000  0.5193040000000  0.5157660000000 1.0
C      1  0.4424800000000  0.5209620000000  0.4286260000000 1.0
C      1  0.4868350000000  0.4481650000000  0.5840100000000 1.0
C      1  0.5671100000000  0.4482200000000  0.5546030000000 1.0
C      1  0.5811450000000  0.4496350000000  0.4690160000000 1.0
C      1  0.5133410000000  0.4506790000000  0.4150600000000 1.0
C      1  0.4326200000000  0.4496720000000  0.4461680000000 1.0
C      1  0.4192690000000  0.4492650000000  0.5324790000000 1.0
C      1  0.5171520000000  0.4533870000000  0.5835930000000 1.0
C      1  0.4356260000000  0.4542310000000  0.5580470000000 1.0
C      1  0.4174430000000  0.4533170000000  0.4726820000000 1.0
C      1  0.4828820000000  0.4544910000000  0.4154670000000 1.0
C      1  0.5655010000000  0.4542690000000  0.4429300000000 1.0
C      1  0.5826610000000  0.4539530000000  0.5286360000000 1.0
END
