TITL C-3578198-8939-628 -2.7714602427272e-06 125000 -1170.0445124931 0 0 187 (C1) n - 1
REM
REM in /home/bkarasulu/work/CARBON/AIRSS/Generating-Clusters/EDIP-Nigel-Params/with-SteepDescent/Higher-Symm/SD-CG/HFTN-CG
REM
REM
REM
REM
REM
REM ./C.cell (12c818d87b63d06a65506943cc24bca4)
REM
REM compiler GCC version 9.2.1 20190827 (Red Hat 9.2.1-1)
REM options -cpp -mtune=generic -march=x86-64 -g -O0 -fpre-include=/usr/include/finclude/math-vector-fortran.h
REM seed -543053248 -1838695535 -2120928900 1967965478 -1440703225 -390583542 -1742026092 -905312380 1846025467 -1247472698 -1008548521 1970656541 -506162954 1010128342 -1654517408 330572390 -1271493810 -1114194169 833423611 1113440797 -432191714 536193550 -1680783680 -1355677556 360538509 502281210 -922713265 999345736 -1296133308 816496379 365751939 1449958420 -531250839
REM
CELL 1.54180   50.00000   50.00000   50.00000   90.00000   90.00000   90.00000
LATT -1
SFAC C  
C      1  0.5091110000000  0.5848320000000  0.4979410000000 1.0
C      1  0.5821970000000  0.5299170000000  0.5102660000000 1.0
C      1  0.5305880000000  0.5205040000000  0.5733560000000 1.0
C      1  0.5026850000000  0.4292100000000  0.4833830000000 1.0
C      1  0.4921290000000  0.6083160000000  0.4587430000000 1.0
C      1  0.4815510000000  0.4077090000000  0.5185680000000 1.0
C      1  0.5685760000000  0.4878820000000  0.4841000000000 1.0
C      1  0.4061560000000  0.5209100000000  0.4903750000000 1.0
C      1  0.4176140000000  0.4807130000000  0.5164170000000 1.0
C      1  0.5169670000000  0.4938610000000  0.4186500000000 1.0
C      1  0.4736840000000  0.5156930000000  0.4168450000000 1.0
C      1  0.4922320000000  0.4923220000000  0.5847620000000 1.0
C      1  0.4829190000000  0.5943800000000  0.5119410000000 1.0
C      1  0.3980000000000  0.5202580000000  0.5185970000000 1.0
C      1  0.4856060000000  0.5195480000000  0.5928620000000 1.0
C      1  0.4790940000000  0.4124570000000  0.4743730000000 1.0
C      1  0.5160090000000  0.5952840000000  0.4706510000000 1.0
C      1  0.5068000000000  0.4217010000000  0.5108390000000 1.0
C      1  0.4234510000000  0.4692140000000  0.4870630000000 1.0
C      1  0.6006470000000  0.5303740000000  0.4864870000000 1.0
C      1  0.5729940000000  0.5008980000000  0.5118040000000 1.0
C      1  0.4890860000000  0.4912900000000  0.4134650000000 1.0
C      1  0.5216410000000  0.5237610000000  0.4179310000000 1.0
C      1  0.5207970000000  0.4912340000000  0.5772350000000 1.0
C      1  0.5011810000000  0.5310130000000  0.6132330000000 1.0
C      1  0.5521660000000  0.6059370000000  0.4995650000000 1.0
C      1  0.5966730000000  0.4889910000000  0.5239250000000 1.0
C      1  0.4820910000000  0.4733910000000  0.3925530000000 1.0
C      1  0.5124580000000  0.5332370000000  0.3918980000000 1.0
C      1  0.5123580000000  0.4576500000000  0.6115270000000 1.0
C      1  0.5295880000000  0.4021120000000  0.5107600000000 1.0
C      1  0.4747150000000  0.6212060000000  0.5045150000000 1.0
C      1  0.4725160000000  0.3838020000000  0.4823800000000 1.0
C      1  0.6151390000000  0.5069150000000  0.4801010000000 1.0
C      1  0.3836430000000  0.4800460000000  0.4666180000000 1.0
C      1  0.3821190000000  0.4993470000000  0.5274040000000 1.0
C      1  0.5275430000000  0.5290970000000  0.6033420000000 1.0
C      1  0.4770070000000  0.6222730000000  0.4776710000000 1.0
C      1  0.3845140000000  0.4750130000000  0.5395350000000 1.0
C      1  0.5079680000000  0.4576150000000  0.3898400000000 1.0
C      1  0.4847750000000  0.5349320000000  0.3958950000000 1.0
C      1  0.4891500000000  0.4736320000000  0.6083010000000 1.0
C      1  0.4762670000000  0.3815170000000  0.5103280000000 1.0
C      1  0.5309420000000  0.5941350000000  0.5142200000000 1.0
C      1  0.5297400000000  0.3863190000000  0.4866080000000 1.0
C      1  0.3855510000000  0.5066430000000  0.4741410000000 1.0
C      1  0.5970820000000  0.4860770000000  0.4714190000000 1.0
C      1  0.6098250000000  0.5066090000000  0.5423300000000 1.0
C      1  0.5275410000000  0.5137890000000  0.4710260000000 1.0
C      1  0.5133110000000  0.4450330000000  0.5334990000000 1.0
C      1  0.4757770000000  0.5480470000000  0.4970470000000 1.0
C      1  0.5495800000000  0.4952220000000  0.5308950000000 1.0
C      1  0.4708580000000  0.5297840000000  0.5201130000000 1.0
C      1  0.4371250000000  0.4905300000000  0.4666420000000 1.0
C      1  0.5043640000000  0.5404240000000  0.4423790000000 1.0
C      1  0.4625720000000  0.4788310000000  0.4582850000000 1.0
C      1  0.4905390000000  0.5219240000000  0.5402600000000 1.0
C      1  0.4677120000000  0.4551450000000  0.4748600000000 1.0
C      1  0.5190280000000  0.5416320000000  0.4685650000000 1.0
C      1  0.5399400000000  0.4628360000000  0.5198310000000 1.0
C      1  0.4396810000000  0.5154720000000  0.4842630000000 1.0
C      1  0.4902190000000  0.4648010000000  0.5400910000000 1.0
C      1  0.5293470000000  0.5414410000000  0.5180560000000 1.0
C      1  0.4464020000000  0.4865970000000  0.5298230000000 1.0
C      1  0.5277990000000  0.5114350000000  0.5190820000000 1.0
C      1  0.5549140000000  0.5072170000000  0.4652020000000 1.0
C      1  0.4777020000000  0.5249090000000  0.4474030000000 1.0
C      1  0.5136210000000  0.4545490000000  0.4758830000000 1.0
C      1  0.5138260000000  0.5410630000000  0.5487070000000 1.0
C      1  0.5284800000000  0.4718170000000  0.4934040000000 1.0
C      1  0.4572460000000  0.5387900000000  0.4710450000000 1.0
C      1  0.4647890000000  0.4618870000000  0.5233430000000 1.0
C      1  0.5898180000000  0.5409420000000  0.4361050000000 1.0
C      1  0.5411070000000  0.4283270000000  0.5778740000000 1.0
C      1  0.4334160000000  0.5721430000000  0.5369650000000 1.0
C      1  0.5721680000000  0.4667200000000  0.5669210000000 1.0
C      1  0.4237490000000  0.5348380000000  0.5663930000000 1.0
C      1  0.4160350000000  0.4593910000000  0.4250010000000 1.0
C      1  0.5506140000000  0.5748120000000  0.4321490000000 1.0
C      1  0.4599490000000  0.4330380000000  0.4174290000000 1.0
C      1  0.4642410000000  0.5642750000000  0.5766340000000 1.0
C      1  0.4321230000000  0.4240880000000  0.4574500000000 1.0
C      1  0.5877440000000  0.5792900000000  0.4678150000000 1.0
C      1  0.5700350000000  0.4265800000000  0.5382930000000 1.0
C      1  0.4088450000000  0.5365020000000  0.4301410000000 1.0
C      1  0.4671530000000  0.4295560000000  0.5778540000000 1.0
C      1  0.5765300000000  0.5760280000000  0.5441650000000 1.0
C      1  0.4270770000000  0.4584560000000  0.5710240000000 1.0
C      1  0.5783700000000  0.5402780000000  0.5812100000000 1.0
C      1  0.5735270000000  0.4637910000000  0.4358600000000 1.0
C      1  0.4520740000000  0.5600980000000  0.4170450000000 1.0
C      1  0.5360600000000  0.4292960000000  0.4275580000000 1.0
C      1  0.5419320000000  0.5732400000000  0.5818350000000 1.0
C      1  0.5658790000000  0.4255110000000  0.4667000000000 1.0
C      1  0.4386850000000  0.5637910000000  0.4628620000000 1.0
C      1  0.4377330000000  0.4231770000000  0.5378500000000 1.0
C      1  0.4805170000000  0.5844600000000  0.4461540000000 1.0
C      1  0.5989720000000  0.4578650000000  0.4806410000000 1.0
C      1  0.4595160000000  0.4748790000000  0.5970210000000 1.0
C      1  0.4810630000000  0.3988200000000  0.5456510000000 1.0
C      1  0.5298420000000  0.5898670000000  0.5422730000000 1.0
C      1  0.5274030000000  0.3942740000000  0.4588240000000 1.0
C      1  0.5984880000000  0.5319410000000  0.5352790000000 1.0
C      1  0.4027130000000  0.4561620000000  0.5293060000000 1.0
C      1  0.3952470000000  0.5441480000000  0.4762090000000 1.0
C      1  0.4453340000000  0.5077330000000  0.4106930000000 1.0
C      1  0.5305990000000  0.4716440000000  0.4039200000000 1.0
C      1  0.5479800000000  0.5427220000000  0.6173490000000 1.0
C      1  0.5444560000000  0.6056150000000  0.4712180000000 1.0
C      1  0.3998280000000  0.4581790000000  0.4723520000000 1.0
C      1  0.5323600000000  0.4719420000000  0.5969160000000 1.0
C      1  0.5313990000000  0.3970490000000  0.5408000000000 1.0
C      1  0.4829420000000  0.5881550000000  0.5412320000000 1.0
C      1  0.4742840000000  0.3953900000000  0.4487620000000 1.0
C      1  0.3946690000000  0.5447440000000  0.5312770000000 1.0
C      1  0.5942660000000  0.4594410000000  0.5198090000000 1.0
C      1  0.6207050000000  0.5446170000000  0.4716920000000 1.0
C      1  0.5507680000000  0.5261360000000  0.4188620000000 1.0
C      1  0.4518600000000  0.4760840000000  0.3942600000000 1.0
C      1  0.4569880000000  0.5181010000000  0.5906360000000 1.0
C      1  0.3938800000000  0.5101330000000  0.4309830000000 1.0
C      1  0.5090670000000  0.4192760000000  0.4215970000000 1.0
C      1  0.4321850000000  0.4127220000000  0.5121430000000 1.0
C      1  0.4131990000000  0.4824770000000  0.5796030000000 1.0
C      1  0.5811410000000  0.5130360000000  0.5903130000000 1.0
C      1  0.5931780000000  0.4844800000000  0.4271680000000 1.0
C      1  0.5145590000000  0.5805460000000  0.5909910000000 1.0
C      1  0.4907150000000  0.4225630000000  0.5915430000000 1.0
C      1  0.4792750000000  0.5608810000000  0.4057030000000 1.0
C      1  0.4398220000000  0.5828600000000  0.4863680000000 1.0
C      1  0.5738190000000  0.4121920000000  0.4892540000000 1.0
C      1  0.5709760000000  0.5764660000000  0.5140250000000 1.0
C      1  0.6000260000000  0.5132140000000  0.4310390000000 1.0
C      1  0.4871940000000  0.4316980000000  0.4068380000000 1.0
C      1  0.5794470000000  0.4143720000000  0.5154270000000 1.0
C      1  0.5873120000000  0.4892940000000  0.5761890000000 1.0
C      1  0.4102060000000  0.5092430000000  0.5696320000000 1.0
C      1  0.3987890000000  0.4831950000000  0.4193550000000 1.0
C      1  0.4879020000000  0.5708550000000  0.5913220000000 1.0
C      1  0.5179610000000  0.4163610000000  0.5911520000000 1.0
C      1  0.5242640000000  0.5795700000000  0.4227660000000 1.0
C      1  0.5931320000000  0.5818540000000  0.4956480000000 1.0
C      1  0.4295560000000  0.4126820000000  0.4841050000000 1.0
C      1  0.4250700000000  0.5828240000000  0.5114460000000 1.0
C      1  0.5624830000000  0.5885180000000  0.4553430000000 1.0
C      1  0.5848380000000  0.4490840000000  0.5471340000000 1.0
C      1  0.4452560000000  0.5429640000000  0.5837000000000 1.0
C      1  0.5521520000000  0.4125800000000  0.5557630000000 1.0
C      1  0.4580170000000  0.5785030000000  0.5523610000000 1.0
C      1  0.4526950000000  0.4146120000000  0.4384880000000 1.0
C      1  0.6043970000000  0.5596910000000  0.4533240000000 1.0
C      1  0.4115190000000  0.4433960000000  0.4494130000000 1.0
C      1  0.4138420000000  0.5546420000000  0.5485870000000 1.0
C      1  0.4404570000000  0.4535930000000  0.4089950000000 1.0
C      1  0.5647210000000  0.5502310000000  0.4247970000000 1.0
C      1  0.5525490000000  0.4543480000000  0.5848290000000 1.0
C      1  0.4521680000000  0.5778620000000  0.4404930000000 1.0
C      1  0.4189310000000  0.4420210000000  0.5487560000000 1.0
C      1  0.5608760000000  0.5573430000000  0.5971590000000 1.0
C      1  0.4581880000000  0.4132350000000  0.5562550000000 1.0
C      1  0.5529610000000  0.5869940000000  0.5587760000000 1.0
C      1  0.5470580000000  0.4135410000000  0.4489320000000 1.0
C      1  0.4109090000000  0.5538760000000  0.4544900000000 1.0
C      1  0.5828830000000  0.4462100000000  0.4578800000000 1.0
C      1  0.5854510000000  0.5495720000000  0.5545450000000 1.0
C      1  0.5493440000000  0.4542580000000  0.4198320000000 1.0
C      1  0.4332210000000  0.5364290000000  0.4133850000000 1.0
C      1  0.4492590000000  0.4500100000000  0.5869290000000 1.0
C      1  0.5628660000000  0.5060230000000  0.4366850000000 1.0
C      1  0.4472170000000  0.4973740000000  0.5680850000000 1.0
C      1  0.4443940000000  0.4475820000000  0.4926120000000 1.0
C      1  0.4295870000000  0.4987060000000  0.4365350000000 1.0
C      1  0.5077670000000  0.4124990000000  0.5541210000000 1.0
C      1  0.4982130000000  0.5677690000000  0.4287480000000 1.0
C      1  0.4626690000000  0.5742150000000  0.5045110000000 1.0
C      1  0.5671740000000  0.4519970000000  0.5021340000000 1.0
C      1  0.5588850000000  0.5492680000000  0.5092580000000 1.0
C      1  0.5570690000000  0.5075230000000  0.5605540000000 1.0
C      1  0.5032710000000  0.3977270000000  0.4399630000000 1.0
C      1  0.5073580000000  0.5742210000000  0.5535320000000 1.0
C      1  0.5083230000000  0.5529600000000  0.4950870000000 1.0
C      1  0.5173540000000  0.4993440000000  0.4947430000000 1.0
C      1  0.4945070000000  0.4931910000000  0.5418390000000 1.0
C      1  0.4833610000000  0.4665100000000  0.4970410000000 1.0
C      1  0.4587620000000  0.5066340000000  0.5082030000000 1.0
C      1  0.4825140000000  0.4991630000000  0.4626060000000 1.0
C      1  0.4857860000000  0.4959440000000  0.4924210000000 1.0
END
