TITL C-3578203-1966-492 -4.0126314788511e-08 125000 -726.849263609244 0 0 117 (C1) n - 1
REM
REM in /home/bkarasulu/work/CARBON/AIRSS/Generating-Clusters/EDIP-Nigel-Params/with-SteepDescent/Higher-Symm/SD-CG/HFTN-CG
REM
REM
REM
REM
REM
REM ./C.cell (12c818d87b63d06a65506943cc24bca4)
REM
REM compiler GCC version 9.2.1 20190827 (Red Hat 9.2.1-1)
REM options -cpp -mtune=generic -march=x86-64 -g -O0 -fpre-include=/usr/include/finclude/math-vector-fortran.h
REM seed -1821758757 1564600702 121447326 324755338 1100008654 -158430969 1650236248 403360715 1236621946 1245620161 -2141721700 -1222862836 517286678 -1945201735 752546383 691406730 -947871390 605151726 -525597829 1903010873 -65871375 929602409 -178935482 714280187 1968737645 831872718 -667692001 1990609576 2120280839 196791643 612927654 -76517409 614355898
REM
CELL 1.54180   50.00000   50.00000   50.00000   90.00000   90.00000   90.00000
LATT -1
SFAC C  
C      1  0.5553490000000  0.5450740000000  0.5541100000000 1.0
C      1  0.4466160000000  0.5519550000000  0.5366240000000 1.0
C      1  0.4392220000000  0.4828570000000  0.5514070000000 1.0
C      1  0.4896490000000  0.4308110000000  0.5576330000000 1.0
C      1  0.5580230000000  0.4674740000000  0.5543760000000 1.0
C      1  0.4504940000000  0.5449080000000  0.4389650000000 1.0
C      1  0.5261000000000  0.5601730000000  0.4514510000000 1.0
C      1  0.5673420000000  0.4961880000000  0.4446930000000 1.0
C      1  0.5058750000000  0.4350480000000  0.4444370000000 1.0
C      1  0.4395440000000  0.4699740000000  0.4460300000000 1.0
C      1  0.5634640000000  0.5259950000000  0.4388640000000 1.0
C      1  0.4969660000000  0.5608030000000  0.4517180000000 1.0
C      1  0.4325620000000  0.5199460000000  0.4379360000000 1.0
C      1  0.4569020000000  0.4459020000000  0.4435780000000 1.0
C      1  0.5330540000000  0.4422950000000  0.4342300000000 1.0
C      1  0.4363500000000  0.5102640000000  0.5621120000000 1.0
C      1  0.5106640000000  0.5688300000000  0.5597900000000 1.0
C      1  0.5684800000000  0.5181770000000  0.5551640000000 1.0
C      1  0.5401070000000  0.4424180000000  0.5575880000000 1.0
C      1  0.4631330000000  0.4426310000000  0.5592070000000 1.0
C      1  0.5497040000000  0.4944740000000  0.5667310000000 1.0
C      1  0.5261520000000  0.5428610000000  0.5611960000000 1.0
C      1  0.4597550000000  0.5289210000000  0.5523120000000 1.0
C      1  0.4648880000000  0.4732260000000  0.5588920000000 1.0
C      1  0.5111890000000  0.4505870000000  0.5647590000000 1.0
C      1  0.4498450000000  0.4957880000000  0.4333620000000 1.0
C      1  0.4799870000000  0.5416930000000  0.4339260000000 1.0
C      1  0.5328850000000  0.5327320000000  0.4419840000000 1.0
C      1  0.5411240000000  0.4793580000000  0.4440830000000 1.0
C      1  0.4851620000000  0.4561140000000  0.4400700000000 1.0
C      1  0.4953500000000  0.5889810000000  0.5175800000000 1.0
C      1  0.4332210000000  0.5067320000000  0.5111780000000 1.0
C      1  0.4556510000000  0.4401990000000  0.5099130000000 1.0
C      1  0.5521480000000  0.4333200000000  0.5083570000000 1.0
C      1  0.5904590000000  0.5300520000000  0.5078520000000 1.0
C      1  0.5035470000000  0.5925190000000  0.4894950000000 1.0
C      1  0.5757940000000  0.5203130000000  0.4829770000000 1.0
C      1  0.5369560000000  0.4386740000000  0.4835710000000 1.0
C      1  0.4312330000000  0.4483410000000  0.4914910000000 1.0
C      1  0.4210280000000  0.5459340000000  0.4767630000000 1.0
C      1  0.4663520000000  0.5164030000000  0.3927460000000 1.0
C      1  0.4683640000000  0.4693240000000  0.3957180000000 1.0
C      1  0.5289940000000  0.4590340000000  0.4081110000000 1.0
C      1  0.5482560000000  0.5106200000000  0.4062460000000 1.0
C      1  0.5087830000000  0.5370800000000  0.3943520000000 1.0
C      1  0.5380260000000  0.5181550000000  0.6043850000000 1.0
C      1  0.5312540000000  0.4720960000000  0.6040870000000 1.0
C      1  0.4837630000000  0.4714530000000  0.6022320000000 1.0
C      1  0.4454240000000  0.5028190000000  0.5905530000000 1.0
C      1  0.4847250000000  0.5663230000000  0.5700650000000 1.0
C      1  0.4449370000000  0.4320540000000  0.5372020000000 1.0
C      1  0.5407280000000  0.4234950000000  0.5331690000000 1.0
C      1  0.5830490000000  0.5106610000000  0.5291520000000 1.0
C      1  0.5166210000000  0.5889910000000  0.5386140000000 1.0
C      1  0.4175970000000  0.5183420000000  0.5359990000000 1.0
C      1  0.5532030000000  0.4399520000000  0.4591080000000 1.0
C      1  0.4541610000000  0.4289210000000  0.4672400000000 1.0
C      1  0.4166310000000  0.5196190000000  0.4641140000000 1.0
C      1  0.4853470000000  0.5819170000000  0.4690350000000 1.0
C      1  0.5778320000000  0.5417120000000  0.4620500000000 1.0
C      1  0.4886330000000  0.4798480000000  0.4598070000000 1.0
C      1  0.5192070000000  0.4848140000000  0.4661910000000 1.0
C      1  0.5245520000000  0.5146990000000  0.4712210000000 1.0
C      1  0.5009130000000  0.5286360000000  0.4821540000000 1.0
C      1  0.4748060000000  0.5048620000000  0.4488080000000 1.0
C      1  0.5100910000000  0.4729270000000  0.5433280000000 1.0
C      1  0.4821120000000  0.4814320000000  0.5354910000000 1.0
C      1  0.4816120000000  0.5128590000000  0.5320020000000 1.0
C      1  0.5170720000000  0.5209550000000  0.5391740000000 1.0
C      1  0.5216440000000  0.4969340000000  0.5558050000000 1.0
C      1  0.4618900000000  0.5212650000000  0.5069840000000 1.0
C      1  0.4722980000000  0.4657730000000  0.5099710000000 1.0
C      1  0.5291210000000  0.4629420000000  0.5187220000000 1.0
C      1  0.5447620000000  0.5091630000000  0.5205890000000 1.0
C      1  0.4903300000000  0.5601590000000  0.5171370000000 1.0
C      1  0.5467720000000  0.5169530000000  0.4915580000000 1.0
C      1  0.5229690000000  0.4649510000000  0.4889200000000 1.0
C      1  0.4689540000000  0.4789710000000  0.4837550000000 1.0
C      1  0.4718390000000  0.5225510000000  0.4764250000000 1.0
C      1  0.5087200000000  0.5542130000000  0.4938240000000 1.0
C      1  0.5806680000000  0.4761640000000  0.5123960000000 1.0
C      1  0.5425880000000  0.5850450000000  0.5286170000000 1.0
C      1  0.4184860000000  0.5464730000000  0.5301310000000 1.0
C      1  0.4171570000000  0.4397600000000  0.5377510000000 1.0
C      1  0.5189830000000  0.4046970000000  0.5287390000000 1.0
C      1  0.4229810000000  0.4982260000000  0.4838730000000 1.0
C      1  0.4597580000000  0.5743680000000  0.4796920000000 1.0
C      1  0.5675670000000  0.5644460000000  0.4795200000000 1.0
C      1  0.5790970000000  0.4471750000000  0.4683430000000 1.0
C      1  0.4776210000000  0.4169400000000  0.4794340000000 1.0
C      1  0.5474950000000  0.4933320000000  0.5965220000000 1.0
C      1  0.5193650000000  0.5317800000000  0.5886520000000 1.0
C      1  0.4742750000000  0.5407590000000  0.5751530000000 1.0
C      1  0.4715650000000  0.4901780000000  0.5844310000000 1.0
C      1  0.5082510000000  0.4609300000000  0.5932710000000 1.0
C      1  0.4560610000000  0.4929700000000  0.4040570000000 1.0
C      1  0.4893110000000  0.5223950000000  0.4095810000000 1.0
C      1  0.5322130000000  0.5345500000000  0.4094830000000 1.0
C      1  0.5313210000000  0.4879370000000  0.4165270000000 1.0
C      1  0.4917140000000  0.4678140000000  0.4125830000000 1.0
C      1  0.4929070000000  0.4103480000000  0.5377530000000 1.0
C      1  0.5540180000000  0.4776400000000  0.5256340000000 1.0
C      1  0.5582290000000  0.5620670000000  0.5301030000000 1.0
C      1  0.4620080000000  0.5525920000000  0.5113270000000 1.0
C      1  0.4381810000000  0.4790620000000  0.5226530000000 1.0
C      1  0.5028210000000  0.4168890000000  0.4664120000000 1.0
C      1  0.4398610000000  0.4742850000000  0.4756310000000 1.0
C      1  0.4499050000000  0.5490370000000  0.4687380000000 1.0
C      1  0.5389260000000  0.5696670000000  0.4755900000000 1.0
C      1  0.5838410000000  0.4951850000000  0.4688390000000 1.0
C      1  0.4129800000000  0.5501310000000  0.5030880000000 1.0
C      1  0.5773760000000  0.5574750000000  0.5084140000000 1.0
C      1  0.4160970000000  0.4586600000000  0.5166020000000 1.0
C      1  0.5816850000000  0.4710060000000  0.4837630000000 1.0
C      1  0.4934040000000  0.4015830000000  0.5004630000000 1.0
C      1  0.5028810000000  0.4956350000000  0.4170760000000 1.0
C      1  0.4921170000000  0.5223840000000  0.5878990000000 1.0
END
