TITL C-3578206-1180-148 -2.71761903142925e-07 125000 -1009.10017748019 0 0 165 (C1) n - 1
REM
REM in /home/bkarasulu/work/CARBON/AIRSS/Generating-Clusters/EDIP-Nigel-Params/with-SteepDescent/Higher-Symm/SD-CG/HFTN-CG
REM
REM
REM
REM
REM
REM ./C.cell (12c818d87b63d06a65506943cc24bca4)
REM
REM compiler GCC version 9.2.1 20190827 (Red Hat 9.2.1-1)
REM options -cpp -mtune=generic -march=x86-64 -g -O0 -fpre-include=/usr/include/finclude/math-vector-fortran.h
REM seed 1192191738 -394427634 1633887271 -539882054 920619965 -1986877027 1700726517 -974829834 -773801123 -360975859 897521792 -188565898 1181167557 -23569203 -1466748068 -1646132618 630076288 1709092776 181613718 -468558150 -2030249663 -1955737173 703198214 962753921 -1549835858 581042648 -1130935227 -400952752 -121979308 -2117449584 832075019 1261633345 1806532590
REM
CELL 1.54180   50.00000   50.00000   50.00000   90.00000   90.00000   90.00000
LATT -1
SFAC C  
C      1  0.5317310000000  0.3864000000000  0.4763830000000 1.0
C      1  0.5065900000000  0.3961080000000  0.4686120000000 1.0
C      1  0.4829290000000  0.3830880000000  0.4757430000000 1.0
C      1  0.4672070000000  0.3992370000000  0.4924300000000 1.0
C      1  0.4544470000000  0.3894010000000  0.5153190000000 1.0
C      1  0.4634660000000  0.4059520000000  0.5361440000000 1.0
C      1  0.4814660000000  0.3952180000000  0.5546880000000 1.0
C      1  0.5061390000000  0.4072130000000  0.5482240000000 1.0
C      1  0.5235990000000  0.3927500000000  0.5315350000000 1.0
C      1  0.5377020000000  0.4124020000000  0.5175620000000 1.0
C      1  0.5431790000000  0.4100240000000  0.4886900000000 1.0
C      1  0.4949730000000  0.5879370000000  0.4432000000000 1.0
C      1  0.4668410000000  0.5861860000000  0.4574160000000 1.0
C      1  0.4476570000000  0.5855600000000  0.4821830000000 1.0
C      1  0.4465560000000  0.5858150000000  0.5135110000000 1.0
C      1  0.4624100000000  0.5849480000000  0.5406440000000 1.0
C      1  0.4903890000000  0.5834260000000  0.5540920000000 1.0
C      1  0.5213640000000  0.5846250000000  0.5505410000000 1.0
C      1  0.5449490000000  0.5843200000000  0.5305220000000 1.0
C      1  0.5551210000000  0.5868210000000  0.5014780000000 1.0
C      1  0.5482800000000  0.5876590000000  0.4710280000000 1.0
C      1  0.5258140000000  0.5896660000000  0.4489820000000 1.0
C      1  0.5355360000000  0.5177450000000  0.3806980000000 1.0
C      1  0.4661400000000  0.5165680000000  0.3865760000000 1.0
C      1  0.4104450000000  0.5151150000000  0.4174870000000 1.0
C      1  0.3820990000000  0.5153680000000  0.4813650000000 1.0
C      1  0.3902960000000  0.5167050000000  0.5493640000000 1.0
C      1  0.4338160000000  0.5123030000000  0.6053990000000 1.0
C      1  0.5038390000000  0.5136470000000  0.6214460000000 1.0
C      1  0.5758880000000  0.5121950000000  0.5997150000000 1.0
C      1  0.6072500000000  0.5121820000000  0.5447820000000 1.0
C      1  0.6205840000000  0.5147980000000  0.4776400000000 1.0
C      1  0.5903940000000  0.5168220000000  0.4167620000000 1.0
C      1  0.5476760000000  0.5002370000000  0.4013200000000 1.0
C      1  0.4946540000000  0.5121700000000  0.3962070000000 1.0
C      1  0.4360050000000  0.4983330000000  0.4172260000000 1.0
C      1  0.4034670000000  0.5083220000000  0.4605180000000 1.0
C      1  0.3964010000000  0.5021280000000  0.5218860000000 1.0
C      1  0.4244510000000  0.4983020000000  0.5797860000000 1.0
C      1  0.4785810000000  0.4988540000000  0.6061470000000 1.0
C      1  0.5476780000000  0.4890230000000  0.6113690000000 1.0
C      1  0.5850240000000  0.4953620000000  0.5552980000000 1.0
C      1  0.6090970000000  0.4977290000000  0.5003070000000 1.0
C      1  0.5888340000000  0.5021250000000  0.4429800000000 1.0
C      1  0.3899420000000  0.5382100000000  0.4965040000000 1.0
C      1  0.4125580000000  0.5340030000000  0.5559970000000 1.0
C      1  0.4513360000000  0.5353950000000  0.6004810000000 1.0
C      1  0.5158550000000  0.5324660000000  0.6030790000000 1.0
C      1  0.5693830000000  0.5351140000000  0.5845470000000 1.0
C      1  0.5946520000000  0.5307360000000  0.5263110000000 1.0
C      1  0.6059470000000  0.5381410000000  0.4720180000000 1.0
C      1  0.5721130000000  0.5394990000000  0.4164890000000 1.0
C      1  0.5256910000000  0.5426940000000  0.3900590000000 1.0
C      1  0.4544280000000  0.5389120000000  0.4001510000000 1.0
C      1  0.4133390000000  0.5393160000000  0.4318290000000 1.0
C      1  0.4854660000000  0.5674530000000  0.5787970000000 1.0
C      1  0.5316010000000  0.5688590000000  0.5736110000000 1.0
C      1  0.5653030000000  0.5680370000000  0.5444660000000 1.0
C      1  0.5805760000000  0.5712540000000  0.5017880000000 1.0
C      1  0.5701390000000  0.5721340000000  0.4580920000000 1.0
C      1  0.5380800000000  0.5758030000000  0.4255740000000 1.0
C      1  0.4923230000000  0.5722830000000  0.4176810000000 1.0
C      1  0.4510980000000  0.5711460000000  0.4371160000000 1.0
C      1  0.4237200000000  0.5698090000000  0.4736780000000 1.0
C      1  0.4217620000000  0.5705030000000  0.5196560000000 1.0
C      1  0.4450920000000  0.5701630000000  0.5601210000000 1.0
C      1  0.4805080000000  0.5411210000000  0.4575680000000 1.0
C      1  0.4627430000000  0.5277790000000  0.4736440000000 1.0
C      1  0.4550250000000  0.5388000000000  0.4973190000000 1.0
C      1  0.4619900000000  0.5285770000000  0.5216440000000 1.0
C      1  0.4794770000000  0.5439860000000  0.5366050000000 1.0
C      1  0.5006730000000  0.5273390000000  0.5431190000000 1.0
C      1  0.5254710000000  0.5351250000000  0.5335090000000 1.0
C      1  0.5376380000000  0.5226960000000  0.5109780000000 1.0
C      1  0.5453410000000  0.5339000000000  0.4867140000000 1.0
C      1  0.5248450000000  0.5416930000000  0.4708230000000 1.0
C      1  0.5065250000000  0.5344470000000  0.4522340000000 1.0
C      1  0.5712320000000  0.4491690000000  0.4354900000000 1.0
C      1  0.5267730000000  0.4506380000000  0.4090500000000 1.0
C      1  0.4757790000000  0.4486700000000  0.4101680000000 1.0
C      1  0.4328140000000  0.4478270000000  0.4403080000000 1.0
C      1  0.4063260000000  0.4462480000000  0.4864730000000 1.0
C      1  0.4116100000000  0.4484980000000  0.5401740000000 1.0
C      1  0.4430980000000  0.4441840000000  0.5836330000000 1.0
C      1  0.4971840000000  0.4468750000000  0.5959980000000 1.0
C      1  0.5501300000000  0.4460950000000  0.5802120000000 1.0
C      1  0.5838130000000  0.4456960000000  0.5350290000000 1.0
C      1  0.5950590000000  0.4471980000000  0.4828130000000 1.0
C      1  0.4664880000000  0.4345760000000  0.5308850000000 1.0
C      1  0.4802900000000  0.4518150000000  0.5523410000000 1.0
C      1  0.5082840000000  0.4369220000000  0.5458880000000 1.0
C      1  0.5356270000000  0.4390830000000  0.5312120000000 1.0
C      1  0.5390590000000  0.4618670000000  0.5109020000000 1.0
C      1  0.5513930000000  0.4479160000000  0.4871560000000 1.0
C      1  0.5315900000000  0.4390480000000  0.4647860000000 1.0
C      1  0.5059370000000  0.4248080000000  0.4696810000000 1.0
C      1  0.4802640000000  0.4373910000000  0.4657690000000 1.0
C      1  0.4598330000000  0.4263760000000  0.4835290000000 1.0
C      1  0.4540800000000  0.4437400000000  0.5064470000000 1.0
C      1  0.4218120000000  0.5151640000000  0.5069360000000 1.0
C      1  0.4384630000000  0.5166640000000  0.5329270000000 1.0
C      1  0.4726350000000  0.5113210000000  0.5783300000000 1.0
C      1  0.5008460000000  0.5174590000000  0.5704290000000 1.0
C      1  0.5512420000000  0.5149260000000  0.5524390000000 1.0
C      1  0.5609570000000  0.5118440000000  0.5223100000000 1.0
C      1  0.5664570000000  0.5197090000000  0.4708180000000 1.0
C      1  0.5469520000000  0.5212930000000  0.4397340000000 1.0
C      1  0.5164970000000  0.5229690000000  0.4270440000000 1.0
C      1  0.4585530000000  0.5154120000000  0.4309720000000 1.0
C      1  0.4416250000000  0.5174700000000  0.4578290000000 1.0
C      1  0.5623840000000  0.5617990000000  0.4323370000000 1.0
C      1  0.5185880000000  0.5628660000000  0.4086350000000 1.0
C      1  0.4672910000000  0.5568860000000  0.4182200000000 1.0
C      1  0.4276390000000  0.5581220000000  0.4472910000000 1.0
C      1  0.4113320000000  0.5566460000000  0.4964310000000 1.0
C      1  0.4214880000000  0.5598380000000  0.5469890000000 1.0
C      1  0.4598490000000  0.5535420000000  0.5794780000000 1.0
C      1  0.5104620000000  0.5564950000000  0.5886320000000 1.0
C      1  0.5568610000000  0.5553220000000  0.5690500000000 1.0
C      1  0.5862360000000  0.5582430000000  0.5271040000000 1.0
C      1  0.5872030000000  0.5583470000000  0.4767180000000 1.0
C      1  0.5018430000000  0.4771090000000  0.5961540000000 1.0
C      1  0.5546610000000  0.4759650000000  0.5850920000000 1.0
C      1  0.5861530000000  0.4751220000000  0.5304370000000 1.0
C      1  0.5965460000000  0.4775950000000  0.4801660000000 1.0
C      1  0.5699880000000  0.4789970000000  0.4329530000000 1.0
C      1  0.5231680000000  0.4808800000000  0.4056820000000 1.0
C      1  0.4771490000000  0.4784210000000  0.4055080000000 1.0
C      1  0.4276460000000  0.4773870000000  0.4414820000000 1.0
C      1  0.4021320000000  0.4763700000000  0.4828120000000 1.0
C      1  0.4139020000000  0.4782710000000  0.5415280000000 1.0
C      1  0.4449200000000  0.4743550000000  0.5851500000000 1.0
C      1  0.4429750000000  0.4884750000000  0.5405430000000 1.0
C      1  0.4634310000000  0.4828740000000  0.5619090000000 1.0
C      1  0.5112180000000  0.4899210000000  0.5701540000000 1.0
C      1  0.5391780000000  0.4898860000000  0.5639760000000 1.0
C      1  0.5622550000000  0.4835320000000  0.5115670000000 1.0
C      1  0.5682850000000  0.4881380000000  0.4811190000000 1.0
C      1  0.5465510000000  0.4901350000000  0.4485000000000 1.0
C      1  0.5111030000000  0.4931160000000  0.4315660000000 1.0
C      1  0.4802330000000  0.4918080000000  0.4322060000000 1.0
C      1  0.4419670000000  0.4891950000000  0.4660900000000 1.0
C      1  0.4277570000000  0.4886480000000  0.4915840000000 1.0
C      1  0.6134830000000  0.4932600000000  0.4565360000000 1.0
C      1  0.5765460000000  0.4952850000000  0.4009580000000 1.0
C      1  0.5120840000000  0.5006790000000  0.3753570000000 1.0
C      1  0.4517110000000  0.4903850000000  0.3923950000000 1.0
C      1  0.3950260000000  0.4970170000000  0.4345560000000 1.0
C      1  0.3797030000000  0.4905200000000  0.4989300000000 1.0
C      1  0.3992920000000  0.4925890000000  0.5652730000000 1.0
C      1  0.4516040000000  0.4875960000000  0.6132240000000 1.0
C      1  0.5197130000000  0.4872090000000  0.6194730000000 1.0
C      1  0.5825800000000  0.4877250000000  0.5839110000000 1.0
C      1  0.6198460000000  0.4930620000000  0.5266890000000 1.0
C      1  0.5448460000000  0.4395380000000  0.4289160000000 1.0
C      1  0.5016770000000  0.4385910000000  0.4077280000000 1.0
C      1  0.4604660000000  0.4407250000000  0.4337230000000 1.0
C      1  0.4214860000000  0.4370200000000  0.4640760000000 1.0
C      1  0.4170180000000  0.4386240000000  0.5130280000000 1.0
C      1  0.4251700000000  0.4376210000000  0.5625550000000 1.0
C      1  0.4732070000000  0.4384960000000  0.5786000000000 1.0
C      1  0.5233460000000  0.4382460000000  0.5874790000000 1.0
C      1  0.5583500000000  0.4391910000000  0.5511630000000 1.0
C      1  0.5823950000000  0.4360800000000  0.5067720000000 1.0
C      1  0.5837520000000  0.4391830000000  0.4584810000000 1.0
END
