TITL C-3578208-4450-304 -2.35188764622922e-06 125000 -342.584582102389 0 0 56 (C1) n - 1
REM
REM in /home/bkarasulu/work/CARBON/AIRSS/Generating-Clusters/EDIP-Nigel-Params/with-SteepDescent/Higher-Symm/SD-CG/HFTN-CG
REM
REM
REM
REM
REM
REM ./C.cell (12c818d87b63d06a65506943cc24bca4)
REM
REM compiler GCC version 9.2.1 20190827 (Red Hat 9.2.1-1)
REM options -cpp -mtune=generic -march=x86-64 -g -O0 -fpre-include=/usr/include/finclude/math-vector-fortran.h
REM seed -414924435 -642083329 1177388170 1948673322 1266997352 862706968 -284773113 -102347968 474082635 -1142744703 -2947962 -118437681 -1988666011 -1239710517 1184706995 -1349236067 1897996744 -1062883424 1596873944 1390953063 -974139607 -2131361381 1451315589 -259960636 155761905 -1201555153 -1954181126 769908698 1277285551 -536622691 -1105622241 971075807 1008319517
REM
CELL 1.54180   50.00000   50.00000   50.00000   90.00000   90.00000   90.00000
LATT -1
SFAC C  
C      1  0.4871910000000  0.5236600000000  0.5667130000000 1.0
C      1  0.4883670000000  0.5764500000000  0.4951220000000 1.0
C      1  0.4928890000000  0.5098210000000  0.4238600000000 1.0
C      1  0.4926650000000  0.4302970000000  0.4699310000000 1.0
C      1  0.4909240000000  0.4451210000000  0.5463810000000 1.0
C      1  0.5070900000000  0.4908050000000  0.5258700000000 1.0
C      1  0.5116620000000  0.5183310000000  0.5088720000000 1.0
C      1  0.4917190000000  0.5104810000000  0.4859540000000 1.0
C      1  0.4995410000000  0.4833350000000  0.4768770000000 1.0
C      1  0.5033530000000  0.4681550000000  0.5032690000000 1.0
C      1  0.4368770000000  0.5225690000000  0.5178250000000 1.0
C      1  0.4372120000000  0.5268960000000  0.4872900000000 1.0
C      1  0.4425990000000  0.4982490000000  0.4777170000000 1.0
C      1  0.4377020000000  0.4760590000000  0.4982670000000 1.0
C      1  0.4343400000000  0.4899470000000  0.5262950000000 1.0
C      1  0.5621440000000  0.4612510000000  0.5210370000000 1.0
C      1  0.5591980000000  0.5061250000000  0.5442230000000 1.0
C      1  0.5520820000000  0.5368790000000  0.5063540000000 1.0
C      1  0.5553320000000  0.5196570000000  0.4606750000000 1.0
C      1  0.5587890000000  0.4693420000000  0.4699630000000 1.0
C      1  0.5327380000000  0.4588680000000  0.4622090000000 1.0
C      1  0.5359330000000  0.4500650000000  0.5257740000000 1.0
C      1  0.5328240000000  0.5056520000000  0.5566610000000 1.0
C      1  0.5285420000000  0.5536590000000  0.5098740000000 1.0
C      1  0.5270260000000  0.5207270000000  0.4552900000000 1.0
C      1  0.4623750000000  0.5708400000000  0.4876830000000 1.0
C      1  0.4715360000000  0.5159730000000  0.4408050000000 1.0
C      1  0.4692820000000  0.4461870000000  0.4688180000000 1.0
C      1  0.4645200000000  0.4551760000000  0.5508260000000 1.0
C      1  0.4642890000000  0.5361570000000  0.5579220000000 1.0
C      1  0.5661340000000  0.4940190000000  0.4593060000000 1.0
C      1  0.5698800000000  0.4613100000000  0.4942610000000 1.0
C      1  0.5706500000000  0.4814760000000  0.5381280000000 1.0
C      1  0.5654950000000  0.5280690000000  0.5287590000000 1.0
C      1  0.5639880000000  0.5354050000000  0.4815520000000 1.0
C      1  0.5182660000000  0.4552820000000  0.5487720000000 1.0
C      1  0.5117690000000  0.5262970000000  0.5522630000000 1.0
C      1  0.5125680000000  0.5627520000000  0.4854610000000 1.0
C      1  0.5172560000000  0.5015670000000  0.4350350000000 1.0
C      1  0.5192820000000  0.4368340000000  0.4768090000000 1.0
C      1  0.4787280000000  0.5006820000000  0.5372580000000 1.0
C      1  0.4844210000000  0.5439760000000  0.5139760000000 1.0
C      1  0.4812930000000  0.5308900000000  0.4646840000000 1.0
C      1  0.4789550000000  0.4715720000000  0.4565430000000 1.0
C      1  0.4764780000000  0.4626820000000  0.5148950000000 1.0
C      1  0.5085520000000  0.5438880000000  0.4617240000000 1.0
C      1  0.5147420000000  0.4726440000000  0.4423540000000 1.0
C      1  0.5236080000000  0.4348710000000  0.5050260000000 1.0
C      1  0.5224340000000  0.4797870000000  0.5625190000000 1.0
C      1  0.5135010000000  0.5510030000000  0.5363790000000 1.0
C      1  0.4591390000000  0.5394730000000  0.5308200000000 1.0
C      1  0.4586450000000  0.5451820000000  0.4778140000000 1.0
C      1  0.4579500000000  0.4925170000000  0.4521930000000 1.0
C      1  0.4564140000000  0.4519290000000  0.4956760000000 1.0
C      1  0.4558860000000  0.4828910000000  0.5476160000000 1.0
C      1  0.4697180000000  0.5049100000000  0.5061530000000 1.0
END
