TITL C-3577082-504-39 -6.37023492878658e-07 125000 -425.346640852988 0 0 68 (C1) n - 1
REM
REM in /home/bkarasulu/work/CARBON/AIRSS/Generating-Clusters/EDIP-Nigel-Params/with-SteepDescent/Higher-Symm/SD-CG/HFTN-CG
REM
REM
REM
REM
REM
REM ./C.cell (12c818d87b63d06a65506943cc24bca4)
REM
REM compiler GCC version 9.2.1 20190827 (Red Hat 9.2.1-1)
REM options -cpp -mtune=generic -march=x86-64 -g -O0 -fpre-include=/usr/include/finclude/math-vector-fortran.h
REM seed 1935598020 1970506644 101953144 1247163390 -385680422 -446624659 -1226942812 1305952838 890495813 -1077385575 580973657 -346057675 -1022734097 982821121 -2086183001 1228191387 -582046173 -2055277151 -1302999482 -958251908 -484371240 680633333 -59242660 1924591127 1830783646 1847100131 -1491409674 1126168629 -1811005577 -331206456 -161935700 307678853 922863775
REM
CELL 1.54180   50.00000   50.00000   50.00000   90.00000   90.00000   90.00000
LATT -1
SFAC C  
C      1  0.5281110000000  0.4436070000000  0.4776940000000 1.0
C      1  0.4703400000000  0.4784820000000  0.5590650000000 1.0
C      1  0.5278110000000  0.5565690000000  0.5228910000000 1.0
C      1  0.4698310000000  0.5209160000000  0.4358370000000 1.0
C      1  0.5038770000000  0.4482750000000  0.5494590000000 1.0
C      1  0.4932620000000  0.5487540000000  0.5536240000000 1.0
C      1  0.5038690000000  0.5505520000000  0.4507000000000 1.0
C      1  0.4938710000000  0.4515160000000  0.4465760000000 1.0
C      1  0.5159970000000  0.5156470000000  0.4223620000000 1.0
C      1  0.4845610000000  0.4232190000000  0.4831270000000 1.0
C      1  0.5146160000000  0.4839860000000  0.5773760000000 1.0
C      1  0.4843950000000  0.5770670000000  0.5170040000000 1.0
C      1  0.5462160000000  0.5548650000000  0.4778940000000 1.0
C      1  0.4524720000000  0.4771290000000  0.4448870000000 1.0
C      1  0.5464930000000  0.4451400000000  0.5227110000000 1.0
C      1  0.4518020000000  0.5228940000000  0.5546540000000 1.0
C      1  0.5040290000000  0.4701310000000  0.5171410000000 1.0
C      1  0.4952580000000  0.5173780000000  0.5304590000000 1.0
C      1  0.5041400000000  0.5294260000000  0.4835240000000 1.0
C      1  0.4956610000000  0.4828570000000  0.4697420000000 1.0
C      1  0.4580600000000  0.5501400000000  0.4736000000000 1.0
C      1  0.5447860000000  0.4742560000000  0.4502960000000 1.0
C      1  0.4579700000000  0.4506490000000  0.5265740000000 1.0
C      1  0.5439260000000  0.5257140000000  0.5504130000000 1.0
C      1  0.5394850000000  0.5219370000000  0.4415780000000 1.0
C      1  0.4601850000000  0.4415930000000  0.4783100000000 1.0
C      1  0.5388270000000  0.4780450000000  0.5589080000000 1.0
C      1  0.4599930000000  0.5587020000000  0.5216870000000 1.0
C      1  0.4344490000000  0.4860320000000  0.4646890000000 1.0
C      1  0.5652120000000  0.4646550000000  0.5144490000000 1.0
C      1  0.4337400000000  0.5144030000000  0.5347190000000 1.0
C      1  0.5651150000000  0.5355830000000  0.4863110000000 1.0
C      1  0.4989230000000  0.4247030000000  0.5096470000000 1.0
C      1  0.5019080000000  0.5113270000000  0.5757320000000 1.0
C      1  0.4990510000000  0.5753540000000  0.4906010000000 1.0
C      1  0.5034150000000  0.4882790000000  0.4238560000000 1.0
C      1  0.4574560000000  0.4641360000000  0.4992550000000 1.0
C      1  0.5423840000000  0.4990380000000  0.5363180000000 1.0
C      1  0.4574830000000  0.5362850000000  0.5006590000000 1.0
C      1  0.5428620000000  0.5009900000000  0.4642650000000 1.0
C      1  0.5172010000000  0.4977920000000  0.5197490000000 1.0
C      1  0.4822430000000  0.5193380000000  0.5027000000000 1.0
C      1  0.5175680000000  0.5021030000000  0.4807530000000 1.0
C      1  0.4823990000000  0.4807020000000  0.4974730000000 1.0
C      1  0.4514570000000  0.5348880000000  0.4514090000000 1.0
C      1  0.5520060000000  0.4520090000000  0.4654160000000 1.0
C      1  0.4483210000000  0.4646240000000  0.5486960000000 1.0
C      1  0.5514390000000  0.5480430000000  0.5355670000000 1.0
C      1  0.4777360000000  0.5070110000000  0.5556020000000 1.0
C      1  0.5210240000000  0.5545010000000  0.4942650000000 1.0
C      1  0.4783320000000  0.4931750000000  0.4431870000000 1.0
C      1  0.5212590000000  0.4453280000000  0.5062680000000 1.0
C      1  0.5227050000000  0.5309280000000  0.5696240000000 1.0
C      1  0.4831880000000  0.5656500000000  0.4678410000000 1.0
C      1  0.5239110000000  0.4687670000000  0.4308540000000 1.0
C      1  0.4826640000000  0.4341470000000  0.5322620000000 1.0
C      1  0.5348870000000  0.4499230000000  0.5494180000000 1.0
C      1  0.4632580000000  0.5494750000000  0.5499430000000 1.0
C      1  0.5348100000000  0.5499510000000  0.4511060000000 1.0
C      1  0.4638930000000  0.4507120000000  0.4500540000000 1.0
C      1  0.5054740000000  0.5690340000000  0.5369390000000 1.0
C      1  0.4939600000000  0.5350420000000  0.4280120000000 1.0
C      1  0.5058660000000  0.4312540000000  0.4634230000000 1.0
C      1  0.4928900000000  0.4646400000000  0.5706180000000 1.0
C      1  0.5640030000000  0.5074000000000  0.4865560000000 1.0
C      1  0.4359960000000  0.4863400000000  0.4927980000000 1.0
C      1  0.5638530000000  0.4928250000000  0.5142290000000 1.0
C      1  0.4358190000000  0.5141710000000  0.5066460000000 1.0
END
