TITL C-3578196-9646-555 -4.43420221480086e-06 125000 -729.61751106926 0 0 119 (C1) n - 1
REM
REM in /home/bkarasulu/work/CARBON/AIRSS/Generating-Clusters/EDIP-Nigel-Params/with-SteepDescent/Higher-Symm/SD-CG/HFTN-CG
REM
REM
REM
REM
REM
REM ./C.cell (12c818d87b63d06a65506943cc24bca4)
REM
REM compiler GCC version 9.2.1 20190827 (Red Hat 9.2.1-1)
REM options -cpp -mtune=generic -march=x86-64 -g -O0 -fpre-include=/usr/include/finclude/math-vector-fortran.h
REM seed -1665626331 -2041150525 2063865074 -471980913 496826811 -1572386474 -1463325992 -838699157 -1841351036 -801955594 -268253013 -130513294 -617744638 -402039852 -1091881725 167938726 -2127962856 -731506197 459313500 -281198631 873791142 -834834584 1461962519 -488579606 -404787949 -1005248851 2092589621 1168178505 1447779257 -1276169295 287565450 -1262420658 564853129
REM
CELL 1.54180   50.00000   50.00000   50.00000   90.00000   90.00000   90.00000
LATT -1
SFAC C  
C      1  0.4963750000000  0.4390420000000  0.4731950000000 1.0
C      1  0.5113170000000  0.5581810000000  0.5250840000000 1.0
C      1  0.5005310000000  0.5578140000000  0.4747310000000 1.0
C      1  0.5118960000000  0.4429250000000  0.5215230000000 1.0
C      1  0.5356170000000  0.4806550000000  0.4654650000000 1.0
C      1  0.5425190000000  0.5166110000000  0.5419940000000 1.0
C      1  0.5359920000000  0.5122330000000  0.4610460000000 1.0
C      1  0.5418310000000  0.4846140000000  0.5390660000000 1.0
C      1  0.5591610000000  0.4870400000000  0.5139540000000 1.0
C      1  0.5553970000000  0.5239950000000  0.4816750000000 1.0
C      1  0.5567690000000  0.5309370000000  0.5105080000000 1.0
C      1  0.5568310000000  0.4730390000000  0.4876140000000 1.0
C      1  0.4849730000000  0.5182430000000  0.4868510000000 1.0
C      1  0.5100770000000  0.4892100000000  0.5085960000000 1.0
C      1  0.4913860000000  0.4799890000000  0.4891300000000 1.0
C      1  0.5036560000000  0.5162370000000  0.5115100000000 1.0
C      1  0.4450670000000  0.4771150000000  0.4178880000000 1.0
C      1  0.4453200000000  0.5231280000000  0.5728350000000 1.0
C      1  0.4459250000000  0.5261950000000  0.4187740000000 1.0
C      1  0.4447820000000  0.4780770000000  0.5677520000000 1.0
C      1  0.5185290000000  0.5151870000000  0.4103060000000 1.0
C      1  0.5158970000000  0.4847580000000  0.5909480000000 1.0
C      1  0.5182470000000  0.4852180000000  0.4102570000000 1.0
C      1  0.5168210000000  0.5144570000000  0.5935460000000 1.0
C      1  0.5629220000000  0.5131230000000  0.5745060000000 1.0
C      1  0.5594800000000  0.4865700000000  0.4360870000000 1.0
C      1  0.5651760000000  0.4845730000000  0.5758910000000 1.0
C      1  0.5617950000000  0.5137180000000  0.4316680000000 1.0
C      1  0.4519040000000  0.4686990000000  0.5193170000000 1.0
C      1  0.4544470000000  0.5298780000000  0.4719720000000 1.0
C      1  0.4491670000000  0.5133440000000  0.5131440000000 1.0
C      1  0.4463510000000  0.4702930000000  0.4695960000000 1.0
C      1  0.4918730000000  0.4715690000000  0.4141770000000 1.0
C      1  0.4911710000000  0.5268680000000  0.5841440000000 1.0
C      1  0.4924990000000  0.5287000000000  0.4156010000000 1.0
C      1  0.4903280000000  0.4732470000000  0.5783290000000 1.0
C      1  0.4871010000000  0.4832170000000  0.4422030000000 1.0
C      1  0.4907070000000  0.5174800000000  0.5543400000000 1.0
C      1  0.4869000000000  0.5143150000000  0.4419110000000 1.0
C      1  0.4891050000000  0.4864540000000  0.5509760000000 1.0
C      1  0.4205830000000  0.4662980000000  0.5192270000000 1.0
C      1  0.4095310000000  0.5347030000000  0.4971760000000 1.0
C      1  0.4144890000000  0.5374520000000  0.5267790000000 1.0
C      1  0.4079050000000  0.4684830000000  0.4920670000000 1.0
C      1  0.5406550000000  0.5289520000000  0.5832800000000 1.0
C      1  0.5404530000000  0.4709810000000  0.4227960000000 1.0
C      1  0.5398100000000  0.4712640000000  0.5810040000000 1.0
C      1  0.5417520000000  0.5295880000000  0.4211570000000 1.0
C      1  0.4313850000000  0.4265840000000  0.4846160000000 1.0
C      1  0.4411980000000  0.5783480000000  0.5115460000000 1.0
C      1  0.4346370000000  0.5742680000000  0.4836590000000 1.0
C      1  0.4374260000000  0.4253630000000  0.5140500000000 1.0
C      1  0.5132780000000  0.5288500000000  0.5361800000000 1.0
C      1  0.5045480000000  0.4694770000000  0.4647330000000 1.0
C      1  0.5130140000000  0.4735790000000  0.5321930000000 1.0
C      1  0.5051990000000  0.5262480000000  0.4640960000000 1.0
C      1  0.4689310000000  0.4290640000000  0.4473690000000 1.0
C      1  0.4665540000000  0.5597540000000  0.5542760000000 1.0
C      1  0.4715490000000  0.5681820000000  0.4464100000000 1.0
C      1  0.4703170000000  0.4363470000000  0.5496140000000 1.0
C      1  0.4634420000000  0.5467820000000  0.5118530000000 1.0
C      1  0.4524260000000  0.4404510000000  0.4692080000000 1.0
C      1  0.4631100000000  0.4403460000000  0.5214170000000 1.0
C      1  0.4567960000000  0.5597770000000  0.4699820000000 1.0
C      1  0.4078820000000  0.4424260000000  0.4812040000000 1.0
C      1  0.4339110000000  0.5604950000000  0.5337750000000 1.0
C      1  0.4109130000000  0.5590670000000  0.4837320000000 1.0
C      1  0.4160900000000  0.4385290000000  0.5284820000000 1.0
C      1  0.4306840000000  0.5155520000000  0.4876010000000 1.0
C      1  0.4099210000000  0.4876830000000  0.5356280000000 1.0
C      1  0.4216200000000  0.4879670000000  0.4751680000000 1.0
C      1  0.4263890000000  0.5109870000000  0.5350010000000 1.0
C      1  0.5757620000000  0.4701960000000  0.5512420000000 1.0
C      1  0.5866670000000  0.5411300000000  0.4556580000000 1.0
C      1  0.5813010000000  0.5411350000000  0.5458380000000 1.0
C      1  0.5839360000000  0.4565390000000  0.4568030000000 1.0
C      1  0.5159200000000  0.4285560000000  0.4345390000000 1.0
C      1  0.5130550000000  0.5694960000000  0.5677070000000 1.0
C      1  0.5179230000000  0.5704310000000  0.4359950000000 1.0
C      1  0.5141810000000  0.4312910000000  0.5639500000000 1.0
C      1  0.5297430000000  0.5807680000000  0.4823640000000 1.0
C      1  0.5338140000000  0.4111650000000  0.5231820000000 1.0
C      1  0.5257780000000  0.4159340000000  0.4798330000000 1.0
C      1  0.5302780000000  0.5921170000000  0.5265350000000 1.0
C      1  0.4638870000000  0.4840920000000  0.5883300000000 1.0
C      1  0.4671640000000  0.5167440000000  0.4014110000000 1.0
C      1  0.4644720000000  0.5135720000000  0.5918440000000 1.0
C      1  0.4667560000000  0.4860860000000  0.4011710000000 1.0
C      1  0.5371740000000  0.4485210000000  0.5638010000000 1.0
C      1  0.5405030000000  0.5526650000000  0.4383320000000 1.0
C      1  0.5368500000000  0.5525180000000  0.5658880000000 1.0
C      1  0.5380900000000  0.4467360000000  0.4380770000000 1.0
C      1  0.5554560000000  0.5683820000000  0.4830350000000 1.0
C      1  0.5533960000000  0.4318030000000  0.5203130000000 1.0
C      1  0.5507000000000  0.4296090000000  0.4829860000000 1.0
C      1  0.5505170000000  0.5725140000000  0.5204960000000 1.0
C      1  0.5580800000000  0.5578610000000  0.5457080000000 1.0
C      1  0.5599550000000  0.4405710000000  0.4573460000000 1.0
C      1  0.5596860000000  0.4449520000000  0.5460850000000 1.0
C      1  0.5638610000000  0.5591090000000  0.4561360000000 1.0
C      1  0.5169910000000  0.5887670000000  0.4580490000000 1.0
C      1  0.5138640000000  0.4113290000000  0.5434410000000 1.0
C      1  0.5169430000000  0.4085590000000  0.4542930000000 1.0
C      1  0.5111110000000  0.5897360000000  0.5474040000000 1.0
C      1  0.5820740000000  0.5172140000000  0.4707640000000 1.0
C      1  0.5855140000000  0.4953040000000  0.5234690000000 1.0
C      1  0.5816510000000  0.4794390000000  0.4731970000000 1.0
C      1  0.5818100000000  0.5242110000000  0.5233570000000 1.0
C      1  0.4578530000000  0.5205060000000  0.4444490000000 1.0
C      1  0.4599240000000  0.4833780000000  0.5438860000000 1.0
C      1  0.4581370000000  0.4763830000000  0.4434690000000 1.0
C      1  0.4623650000000  0.5310100000000  0.5498140000000 1.0
C      1  0.4897010000000  0.4399710000000  0.4289880000000 1.0
C      1  0.4875980000000  0.5570440000000  0.5756560000000 1.0
C      1  0.4920140000000  0.5589910000000  0.4279590000000 1.0
C      1  0.4885610000000  0.4434550000000  0.5703000000000 1.0
C      1  0.4907960000000  0.5582090000000  0.5038710000000 1.0
C      1  0.4884890000000  0.4384780000000  0.5037150000000 1.0
C      1  0.4616140000000  0.4819020000000  0.4934830000000 1.0
END
