TITL C-3577079-311-790 -2.41395594722279e-06 125000 -913.697008566111 0 0 143 (C1) n - 1
REM
REM in /home/bkarasulu/work/CARBON/AIRSS/Generating-Clusters/EDIP-Nigel-Params/with-SteepDescent/Higher-Symm/SD-CG/HFTN-CG
REM
REM
REM
REM
REM
REM ./C.cell (12c818d87b63d06a65506943cc24bca4)
REM
REM compiler GCC version 9.2.1 20190827 (Red Hat 9.2.1-1)
REM options -cpp -mtune=generic -march=x86-64 -g -O0 -fpre-include=/usr/include/finclude/math-vector-fortran.h
REM seed 1008662314 846517483 -1167094802 2126761638 -1156945478 779643320 -652918347 81745856 379575297 -173588657 285525733 -1252521471 69053238 2102949396 -2109752388 -730008203 1614753523 1457657975 1654378486 2134626719 -94095164 333876002 1831486881 892188058 -1510570244 -1003396758 1375778268 15748442 1081266351 2131729795 -1058997095 -1906958838 887306610
REM
CELL 1.54180   50.00000   50.00000   50.00000   90.00000   90.00000   90.00000
LATT -1
SFAC C  
C      1  0.5835480000000  0.4440050000000  0.4994160000000 1.0
C      1  0.4148130000000  0.4425580000000  0.5009920000000 1.0
C      1  0.5836270000000  0.5578140000000  0.4975780000000 1.0
C      1  0.4156210000000  0.5559640000000  0.5028290000000 1.0
C      1  0.4002290000000  0.4679150000000  0.4927790000000 1.0
C      1  0.5990460000000  0.4688600000000  0.5078250000000 1.0
C      1  0.4007130000000  0.5314050000000  0.4941780000000 1.0
C      1  0.5982550000000  0.5331980000000  0.5068900000000 1.0
C      1  0.4891120000000  0.4850700000000  0.4516590000000 1.0
C      1  0.5083250000000  0.4818360000000  0.5472470000000 1.0
C      1  0.4911510000000  0.5129490000000  0.4594750000000 1.0
C      1  0.5031920000000  0.5120200000000  0.5473740000000 1.0
C      1  0.5522540000000  0.4843230000000  0.5170860000000 1.0
C      1  0.4473940000000  0.4830480000000  0.4844680000000 1.0
C      1  0.5501100000000  0.5166640000000  0.5145300000000 1.0
C      1  0.4482150000000  0.5160800000000  0.4858620000000 1.0
C      1  0.5415920000000  0.4431600000000  0.5834210000000 1.0
C      1  0.4610260000000  0.4463240000000  0.4163140000000 1.0
C      1  0.5363410000000  0.5557420000000  0.5809430000000 1.0
C      1  0.4677800000000  0.5572020000000  0.4229190000000 1.0
C      1  0.5687260000000  0.4552480000000  0.4754700000000 1.0
C      1  0.4284170000000  0.4522580000000  0.5263440000000 1.0
C      1  0.5712740000000  0.5473400000000  0.4718180000000 1.0
C      1  0.4311650000000  0.5456900000000  0.5265460000000 1.0
C      1  0.5054680000000  0.5522720000000  0.5813030000000 1.0
C      1  0.4954190000000  0.5550940000000  0.4143500000000 1.0
C      1  0.5080500000000  0.4438140000000  0.5808180000000 1.0
C      1  0.4928270000000  0.4482300000000  0.4190250000000 1.0
C      1  0.4747270000000  0.4211350000000  0.5194110000000 1.0
C      1  0.5225800000000  0.4240940000000  0.4837860000000 1.0
C      1  0.4761770000000  0.5787600000000  0.5160660000000 1.0
C      1  0.5245730000000  0.5788500000000  0.4780440000000 1.0
C      1  0.4494770000000  0.4109600000000  0.5298100000000 1.0
C      1  0.5472890000000  0.4144210000000  0.4719500000000 1.0
C      1  0.4512540000000  0.5872810000000  0.5282140000000 1.0
C      1  0.5497370000000  0.5881550000000  0.4669890000000 1.0
C      1  0.5253100000000  0.4911750000000  0.4767670000000 1.0
C      1  0.4607470000000  0.4889020000000  0.5315930000000 1.0
C      1  0.5351310000000  0.5130250000000  0.4600190000000 1.0
C      1  0.4737260000000  0.5129430000000  0.5324220000000 1.0
C      1  0.4625170000000  0.4740560000000  0.4570650000000 1.0
C      1  0.5377150000000  0.4736410000000  0.5435360000000 1.0
C      1  0.4636480000000  0.5264010000000  0.4608690000000 1.0
C      1  0.5327820000000  0.5255060000000  0.5409620000000 1.0
C      1  0.5459850000000  0.5756770000000  0.5345320000000 1.0
C      1  0.4485320000000  0.5773380000000  0.4639920000000 1.0
C      1  0.5474350000000  0.4227710000000  0.5365100000000 1.0
C      1  0.4514950000000  0.4237200000000  0.4633500000000 1.0
C      1  0.5485960000000  0.4714300000000  0.5908650000000 1.0
C      1  0.4536950000000  0.4750210000000  0.4092810000000 1.0
C      1  0.5460150000000  0.5286470000000  0.5893350000000 1.0
C      1  0.4574040000000  0.5312270000000  0.4143960000000 1.0
C      1  0.5245540000000  0.5498010000000  0.4884480000000 1.0
C      1  0.4771090000000  0.5498590000000  0.5047270000000 1.0
C      1  0.5237100000000  0.4518980000000  0.4986050000000 1.0
C      1  0.4759380000000  0.4512670000000  0.5103920000000 1.0
C      1  0.5766180000000  0.5281040000000  0.4141210000000 1.0
C      1  0.4260350000000  0.5266880000000  0.5865780000000 1.0
C      1  0.5722880000000  0.4729090000000  0.4166950000000 1.0
C      1  0.4263380000000  0.4706970000000  0.5848310000000 1.0
C      1  0.6016540000000  0.5159990000000  0.5682620000000 1.0
C      1  0.3977590000000  0.5147640000000  0.4313670000000 1.0
C      1  0.6046570000000  0.4892770000000  0.5699720000000 1.0
C      1  0.3956210000000  0.4879490000000  0.4300640000000 1.0
C      1  0.5827660000000  0.4850850000000  0.5265900000000 1.0
C      1  0.4171140000000  0.4841810000000  0.4740400000000 1.0
C      1  0.5807130000000  0.5177360000000  0.5253590000000 1.0
C      1  0.4177740000000  0.5166530000000  0.4750400000000 1.0
C      1  0.4123330000000  0.4844140000000  0.5651390000000 1.0
C      1  0.5850150000000  0.4865890000000  0.4371060000000 1.0
C      1  0.4161790000000  0.5129160000000  0.5643990000000 1.0
C      1  0.5896630000000  0.5148560000000  0.4348670000000 1.0
C      1  0.4745850000000  0.4831700000000  0.5864520000000 1.0
C      1  0.5259430000000  0.4872720000000  0.4164800000000 1.0
C      1  0.4735750000000  0.5131660000000  0.5885720000000 1.0
C      1  0.5310810000000  0.5136520000000  0.4051420000000 1.0
C      1  0.5440560000000  0.4712060000000  0.4902230000000 1.0
C      1  0.4524730000000  0.4687730000000  0.5136210000000 1.0
C      1  0.5462780000000  0.5309360000000  0.4822310000000 1.0
C      1  0.4568890000000  0.5306950000000  0.5136160000000 1.0
C      1  0.4779580000000  0.5919390000000  0.4668480000000 1.0
C      1  0.5211750000000  0.5905720000000  0.5269890000000 1.0
C      1  0.4779310000000  0.4107150000000  0.4703840000000 1.0
C      1  0.5210830000000  0.4091070000000  0.5303230000000 1.0
C      1  0.5410280000000  0.5555220000000  0.4329580000000 1.0
C      1  0.4605350000000  0.5560190000000  0.5641020000000 1.0
C      1  0.5378130000000  0.4457680000000  0.4379310000000 1.0
C      1  0.4601590000000  0.4417280000000  0.5647830000000 1.0
C      1  0.4414200000000  0.5668890000000  0.5445670000000 1.0
C      1  0.5603600000000  0.5672010000000  0.4521100000000 1.0
C      1  0.4400670000000  0.4318110000000  0.5453570000000 1.0
C      1  0.5574140000000  0.4350680000000  0.4566830000000 1.0
C      1  0.5297910000000  0.5548310000000  0.5506970000000 1.0
C      1  0.4675530000000  0.5569070000000  0.4528030000000 1.0
C      1  0.5353650000000  0.4442800000000  0.5534390000000 1.0
C      1  0.4657760000000  0.4455370000000  0.4468930000000 1.0
C      1  0.6045250000000  0.5161540000000  0.4832550000000 1.0
C      1  0.3979680000000  0.5140000000000  0.5179200000000 1.0
C      1  0.6027350000000  0.4861750000000  0.4838060000000 1.0
C      1  0.3955000000000  0.4842810000000  0.5174020000000 1.0
C      1  0.5804970000000  0.5267140000000  0.5538540000000 1.0
C      1  0.4178590000000  0.5265940000000  0.4463720000000 1.0
C      1  0.5839140000000  0.4772820000000  0.5556550000000 1.0
C      1  0.4166720000000  0.4768010000000  0.4445970000000 1.0
C      1  0.5217770000000  0.5132510000000  0.5968390000000 1.0
C      1  0.4835970000000  0.5182740000000  0.4093780000000 1.0
C      1  0.5226920000000  0.4841880000000  0.5966750000000 1.0
C      1  0.4797330000000  0.4894620000000  0.4033160000000 1.0
C      1  0.5495230000000  0.5349750000000  0.4132870000000 1.0
C      1  0.4527550000000  0.5322120000000  0.5803820000000 1.0
C      1  0.5454240000000  0.4661620000000  0.4185610000000 1.0
C      1  0.4531920000000  0.4635260000000  0.5829580000000 1.0
C      1  0.4118670000000  0.5269040000000  0.5397480000000 1.0
C      1  0.5927920000000  0.5296310000000  0.4599760000000 1.0
C      1  0.4081210000000  0.4702690000000  0.5397220000000 1.0
C      1  0.5882210000000  0.4736000000000  0.4624090000000 1.0
C      1  0.5019210000000  0.4733990000000  0.5779480000000 1.0
C      1  0.4982720000000  0.4779860000000  0.4230850000000 1.0
C      1  0.4999750000000  0.5223640000000  0.5788160000000 1.0
C      1  0.5109720000000  0.5236000000000  0.4367250000000 1.0
C      1  0.4840050000000  0.4019470000000  0.4982800000000 1.0
C      1  0.5139220000000  0.4023480000000  0.5022760000000 1.0
C      1  0.4852510000000  0.5984430000000  0.4954500000000 1.0
C      1  0.5149590000000  0.5983400000000  0.4988090000000 1.0
C      1  0.5562360000000  0.4850610000000  0.5648930000000 1.0
C      1  0.4441540000000  0.4861130000000  0.4358620000000 1.0
C      1  0.5538590000000  0.5163070000000  0.5632380000000 1.0
C      1  0.4453390000000  0.5174480000000  0.4378890000000 1.0
C      1  0.5043770000000  0.5794850000000  0.4565340000000 1.0
C      1  0.4962060000000  0.5791570000000  0.5375420000000 1.0
C      1  0.5016360000000  0.4260930000000  0.4627590000000 1.0
C      1  0.4951980000000  0.4189370000000  0.5404220000000 1.0
C      1  0.5113680000000  0.4333840000000  0.4367740000000 1.0
C      1  0.4870020000000  0.4294970000000  0.5657070000000 1.0
C      1  0.5141940000000  0.5668420000000  0.4322730000000 1.0
C      1  0.4882970000000  0.5651960000000  0.5617350000000 1.0
C      1  0.5667190000000  0.5701840000000  0.5162770000000 1.0
C      1  0.4300860000000  0.5700020000000  0.4835120000000 1.0
C      1  0.5680870000000  0.4295730000000  0.5182260000000 1.0
C      1  0.4312130000000  0.4298180000000  0.4819870000000 1.0
C      1  0.5011520000000  0.5345340000000  0.4963970000000 1.0
C      1  0.5011260000000  0.4677690000000  0.5117060000000 1.0
C      1  0.5034120000000  0.5027230000000  0.4951170000000 1.0
END
