TITL C-3578206-1180-574 -7.20107345916268e-07 125000 -235.525517646436 0 0 39 (C1) n - 1
REM
REM in /home/bkarasulu/work/CARBON/AIRSS/Generating-Clusters/EDIP-Nigel-Params/with-SteepDescent/Higher-Symm/SD-CG/HFTN-CG
REM
REM
REM
REM
REM
REM ./C.cell (12c818d87b63d06a65506943cc24bca4)
REM
REM compiler GCC version 9.2.1 20190827 (Red Hat 9.2.1-1)
REM options -cpp -mtune=generic -march=x86-64 -g -O0 -fpre-include=/usr/include/finclude/math-vector-fortran.h
REM seed 1848752683 198653920 -1931010776 2124230778 -852555221 1256876269 -1952780252 1621930126 79819765 -168298072 -1488895772 1906538715 425208676 1966516040 -91302240 720973923 1003326461 -749858251 -631492035 1941602867 -1636295613 -1660647575 330086745 -1737067867 -806322112 117926802 295575133 1699921387 -826327577 -1465709839 1426272537 -180374288 853029388
REM
CELL 1.54180   50.00000   50.00000   50.00000   90.00000   90.00000   90.00000
LATT -1
SFAC C  
C      1  0.4817260000000  0.4557780000000  0.5126390000000 1.0
C      1  0.5172300000000  0.5433260000000  0.4804810000000 1.0
C      1  0.4694110000000  0.5494270000000  0.4941150000000 1.0
C      1  0.5321960000000  0.4523320000000  0.5107260000000 1.0
C      1  0.4338440000000  0.5073850000000  0.5390440000000 1.0
C      1  0.5651390000000  0.4999210000000  0.4611340000000 1.0
C      1  0.4858020000000  0.4497260000000  0.4630080000000 1.0
C      1  0.5178750000000  0.5411510000000  0.5315660000000 1.0
C      1  0.4537520000000  0.4844610000000  0.5473030000000 1.0
C      1  0.5473280000000  0.5202100000000  0.4479910000000 1.0
C      1  0.5076440000000  0.4861330000000  0.4327620000000 1.0
C      1  0.4945780000000  0.5079890000000  0.5648220000000 1.0
C      1  0.4670990000000  0.4922050000000  0.4844270000000 1.0
C      1  0.5133310000000  0.5035030000000  0.5080190000000 1.0
C      1  0.5360340000000  0.4911810000000  0.4264990000000 1.0
C      1  0.4649520000000  0.5029030000000  0.5701690000000 1.0
C      1  0.5068450000000  0.4435780000000  0.5152340000000 1.0
C      1  0.4921010000000  0.5547580000000  0.4814870000000 1.0
C      1  0.4493260000000  0.5267610000000  0.5588130000000 1.0
C      1  0.5536710000000  0.4766330000000  0.4454320000000 1.0
C      1  0.4693150000000  0.5414410000000  0.5417820000000 1.0
C      1  0.5355800000000  0.4613430000000  0.4640230000000 1.0
C      1  0.5204280000000  0.5235990000000  0.4588920000000 1.0
C      1  0.4785200000000  0.4809930000000  0.5296100000000 1.0
C      1  0.4970810000000  0.5114860000000  0.4445930000000 1.0
C      1  0.5025240000000  0.4852570000000  0.5470190000000 1.0
C      1  0.4390420000000  0.4967780000000  0.4910470000000 1.0
C      1  0.5543760000000  0.5205150000000  0.5044860000000 1.0
C      1  0.4971770000000  0.5358250000000  0.5509840000000 1.0
C      1  0.5075130000000  0.4659780000000  0.4552150000000 1.0
C      1  0.5396190000000  0.4717960000000  0.4912930000000 1.0
C      1  0.4656400000000  0.5296340000000  0.5141970000000 1.0
C      1  0.4386870000000  0.5167560000000  0.5111330000000 1.0
C      1  0.5586220000000  0.4956560000000  0.4903250000000 1.0
C      1  0.4743170000000  0.4629290000000  0.4849220000000 1.0
C      1  0.5265830000000  0.5296870000000  0.5061890000000 1.0
C      1  0.5250660000000  0.4908150000000  0.5311540000000 1.0
C      1  0.4744410000000  0.5059750000000  0.4601530000000 1.0
C      1  0.4825750000000  0.5035070000000  0.5087700000000 1.0
END
