TITL C-3578209-2550-548 -2.14474115697146e-06 125000 -1135.06332867069 0 0 184 (C1) n - 1
REM
REM in /home/bkarasulu/work/CARBON/AIRSS/Generating-Clusters/EDIP-Nigel-Params/with-SteepDescent/Higher-Symm/SD-CG/HFTN-CG
REM
REM
REM
REM
REM
REM ./C.cell (12c818d87b63d06a65506943cc24bca4)
REM
REM compiler GCC version 9.2.1 20190827 (Red Hat 9.2.1-1)
REM options -cpp -mtune=generic -march=x86-64 -g -O0 -fpre-include=/usr/include/finclude/math-vector-fortran.h
REM seed 1196516154 1314972927 859566676 1105000937 -1363963204 1767579227 -1329525813 -1370207121 -481144671 1280307004 -508420913 1566521151 -472803721 -1440289887 -2077265167 555519113 2095236868 1488288535 508531395 1025794288 -1092750553 746907017 -409090186 -1611215338 -851386389 1931405054 -470640852 1876691904 -318591836 1745725958 1806080652 384982689 1693012076
REM
CELL 1.54180   50.00000   50.00000   50.00000   90.00000   90.00000   90.00000
LATT -1
SFAC C  
C      1  0.4953060000000  0.6027290000000  0.4882090000000 1.0
C      1  0.4043530000000  0.5288280000000  0.4816370000000 1.0
C      1  0.4588600000000  0.4186540000000  0.4811540000000 1.0
C      1  0.5456080000000  0.4374580000000  0.4868820000000 1.0
C      1  0.5719910000000  0.5223010000000  0.4885210000000 1.0
C      1  0.5032140000000  0.6017050000000  0.5198680000000 1.0
C      1  0.4044680000000  0.5279020000000  0.5198950000000 1.0
C      1  0.4564260000000  0.4187130000000  0.5146530000000 1.0
C      1  0.5444510000000  0.4315510000000  0.5191100000000 1.0
C      1  0.5765980000000  0.5230180000000  0.5176130000000 1.0
C      1  0.5033660000000  0.5206540000000  0.5217570000000 1.0
C      1  0.4768210000000  0.5095780000000  0.5147650000000 1.0
C      1  0.4779450000000  0.4794660000000  0.5185790000000 1.0
C      1  0.5076830000000  0.4738960000000  0.5206780000000 1.0
C      1  0.5238030000000  0.4994210000000  0.5169480000000 1.0
C      1  0.5017270000000  0.5192040000000  0.4774630000000 1.0
C      1  0.4757100000000  0.5097020000000  0.4853690000000 1.0
C      1  0.4761590000000  0.4797820000000  0.4797000000000 1.0
C      1  0.5057290000000  0.4740950000000  0.4761540000000 1.0
C      1  0.5221670000000  0.4986960000000  0.4816580000000 1.0
C      1  0.5089400000000  0.5628820000000  0.5404130000000 1.0
C      1  0.4526660000000  0.5220920000000  0.5264330000000 1.0
C      1  0.4586860000000  0.4758100000000  0.5422410000000 1.0
C      1  0.5170150000000  0.4560020000000  0.5425180000000 1.0
C      1  0.5447670000000  0.5016680000000  0.5404200000000 1.0
C      1  0.5059800000000  0.5613540000000  0.4646840000000 1.0
C      1  0.4524400000000  0.5247190000000  0.4749360000000 1.0
C      1  0.4567240000000  0.4765990000000  0.4561790000000 1.0
C      1  0.5139640000000  0.4566280000000  0.4534700000000 1.0
C      1  0.5436880000000  0.5015150000000  0.4601620000000 1.0
C      1  0.4256500000000  0.4949850000000  0.4106090000000 1.0
C      1  0.4866020000000  0.4297350000000  0.4086340000000 1.0
C      1  0.5646520000000  0.4628100000000  0.4101460000000 1.0
C      1  0.5533410000000  0.5575550000000  0.4083580000000 1.0
C      1  0.4750600000000  0.5692400000000  0.4116830000000 1.0
C      1  0.4271400000000  0.4943350000000  0.5875570000000 1.0
C      1  0.4889010000000  0.4297790000000  0.5894330000000 1.0
C      1  0.5644460000000  0.4638520000000  0.5909500000000 1.0
C      1  0.5536450000000  0.5598560000000  0.5890010000000 1.0
C      1  0.4752930000000  0.5688850000000  0.5833550000000 1.0
C      1  0.5239830000000  0.4010220000000  0.5435030000000 1.0
C      1  0.5946120000000  0.4878250000000  0.5479780000000 1.0
C      1  0.5486230000000  0.5911930000000  0.5348820000000 1.0
C      1  0.4292050000000  0.5639840000000  0.5390780000000 1.0
C      1  0.4210360000000  0.4532630000000  0.5256860000000 1.0
C      1  0.5235920000000  0.4043370000000  0.4545110000000 1.0
C      1  0.5910530000000  0.4868200000000  0.4584360000000 1.0
C      1  0.5410930000000  0.5910050000000  0.4773850000000 1.0
C      1  0.4281760000000  0.5659770000000  0.4626000000000 1.0
C      1  0.4209770000000  0.4539820000000  0.4751240000000 1.0
C      1  0.5714880000000  0.4191110000000  0.4849140000000 1.0
C      1  0.5975350000000  0.5368300000000  0.4807260000000 1.0
C      1  0.4781770000000  0.6270450000000  0.4850600000000 1.0
C      1  0.3770190000000  0.5159460000000  0.4851550000000 1.0
C      1  0.4499820000000  0.3809000000000  0.4849720000000 1.0
C      1  0.5723800000000  0.4169700000000  0.5161410000000 1.0
C      1  0.6039360000000  0.5370150000000  0.5172690000000 1.0
C      1  0.4695840000000  0.6368470000000  0.5100550000000 1.0
C      1  0.3769130000000  0.5156900000000  0.5160320000000 1.0
C      1  0.4498620000000  0.3891300000000  0.5132050000000 1.0
C      1  0.5918600000000  0.5613030000000  0.4663000000000 1.0
C      1  0.4564510000000  0.6181310000000  0.4682670000000 1.0
C      1  0.3762730000000  0.4909570000000  0.4695050000000 1.0
C      1  0.4727760000000  0.3798200000000  0.4674610000000 1.0
C      1  0.5935430000000  0.4340980000000  0.4718750000000 1.0
C      1  0.6008240000000  0.5630960000000  0.5300610000000 1.0
C      1  0.4581660000000  0.6171480000000  0.5266850000000 1.0
C      1  0.3758060000000  0.4905570000000  0.5314720000000 1.0
C      1  0.4727750000000  0.3804570000000  0.5300330000000 1.0
C      1  0.5927840000000  0.4331100000000  0.5306470000000 1.0
C      1  0.4874480000000  0.4258520000000  0.5140550000000 1.0
C      1  0.5502560000000  0.4636760000000  0.5222700000000 1.0
C      1  0.5538790000000  0.5418270000000  0.5255990000000 1.0
C      1  0.4772470000000  0.5659020000000  0.5185730000000 1.0
C      1  0.4288550000000  0.5072350000000  0.5169180000000 1.0
C      1  0.4912960000000  0.4280210000000  0.4851000000000 1.0
C      1  0.5538470000000  0.4682210000000  0.4918040000000 1.0
C      1  0.5473970000000  0.5401400000000  0.4874830000000 1.0
C      1  0.4795260000000  0.5705460000000  0.4861650000000 1.0
C      1  0.4286660000000  0.5084790000000  0.4838810000000 1.0
C      1  0.3801320000000  0.4672330000000  0.4859290000000 1.0
C      1  0.4973740000000  0.3767170000000  0.4833690000000 1.0
C      1  0.6048420000000  0.4561100000000  0.4874620000000 1.0
C      1  0.5895690000000  0.5848760000000  0.4834360000000 1.0
C      1  0.4373650000000  0.6034490000000  0.4845360000000 1.0
C      1  0.3803260000000  0.4670910000000  0.5150620000000 1.0
C      1  0.4971130000000  0.3754820000000  0.5133770000000 1.0
C      1  0.6055720000000  0.4550680000000  0.5166660000000 1.0
C      1  0.5853040000000  0.5802940000000  0.5118850000000 1.0
C      1  0.4342770000000  0.6075370000000  0.5135070000000 1.0
C      1  0.4721950000000  0.3985830000000  0.4452840000000 1.0
C      1  0.5895210000000  0.4386440000000  0.4442910000000 1.0
C      1  0.5930490000000  0.5617070000000  0.4383590000000 1.0
C      1  0.4645390000000  0.6074930000000  0.4434980000000 1.0
C      1  0.3877950000000  0.4921390000000  0.4432500000000 1.0
C      1  0.4752160000000  0.3984810000000  0.5527160000000 1.0
C      1  0.5880270000000  0.4366120000000  0.5581590000000 1.0
C      1  0.5925840000000  0.5616840000000  0.5570240000000 1.0
C      1  0.4775490000000  0.5939940000000  0.5343590000000 1.0
C      1  0.3875640000000  0.4915150000000  0.5575210000000 1.0
C      1  0.5387500000000  0.4046170000000  0.4316780000000 1.0
C      1  0.5934840000000  0.5016270000000  0.4349150000000 1.0
C      1  0.5171730000000  0.6044010000000  0.4665660000000 1.0
C      1  0.4067730000000  0.5465380000000  0.4573020000000 1.0
C      1  0.4395090000000  0.4342920000000  0.4642130000000 1.0
C      1  0.5391770000000  0.4017220000000  0.5664540000000 1.0
C      1  0.5981070000000  0.5041090000000  0.5701690000000 1.0
C      1  0.5237020000000  0.6054220000000  0.5415180000000 1.0
C      1  0.4066410000000  0.5460700000000  0.5438960000000 1.0
C      1  0.4402280000000  0.4336630000000  0.5352690000000 1.0
C      1  0.3936720000000  0.4460140000000  0.5277180000000 1.0
C      1  0.5206880000000  0.3777860000000  0.5283280000000 1.0
C      1  0.6152760000000  0.4752170000000  0.5338020000000 1.0
C      1  0.5686480000000  0.6028390000000  0.5181400000000 1.0
C      1  0.4216170000000  0.5888810000000  0.5295550000000 1.0
C      1  0.3937080000000  0.4463120000000  0.4734620000000 1.0
C      1  0.5207790000000  0.3805080000000  0.4686850000000 1.0
C      1  0.6139080000000  0.4776760000000  0.4720390000000 1.0
C      1  0.5672830000000  0.6037540000000  0.4790960000000 1.0
C      1  0.4174840000000  0.5907260000000  0.4702740000000 1.0
C      1  0.5773270000000  0.5476740000000  0.4202160000000 1.0
C      1  0.4818250000000  0.5894960000000  0.4305150000000 1.0
C      1  0.4044970000000  0.5062670000000  0.4253620000000 1.0
C      1  0.4737690000000  0.4248390000000  0.4334470000000 1.0
C      1  0.5740340000000  0.4390830000000  0.4211160000000 1.0
C      1  0.5777630000000  0.5498230000000  0.5775520000000 1.0
C      1  0.4834690000000  0.5890390000000  0.5649010000000 1.0
C      1  0.4046020000000  0.5055270000000  0.5750520000000 1.0
C      1  0.4774470000000  0.4249810000000  0.5639270000000 1.0
C      1  0.5710050000000  0.4390080000000  0.5800160000000 1.0
C      1  0.5329480000000  0.4866670000000  0.4370320000000 1.0
C      1  0.5012020000000  0.5338280000000  0.4529140000000 1.0
C      1  0.4766830000000  0.5295320000000  0.4382410000000 1.0
C      1  0.4650580000000  0.5003730000000  0.4360680000000 1.0
C      1  0.4937810000000  0.4671080000000  0.4336610000000 1.0
C      1  0.5346530000000  0.4898380000000  0.5645980000000 1.0
C      1  0.5035750000000  0.5341280000000  0.5467850000000 1.0
C      1  0.4791360000000  0.5289860000000  0.5609570000000 1.0
C      1  0.4672420000000  0.4998620000000  0.5619620000000 1.0
C      1  0.4968560000000  0.4672670000000  0.5632790000000 1.0
C      1  0.5368890000000  0.5649070000000  0.5293530000000 1.0
C      1  0.4512500000000  0.5510710000000  0.5246600000000 1.0
C      1  0.4309340000000  0.4802150000000  0.5318840000000 1.0
C      1  0.5097490000000  0.4265270000000  0.5346430000000 1.0
C      1  0.5722600000000  0.4941200000000  0.5298240000000 1.0
C      1  0.5344110000000  0.5626070000000  0.4745600000000 1.0
C      1  0.4522410000000  0.5545730000000  0.4762240000000 1.0
C      1  0.4296820000000  0.4814740000000  0.4679970000000 1.0
C      1  0.5180570000000  0.4297430000000  0.4697030000000 1.0
C      1  0.5671680000000  0.4927970000000  0.4757330000000 1.0
C      1  0.5097720000000  0.5310580000000  0.3980990000000 1.0
C      1  0.4639240000000  0.5215330000000  0.3947970000000 1.0
C      1  0.4687510000000  0.4737490000000  0.3963210000000 1.0
C      1  0.5193580000000  0.4774790000000  0.3924650000000 1.0
C      1  0.5553590000000  0.5104830000000  0.4042120000000 1.0
C      1  0.5105800000000  0.5316630000000  0.6005200000000 1.0
C      1  0.4647120000000  0.5215470000000  0.6028030000000 1.0
C      1  0.4704660000000  0.4737600000000  0.6018280000000 1.0
C      1  0.5210880000000  0.4805300000000  0.6079300000000 1.0
C      1  0.5576000000000  0.5131090000000  0.5979650000000 1.0
C      1  0.4083350000000  0.5324020000000  0.4333060000000 1.0
C      1  0.4564360000000  0.4465980000000  0.4445600000000 1.0
C      1  0.5575310000000  0.4173910000000  0.4180260000000 1.0
C      1  0.5793500000000  0.5188410000000  0.4180200000000 1.0
C      1  0.5069890000000  0.5845090000000  0.4449250000000 1.0
C      1  0.4069270000000  0.5321130000000  0.5680280000000 1.0
C      1  0.4591660000000  0.4462420000000  0.5534610000000 1.0
C      1  0.5526890000000  0.4185880000000  0.5819720000000 1.0
C      1  0.5813660000000  0.5218290000000  0.5836690000000 1.0
C      1  0.5118280000000  0.5916260000000  0.5646700000000 1.0
C      1  0.4545950000000  0.4969220000000  0.4080610000000 1.0
C      1  0.4922870000000  0.4582570000000  0.4055870000000 1.0
C      1  0.5445230000000  0.4833630000000  0.4094120000000 1.0
C      1  0.5380720000000  0.5338130000000  0.4050400000000 1.0
C      1  0.4807050000000  0.5404280000000  0.4105300000000 1.0
C      1  0.4560840000000  0.4966560000000  0.5897920000000 1.0
C      1  0.4937110000000  0.4583330000000  0.5915840000000 1.0
C      1  0.5459400000000  0.4860930000000  0.5916550000000 1.0
C      1  0.5394340000000  0.5358800000000  0.5950640000000 1.0
C      1  0.4818740000000  0.5405040000000  0.5879450000000 1.0
C      1  0.5007500000000  0.5015580000000  0.5987860000000 1.0
C      1  0.4994450000000  0.5016330000000  0.3994780000000 1.0
C      1  0.5055180000000  0.4953600000000  0.5679690000000 1.0
C      1  0.5031650000000  0.4957310000000  0.4306110000000 1.0
END
