TITL C-3577089-586-561 -3.13717536266703e-07 125000 -298.632141707297 0 0 50 (C1) n - 1
REM
REM in /home/bkarasulu/work/CARBON/AIRSS/Generating-Clusters/EDIP-Nigel-Params/with-SteepDescent/Higher-Symm/SD-CG/HFTN-CG
REM
REM
REM
REM
REM
REM ./C.cell (12c818d87b63d06a65506943cc24bca4)
REM
REM compiler GCC version 9.2.1 20190827 (Red Hat 9.2.1-1)
REM options -cpp -mtune=generic -march=x86-64 -g -O0 -fpre-include=/usr/include/finclude/math-vector-fortran.h
REM seed 257618535 325817489 1693401870 -1345948273 149107231 -241998008 2040958086 -1694352132 -985921983 -1156518408 334000032 -2147479341 1649941233 -245626923 646851505 -1098365792 -519318850 95690646 282548792 -146454726 1437323385 -654837249 -1235392932 -505554638 589244955 -545146367 -641612890 -785818766 1273660954 -1956305862 2077411721 -51561101 -496424983
REM
CELL 1.54180   50.00000   50.00000   50.00000   90.00000   90.00000   90.00000
LATT -1
SFAC C  
C      1  0.4655790000000  0.5103890000000  0.5659980000000 1.0
C      1  0.4681520000000  0.5547400000000  0.4589330000000 1.0
C      1  0.4694620000000  0.4398500000000  0.4740420000000 1.0
C      1  0.5474020000000  0.4826990000000  0.4757040000000 1.0
C      1  0.5456420000000  0.4882080000000  0.5305380000000 1.0
C      1  0.5462240000000  0.5326290000000  0.4982960000000 1.0
C      1  0.5465840000000  0.5426860000000  0.5245060000000 1.0
C      1  0.5488110000000  0.5004020000000  0.4539250000000 1.0
C      1  0.5470200000000  0.4604570000000  0.5262550000000 1.0
C      1  0.4719270000000  0.4835540000000  0.5591530000000 1.0
C      1  0.4737400000000  0.5617880000000  0.4859020000000 1.0
C      1  0.4756090000000  0.4590790000000  0.4540210000000 1.0
C      1  0.4558260000000  0.4545590000000  0.4934760000000 1.0
C      1  0.4524200000000  0.5201790000000  0.5432890000000 1.0
C      1  0.4548810000000  0.5302020000000  0.4610690000000 1.0
C      1  0.5264100000000  0.5149200000000  0.4472080000000 1.0
C      1  0.5243470000000  0.4482560000000  0.5161780000000 1.0
C      1  0.5235660000000  0.5407660000000  0.5394960000000 1.0
C      1  0.5095910000000  0.5031810000000  0.4269730000000 1.0
C      1  0.5065340000000  0.4373150000000  0.5361300000000 1.0
C      1  0.5063320000000  0.5638420000000  0.5385000000000 1.0
C      1  0.4577150000000  0.4826670000000  0.4566200000000 1.0
C      1  0.4546030000000  0.4745150000000  0.5369150000000 1.0
C      1  0.4552830000000  0.5474510000000  0.5041030000000 1.0
C      1  0.5521720000000  0.4546270000000  0.4770950000000 1.0
C      1  0.5497450000000  0.5031880000000  0.5543240000000 1.0
C      1  0.5518080000000  0.5459240000000  0.4738420000000 1.0
C      1  0.5176950000000  0.5304060000000  0.4875730000000 1.0
C      1  0.5184340000000  0.4750790000000  0.4816360000000 1.0
C      1  0.5167020000000  0.4977600000000  0.5326070000000 1.0
C      1  0.4829450000000  0.5117330000000  0.4240970000000 1.0
C      1  0.4799910000000  0.4310250000000  0.5293660000000 1.0
C      1  0.4794010000000  0.5615400000000  0.5461330000000 1.0
C      1  0.5359940000000  0.4383800000000  0.4931130000000 1.0
C      1  0.5334430000000  0.5251130000000  0.5598830000000 1.0
C      1  0.5365960000000  0.5401450000000  0.4512300000000 1.0
C      1  0.4514090000000  0.4830650000000  0.4858590000000 1.0
C      1  0.4452130000000  0.4994410000000  0.5235740000000 1.0
C      1  0.4464510000000  0.5235970000000  0.4888980000000 1.0
C      1  0.4637720000000  0.5434290000000  0.5314810000000 1.0
C      1  0.4668400000000  0.5084060000000  0.4468610000000 1.0
C      1  0.4647700000000  0.4528310000000  0.5203300000000 1.0
C      1  0.5005690000000  0.4782350000000  0.5524830000000 1.0
C      1  0.5019240000000  0.5576020000000  0.4947180000000 1.0
C      1  0.5038360000000  0.4683360000000  0.4539700000000 1.0
C      1  0.5131480000000  0.4754860000000  0.4279620000000 1.0
C      1  0.5092520000000  0.4520620000000  0.5596990000000 1.0
C      1  0.5105190000000  0.5767280000000  0.5140600000000 1.0
C      1  0.4753910000000  0.5000760000000  0.4993720000000 1.0
C      1  0.5067510000000  0.5007060000000  0.5001560000000 1.0
END
