TITL C-3578202-4305-750 1.05515772576639e-06 125000 -378.562672617671 0 0 64 (C1) n - 1
REM
REM in /home/bkarasulu/work/CARBON/AIRSS/Generating-Clusters/EDIP-Nigel-Params/with-SteepDescent/Higher-Symm/SD-CG/HFTN-CG
REM
REM
REM
REM
REM
REM ./C.cell (12c818d87b63d06a65506943cc24bca4)
REM
REM compiler GCC version 9.2.1 20190827 (Red Hat 9.2.1-1)
REM options -cpp -mtune=generic -march=x86-64 -g -O0 -fpre-include=/usr/include/finclude/math-vector-fortran.h
REM seed -564440955 1416108848 884211896 -1195965991 -2087457861 2139424596 -1832712649 1769851192 -274205322 -2105898378 67520254 2062445335 37557422 1521642267 161087211 -363141531 -1796350855 -21466543 -732352665 4343547 -1499176475 -738326501 -353126597 -399263216 -965085645 -816793577 1658780444 -271960042 879071285 -1795489029 689320400 -1185574742 1416142821
REM
CELL 1.54180   50.00000   50.00000   50.00000   90.00000   90.00000   90.00000
LATT -1
SFAC C  
C      1  0.4755470000000  0.4362290000000  0.4558980000000 1.0
C      1  0.5271410000000  0.5668470000000  0.4525370000000 1.0
C      1  0.5261050000000  0.4358920000000  0.4562280000000 1.0
C      1  0.4756660000000  0.5673470000000  0.4534340000000 1.0
C      1  0.4504290000000  0.4408790000000  0.4715430000000 1.0
C      1  0.5565070000000  0.5677060000000  0.4606170000000 1.0
C      1  0.5508710000000  0.4392740000000  0.4728940000000 1.0
C      1  0.4468010000000  0.5685810000000  0.4630010000000 1.0
C      1  0.4386240000000  0.5392330000000  0.4646610000000 1.0
C      1  0.5565170000000  0.4671800000000  0.4644410000000 1.0
C      1  0.5644340000000  0.5382260000000  0.4629560000000 1.0
C      1  0.4450050000000  0.4693640000000  0.4655590000000 1.0
C      1  0.5279600000000  0.4763970000000  0.4246320000000 1.0
C      1  0.4770420000000  0.5184260000000  0.4401300000000 1.0
C      1  0.4733100000000  0.4769020000000  0.4255770000000 1.0
C      1  0.5253510000000  0.5180640000000  0.4391380000000 1.0
C      1  0.4736250000000  0.4676980000000  0.4540020000000 1.0
C      1  0.5338710000000  0.5366750000000  0.4605880000000 1.0
C      1  0.5282350000000  0.4668980000000  0.4527840000000 1.0
C      1  0.4690880000000  0.5372260000000  0.4615500000000 1.0
C      1  0.5249520000000  0.4495700000000  0.5074470000000 1.0
C      1  0.4809850000000  0.5390330000000  0.5035480000000 1.0
C      1  0.4806900000000  0.4530860000000  0.5087280000000 1.0
C      1  0.5250930000000  0.5417420000000  0.5031490000000 1.0
C      1  0.4836610000000  0.5353750000000  0.5726820000000 1.0
C      1  0.5052760000000  0.4565730000000  0.5569360000000 1.0
C      1  0.5036730000000  0.5367750000000  0.5524170000000 1.0
C      1  0.4871990000000  0.4570680000000  0.5793070000000 1.0
C      1  0.4571450000000  0.5363590000000  0.5644710000000 1.0
C      1  0.5290480000000  0.4721290000000  0.5571680000000 1.0
C      1  0.5277240000000  0.5217870000000  0.5540460000000 1.0
C      1  0.4597630000000  0.4546310000000  0.5736280000000 1.0
C      1  0.5473630000000  0.5485900000000  0.5188430000000 1.0
C      1  0.4576410000000  0.4503050000000  0.5253470000000 1.0
C      1  0.4580960000000  0.5428850000000  0.5188300000000 1.0
C      1  0.5474810000000  0.4430470000000  0.5232320000000 1.0
C      1  0.4287140000000  0.5170560000000  0.4784520000000 1.0
C      1  0.5672580000000  0.4893590000000  0.4773060000000 1.0
C      1  0.5742570000000  0.5151300000000  0.4752470000000 1.0
C      1  0.4351610000000  0.4910720000000  0.4798610000000 1.0
C      1  0.5723030000000  0.4832150000000  0.5373900000000 1.0
C      1  0.4333670000000  0.5065490000000  0.5365690000000 1.0
C      1  0.4343370000000  0.4791040000000  0.5375630000000 1.0
C      1  0.5717100000000  0.5099920000000  0.5364960000000 1.0
C      1  0.4567590000000  0.4662000000000  0.5483590000000 1.0
C      1  0.5501490000000  0.5273590000000  0.5368260000000 1.0
C      1  0.5509350000000  0.4657090000000  0.5395290000000 1.0
C      1  0.4446560000000  0.5316090000000  0.5402360000000 1.0
C      1  0.4944920000000  0.4739890000000  0.6004580000000 1.0
C      1  0.4907300000000  0.5222070000000  0.5963230000000 1.0
C      1  0.5042250000000  0.5224400000000  0.5167190000000 1.0
C      1  0.5045370000000  0.4696490000000  0.5205640000000 1.0
C      1  0.5006230000000  0.4257460000000  0.4692820000000 1.0
C      1  0.5016600000000  0.5736980000000  0.4676230000000 1.0
C      1  0.5018790000000  0.5596770000000  0.4942160000000 1.0
C      1  0.5010620000000  0.4325760000000  0.4985470000000 1.0
C      1  0.4595700000000  0.5020150000000  0.4251650000000 1.0
C      1  0.5421930000000  0.5012600000000  0.4238660000000 1.0
C      1  0.5020250000000  0.4979820000000  0.5882620000000 1.0
C      1  0.5005000000000  0.4795630000000  0.4155150000000 1.0
C      1  0.5021000000000  0.4930430000000  0.4749910000000 1.0
C      1  0.5250080000000  0.4978210000000  0.5702730000000 1.0
C      1  0.5012770000000  0.5025740000000  0.4468580000000 1.0
C      1  0.5052950000000  0.4950990000000  0.5035130000000 1.0
END
