TITL C-3578198-8939-471 -7.44926898775212e-08 125000 -105.762557891806 0 0 19 (C3) n - 1
REM
REM in /home/bkarasulu/work/CARBON/AIRSS/Generating-Clusters/EDIP-Nigel-Params/with-SteepDescent/Higher-Symm/SD-CG/HFTN-CG
REM
REM
REM
REM
REM
REM ./C.cell (12c818d87b63d06a65506943cc24bca4)
REM
REM compiler GCC version 9.2.1 20190827 (Red Hat 9.2.1-1)
REM options -cpp -mtune=generic -march=x86-64 -g -O0 -fpre-include=/usr/include/finclude/math-vector-fortran.h
REM seed -734975876 -1012519460 -226353067 1117746375 1692709301 -1322972433 1277629259 835078422 -154947300 870254632 -1235679019 404702585 404286332 -1700329726 -1841442183 -1663751441 -1558144844 -723466171 594554876 -1039652825 -1998684276 -745878917 -242271173 236478292 2106860634 1690117368 -1234417417 -55722222 637008066 -748660786 -75707045 -304654657 519401874
REM
CELL 1.54180   50.00000   50.00000   50.00000   90.00000   90.00000   90.00000
LATT -1
SFAC C  
C      1  0.5403870000000  0.4897510000000  0.4870910000000 1.0
C      1  0.4683160000000  0.4711170000000  0.4869360000000 1.0
C      1  0.4882140000000  0.5428500000000  0.4870220000000 1.0
C      1  0.4540590000000  0.5077250000000  0.5082670000000 1.0
C      1  0.5269950000000  0.5368340000000  0.5084300000000 1.0
C      1  0.5157360000000  0.4591160000000  0.5083570000000 1.0
C      1  0.4797290000000  0.5221860000000  0.5186190000000 1.0
C      1  0.5266580000000  0.5073450000000  0.5187030000000 1.0
C      1  0.4903410000000  0.4741240000000  0.5186090000000 1.0
C      1  0.4608150000000  0.4900320000000  0.4680750000000 1.0
C      1  0.5083910000000  0.5399390000000  0.4682020000000 1.0
C      1  0.5278230000000  0.4737830000000  0.4681970000000 1.0
C      1  0.4993060000000  0.5474750000000  0.5130490000000 1.0
C      1  0.5387840000000  0.4777620000000  0.5130820000000 1.0
C      1  0.4586720000000  0.4784290000000  0.5129240000000 1.0
C      1  0.5155690000000  0.4528000000000  0.4806120000000 1.0
C      1  0.4487400000000  0.5111030000000  0.4805170000000 1.0
C      1  0.5326460000000  0.5398270000000  0.4807030000000 1.0
C      1  0.4988950000000  0.5012140000000  0.5260630000000 1.0
END
