TITL C-3577091-527-391 -1.82804545945824e-06 125000 -884.57794578693 0 0 139 (C1) n - 1
REM
REM in /home/bkarasulu/work/CARBON/AIRSS/Generating-Clusters/EDIP-Nigel-Params/with-SteepDescent/Higher-Symm/SD-CG/HFTN-CG
REM
REM
REM
REM
REM
REM ./C.cell (12c818d87b63d06a65506943cc24bca4)
REM
REM compiler GCC version 9.2.1 20190827 (Red Hat 9.2.1-1)
REM options -cpp -mtune=generic -march=x86-64 -g -O0 -fpre-include=/usr/include/finclude/math-vector-fortran.h
REM seed -993199908 -112067586 -1595485960 -571192317 -100116299 -1226764245 -962303672 1882659298 1910557852 -535699327 2034808930 -1051446251 -2136930804 -662073135 -293601777 1903265470 -686741426 561766282 -154361299 864639538 -1359628530 -26929497 -821030245 66173676 853042638 517303182 143187339 1988454810 2022371622 1019778441 1026043506 -153166991 -1097795937
REM
CELL 1.54180   50.00000   50.00000   50.00000   90.00000   90.00000   90.00000
LATT -1
SFAC C  
C      1  0.5493650000000  0.4461340000000  0.5563540000000 1.0
C      1  0.5498950000000  0.4189830000000  0.4820950000000 1.0
C      1  0.5543520000000  0.4769850000000  0.4292860000000 1.0
C      1  0.5498270000000  0.5549670000000  0.4429950000000 1.0
C      1  0.5466780000000  0.5764700000000  0.5176490000000 1.0
C      1  0.5532200000000  0.5237580000000  0.5738650000000 1.0
C      1  0.4460170000000  0.5496400000000  0.5532530000000 1.0
C      1  0.4475680000000  0.5757190000000  0.4812780000000 1.0
C      1  0.4497870000000  0.5237740000000  0.4249610000000 1.0
C      1  0.4491630000000  0.4499900000000  0.4458070000000 1.0
C      1  0.4482280000000  0.4237580000000  0.5169500000000 1.0
C      1  0.4486900000000  0.4761990000000  0.5728540000000 1.0
C      1  0.4745750000000  0.4868820000000  0.5832370000000 1.0
C      1  0.4733230000000  0.4173710000000  0.5314500000000 1.0
C      1  0.4731500000000  0.4331000000000  0.4465600000000 1.0
C      1  0.4752670000000  0.5124510000000  0.4144380000000 1.0
C      1  0.4726400000000  0.5814080000000  0.4668520000000 1.0
C      1  0.4714580000000  0.5652650000000  0.5528400000000 1.0
C      1  0.5331390000000  0.5132690000000  0.5921410000000 1.0
C      1  0.5222680000000  0.5836980000000  0.5331690000000 1.0
C      1  0.5240730000000  0.5706670000000  0.4434380000000 1.0
C      1  0.5335870000000  0.4879840000000  0.4123150000000 1.0
C      1  0.5244960000000  0.4125700000000  0.4664020000000 1.0
C      1  0.5248170000000  0.4283060000000  0.5564510000000 1.0
C      1  0.4722350000000  0.4831970000000  0.4155950000000 1.0
C      1  0.4768780000000  0.5597300000000  0.4462300000000 1.0
C      1  0.4761220000000  0.5742700000000  0.5248850000000 1.0
C      1  0.4712980000000  0.5157520000000  0.5827620000000 1.0
C      1  0.4772290000000  0.4385890000000  0.5524530000000 1.0
C      1  0.4776370000000  0.4239240000000  0.4746020000000 1.0
C      1  0.5240970000000  0.5146080000000  0.4223130000000 1.0
C      1  0.5235680000000  0.4315340000000  0.4424780000000 1.0
C      1  0.5209630000000  0.4196470000000  0.5275290000000 1.0
C      1  0.5280980000000  0.4841600000000  0.5885740000000 1.0
C      1  0.5225380000000  0.5685050000000  0.5594080000000 1.0
C      1  0.5192260000000  0.5780420000000  0.4722960000000 1.0
C      1  0.4332900000000  0.5191130000000  0.4788170000000 1.0
C      1  0.4249370000000  0.5219520000000  0.5082450000000 1.0
C      1  0.4487150000000  0.5207220000000  0.5266460000000 1.0
C      1  0.4482660000000  0.4900770000000  0.5276340000000 1.0
C      1  0.4288370000000  0.4798240000000  0.5075750000000 1.0
C      1  0.4342130000000  0.4865400000000  0.4764300000000 1.0
C      1  0.5621040000000  0.4763160000000  0.4810270000000 1.0
C      1  0.5729530000000  0.4763230000000  0.5097130000000 1.0
C      1  0.5604050000000  0.4946720000000  0.5289090000000 1.0
C      1  0.5613680000000  0.5214050000000  0.5167010000000 1.0
C      1  0.5715570000000  0.5218840000000  0.4879490000000 1.0
C      1  0.5582920000000  0.5030970000000  0.4693750000000 1.0
C      1  0.4490560000000  0.5505260000000  0.4379570000000 1.0
C      1  0.4486160000000  0.5757790000000  0.5111360000000 1.0
C      1  0.4464470000000  0.5239680000000  0.5702140000000 1.0
C      1  0.4491190000000  0.4498760000000  0.5584480000000 1.0
C      1  0.4491370000000  0.4237910000000  0.4870050000000 1.0
C      1  0.4497360000000  0.4761440000000  0.4319750000000 1.0
C      1  0.5484300000000  0.4499870000000  0.4425570000000 1.0
C      1  0.5493980000000  0.4193260000000  0.5132980000000 1.0
C      1  0.5510460000000  0.4719330000000  0.5721130000000 1.0
C      1  0.5477710000000  0.5499910000000  0.5593650000000 1.0
C      1  0.5471610000000  0.5781000000000  0.4873060000000 1.0
C      1  0.5510840000000  0.5286900000000  0.4284110000000 1.0
C      1  0.5318020000000  0.4599190000000  0.5115060000000 1.0
C      1  0.5339400000000  0.4689120000000  0.4844830000000 1.0
C      1  0.5297360000000  0.5111690000000  0.4724090000000 1.0
C      1  0.5299860000000  0.5372770000000  0.4864600000000 1.0
C      1  0.5324510000000  0.5280670000000  0.5137410000000 1.0
C      1  0.5322690000000  0.4839760000000  0.5279870000000 1.0
C      1  0.4733060000000  0.5256910000000  0.5089060000000 1.0
C      1  0.4666050000000  0.5194570000000  0.4790920000000 1.0
C      1  0.4688130000000  0.4877860000000  0.4703160000000 1.0
C      1  0.4739630000000  0.4695190000000  0.4928160000000 1.0
C      1  0.4749270000000  0.4794350000000  0.5201510000000 1.0
C      1  0.4905480000000  0.5043950000000  0.5199140000000 1.0
C      1  0.4886190000000  0.5360250000000  0.4626340000000 1.0
C      1  0.4913810000000  0.5503880000000  0.5128770000000 1.0
C      1  0.4997940000000  0.5129980000000  0.5495900000000 1.0
C      1  0.4924470000000  0.4609160000000  0.5374450000000 1.0
C      1  0.4927400000000  0.4479820000000  0.4872440000000 1.0
C      1  0.4956400000000  0.4836250000000  0.4521580000000 1.0
C      1  0.5120870000000  0.4600540000000  0.4661700000000 1.0
C      1  0.5078350000000  0.4450340000000  0.5155770000000 1.0
C      1  0.5132030000000  0.4832270000000  0.5527380000000 1.0
C      1  0.5129760000000  0.5403940000000  0.5344100000000 1.0
C      1  0.5054880000000  0.5521740000000  0.4836360000000 1.0
C      1  0.5096960000000  0.5110460000000  0.4501910000000 1.0
C      1  0.3911510000000  0.5025650000000  0.5283910000000 1.0
C      1  0.3906270000000  0.4761010000000  0.5143010000000 1.0
C      1  0.3919480000000  0.4759000000000  0.4840210000000 1.0
C      1  0.3936800000000  0.5013670000000  0.4697070000000 1.0
C      1  0.3898640000000  0.5273730000000  0.4818870000000 1.0
C      1  0.3869420000000  0.5287120000000  0.5123870000000 1.0
C      1  0.6076880000000  0.4989750000000  0.5295490000000 1.0
C      1  0.6053390000000  0.5251940000000  0.5160830000000 1.0
C      1  0.6094300000000  0.5279670000000  0.4852470000000 1.0
C      1  0.6059660000000  0.5022370000000  0.4684130000000 1.0
C      1  0.6065630000000  0.4754050000000  0.4810050000000 1.0
C      1  0.6040250000000  0.4739470000000  0.5120910000000 1.0
C      1  0.4991080000000  0.4310010000000  0.5718640000000 1.0
C      1  0.4982280000000  0.4019880000000  0.4762150000000 1.0
C      1  0.5168330000000  0.4706570000000  0.3985270000000 1.0
C      1  0.4994110000000  0.5666560000000  0.4273540000000 1.0
C      1  0.4966080000000  0.5959460000000  0.5238530000000 1.0
C      1  0.5141550000000  0.5298250000000  0.6037050000000 1.0
C      1  0.4948500000000  0.5595220000000  0.5695340000000 1.0
C      1  0.4963500000000  0.5964280000000  0.4763150000000 1.0
C      1  0.5008680000000  0.5254040000000  0.4057400000000 1.0
C      1  0.4965570000000  0.4395290000000  0.4306250000000 1.0
C      1  0.4972800000000  0.4021410000000  0.5228580000000 1.0
C      1  0.4993730000000  0.4732750000000  0.5930530000000 1.0
C      1  0.5652340000000  0.4389470000000  0.5310450000000 1.0
C      1  0.5668840000000  0.4376380000000  0.4626560000000 1.0
C      1  0.5668120000000  0.5037370000000  0.4406610000000 1.0
C      1  0.5639740000000  0.5595030000000  0.4696080000000 1.0
C      1  0.5639900000000  0.5599700000000  0.5364950000000 1.0
C      1  0.5685260000000  0.4974480000000  0.5668500000000 1.0
C      1  0.4302090000000  0.5602940000000  0.5287010000000 1.0
C      1  0.4321520000000  0.5568990000000  0.4629070000000 1.0
C      1  0.4343600000000  0.5007130000000  0.4349450000000 1.0
C      1  0.4336700000000  0.4435850000000  0.4699700000000 1.0
C      1  0.4339810000000  0.4445170000000  0.5329960000000 1.0
C      1  0.4300310000000  0.4998850000000  0.5665220000000 1.0
C      1  0.4077290000000  0.4547280000000  0.4734180000000 1.0
C      1  0.4089980000000  0.5012910000000  0.4463940000000 1.0
C      1  0.4049700000000  0.5477640000000  0.4684880000000 1.0
C      1  0.4034310000000  0.5517630000000  0.5217140000000 1.0
C      1  0.4055110000000  0.5019390000000  0.5524850000000 1.0
C      1  0.4070170000000  0.4540330000000  0.5269360000000 1.0
C      1  0.5924480000000  0.5514740000000  0.4743580000000 1.0
C      1  0.5958030000000  0.5045280000000  0.4421010000000 1.0
C      1  0.5912680000000  0.4538560000000  0.4679140000000 1.0
C      1  0.5932370000000  0.4472550000000  0.5254810000000 1.0
C      1  0.5951030000000  0.4976750000000  0.5547260000000 1.0
C      1  0.5889580000000  0.5457570000000  0.5297640000000 1.0
C      1  0.4973730000000  0.3869590000000  0.4995950000000 1.0
C      1  0.4961520000000  0.6105040000000  0.5001970000000 1.0
C      1  0.4948590000000  0.5334230000000  0.5830760000000 1.0
C      1  0.4992460000000  0.4456560000000  0.5953330000000 1.0
C      1  0.5008870000000  0.5530680000000  0.4031870000000 1.0
C      1  0.4957840000000  0.4656830000000  0.4170110000000 1.0
C      1  0.5180460000000  0.5017310000000  0.5090950000000 1.0
END
