TITL C-3578208-4450-225 3.05801737048304e-07 125000 -172.379657026369 0 0 29 (C1) n - 1
REM
REM in /home/bkarasulu/work/CARBON/AIRSS/Generating-Clusters/EDIP-Nigel-Params/with-SteepDescent/Higher-Symm/SD-CG/HFTN-CG
REM
REM
REM
REM
REM
REM ./C.cell (12c818d87b63d06a65506943cc24bca4)
REM
REM compiler GCC version 9.2.1 20190827 (Red Hat 9.2.1-1)
REM options -cpp -mtune=generic -march=x86-64 -g -O0 -fpre-include=/usr/include/finclude/math-vector-fortran.h
REM seed 1327268268 1923526520 1762687692 -155300288 253780265 -659787405 -896168098 419216785 1648643436 -2082192495 1111260498 60857430 -1870885083 -329407308 2037575699 1403697371 537718234 -1903087829 1313188464 457040077 1558839432 2030431349 -2097651763 2055022956 728089690 -1172196741 -1392564282 -808005784 620949725 1014641100 -1861691752 -65635851 1426432856
REM
CELL 1.54180   50.00000   50.00000   50.00000   90.00000   90.00000   90.00000
LATT -1
SFAC C  
C      1  0.4485830000000  0.4845200000000  0.5073820000000 1.0
C      1  0.4842820000000  0.4740360000000  0.4573790000000 1.0
C      1  0.5250050000000  0.4747880000000  0.4852580000000 1.0
C      1  0.5639250000000  0.4904270000000  0.5380170000000 1.0
C      1  0.4863740000000  0.4722630000000  0.5349750000000 1.0
C      1  0.4535130000000  0.5286250000000  0.5039030000000 1.0
C      1  0.4898300000000  0.5211070000000  0.4556020000000 1.0
C      1  0.5275800000000  0.5230710000000  0.4852120000000 1.0
C      1  0.5552710000000  0.5339950000000  0.5383530000000 1.0
C      1  0.4937290000000  0.5159340000000  0.5334980000000 1.0
C      1  0.5690370000000  0.5279990000000  0.5150630000000 1.0
C      1  0.5204650000000  0.5003920000000  0.5319170000000 1.0
C      1  0.4410950000000  0.5264050000000  0.5293770000000 1.0
C      1  0.4613050000000  0.5148550000000  0.4555870000000 1.0
C      1  0.5346250000000  0.5140870000000  0.4586730000000 1.0
C      1  0.5631830000000  0.5002840000000  0.5104840000000 1.0
C      1  0.5140930000000  0.4727550000000  0.5395800000000 1.0
C      1  0.4464710000000  0.4986570000000  0.5352850000000 1.0
C      1  0.4581190000000  0.4867590000000  0.4583520000000 1.0
C      1  0.5313100000000  0.4852730000000  0.4577520000000 1.0
C      1  0.4740530000000  0.4967130000000  0.5480600000000 1.0
C      1  0.5444440000000  0.5098540000000  0.5488740000000 1.0
C      1  0.4418290000000  0.5062340000000  0.4873770000000 1.0
C      1  0.5036430000000  0.4945140000000  0.4452780000000 1.0
C      1  0.5334150000000  0.4991820000000  0.5029710000000 1.0
C      1  0.4790530000000  0.4818940000000  0.5065440000000 1.0
C      1  0.4816910000000  0.5164630000000  0.5054110000000 1.0
C      1  0.4989200000000  0.5283570000000  0.4832680000000 1.0
C      1  0.4952340000000  0.4681190000000  0.4844360000000 1.0
END
