TITL C-3577080-309-193 1.08472133776911e-06 125000 -986.066165340546 0 0 157 (C1) n - 1
REM
REM in /home/bkarasulu/work/CARBON/AIRSS/Generating-Clusters/EDIP-Nigel-Params/with-SteepDescent/Higher-Symm/SD-CG/HFTN-CG
REM
REM
REM
REM
REM
REM ./C.cell (12c818d87b63d06a65506943cc24bca4)
REM
REM compiler GCC version 9.2.1 20190827 (Red Hat 9.2.1-1)
REM options -cpp -mtune=generic -march=x86-64 -g -O0 -fpre-include=/usr/include/finclude/math-vector-fortran.h
REM seed 611330176 -2082997561 -97621102 1848833817 1918890258 1977955935 -463228989 212609763 447541290 951264821 -15937567 -1706447677 -577643754 47305229 -2001322321 -913225253 712335542 -1458737748 -1400256730 -709381635 1401331727 378752878 1573749126 -1817696312 -292318767 -1273170274 -671715032 -91340476 -129836111 651572990 -1664561112 1534384784 1649641350
REM
CELL 1.54180   50.00000   50.00000   50.00000   90.00000   90.00000   90.00000
LATT -1
SFAC C  
C      1  0.5399740000000  0.4783820000000  0.5823890000000 1.0
C      1  0.5386810000000  0.4410970000000  0.4378200000000 1.0
C      1  0.5420440000000  0.5813040000000  0.4774650000000 1.0
C      1  0.5128970000000  0.5880800000000  0.5188100000000 1.0
C      1  0.5106390000000  0.4397240000000  0.5666980000000 1.0
C      1  0.5086960000000  0.4739120000000  0.4137220000000 1.0
C      1  0.4769080000000  0.4874690000000  0.4767110000000 1.0
C      1  0.4785490000000  0.5281060000000  0.5008010000000 1.0
C      1  0.4774390000000  0.4862280000000  0.5234160000000 1.0
C      1  0.5541120000000  0.5139220000000  0.4336200000000 1.0
C      1  0.5554290000000  0.5499230000000  0.5465200000000 1.0
C      1  0.5555000000000  0.4355980000000  0.5215860000000 1.0
C      1  0.4281390000000  0.5030600000000  0.5138130000000 1.0
C      1  0.4284210000000  0.4787800000000  0.4975940000000 1.0
C      1  0.4281500000000  0.5224480000000  0.4910920000000 1.0
C      1  0.5258070000000  0.4226990000000  0.4169760000000 1.0
C      1  0.5297180000000  0.6088910000000  0.4719230000000 1.0
C      1  0.5270690000000  0.4688540000000  0.6084690000000 1.0
C      1  0.5880790000000  0.4612270000000  0.5418380000000 1.0
C      1  0.5912020000000  0.4884720000000  0.4485520000000 1.0
C      1  0.5877110000000  0.5525840000000  0.5132770000000 1.0
C      1  0.4707730000000  0.5129930000000  0.4043630000000 1.0
C      1  0.4736560000000  0.5790380000000  0.5593200000000 1.0
C      1  0.4730270000000  0.4101340000000  0.5376690000000 1.0
C      1  0.5233880000000  0.5766330000000  0.4313050000000 1.0
C      1  0.5226140000000  0.5210460000000  0.6010710000000 1.0
C      1  0.5241620000000  0.4029150000000  0.4665990000000 1.0
C      1  0.5129750000000  0.5304320000000  0.4178030000000 1.0
C      1  0.5134210000000  0.5570030000000  0.5677610000000 1.0
C      1  0.5138320000000  0.4133500000000  0.5151370000000 1.0
C      1  0.5268470000000  0.4814590000000  0.4624920000000 1.0
C      1  0.5285090000000  0.5413390000000  0.5029650000000 1.0
C      1  0.5269850000000  0.4772030000000  0.5350630000000 1.0
C      1  0.3892030000000  0.5359990000000  0.5104200000000 1.0
C      1  0.3925880000000  0.4677320000000  0.5279040000000 1.0
C      1  0.3957780000000  0.4893600000000  0.4632440000000 1.0
C      1  0.4228680000000  0.4436470000000  0.4617640000000 1.0
C      1  0.4235110000000  0.5609940000000  0.4691880000000 1.0
C      1  0.4218610000000  0.4946010000000  0.5611460000000 1.0
C      1  0.5163260000000  0.5855500000000  0.5506510000000 1.0
C      1  0.5154180000000  0.4133730000000  0.5485580000000 1.0
C      1  0.5134300000000  0.5027330000000  0.4004270000000 1.0
C      1  0.5513390000000  0.5661390000000  0.4222120000000 1.0
C      1  0.5505940000000  0.5340700000000  0.5961370000000 1.0
C      1  0.5527590000000  0.4044830000000  0.4816790000000 1.0
C      1  0.5431070000000  0.5032460000000  0.5322390000000 1.0
C      1  0.5430560000000  0.4705210000000  0.4870740000000 1.0
C      1  0.5437650000000  0.5244460000000  0.4819120000000 1.0
C      1  0.5736280000000  0.5197890000000  0.4821790000000 1.0
C      1  0.5726890000000  0.5045920000000  0.5289330000000 1.0
C      1  0.5731250000000  0.4707670000000  0.4920200000000 1.0
C      1  0.4649160000000  0.5379540000000  0.4133620000000 1.0
C      1  0.4653840000000  0.5575630000000  0.5754290000000 1.0
C      1  0.4672490000000  0.4048750000000  0.5116300000000 1.0
C      1  0.4987740000000  0.4717380000000  0.4654620000000 1.0
C      1  0.5007100000000  0.5449860000000  0.4928970000000 1.0
C      1  0.4991020000000  0.4847610000000  0.5426670000000 1.0
C      1  0.5898740000000  0.5649030000000  0.4867010000000 1.0
C      1  0.5891150000000  0.4757640000000  0.5668390000000 1.0
C      1  0.5819680000000  0.4637020000000  0.4377500000000 1.0
C      1  0.5032610000000  0.5443080000000  0.5948410000000 1.0
C      1  0.5050030000000  0.3963480000000  0.4899190000000 1.0
C      1  0.5033600000000  0.5601100000000  0.4147820000000 1.0
C      1  0.5821690000000  0.5248330000000  0.5088720000000 1.0
C      1  0.5805080000000  0.4783580000000  0.5201810000000 1.0
C      1  0.5831010000000  0.4924050000000  0.4758510000000 1.0
C      1  0.5311140000000  0.5114070000000  0.4581430000000 1.0
C      1  0.5317600000000  0.5305880000000  0.5316550000000 1.0
C      1  0.5307950000000  0.4580880000000  0.5111950000000 1.0
C      1  0.3771510000000  0.4912490000000  0.5278050000000 1.0
C      1  0.3811450000000  0.4755220000000  0.4824460000000 1.0
C      1  0.3784410000000  0.5283070000000  0.4860000000000 1.0
C      1  0.5364940000000  0.5712580000000  0.5065240000000 1.0
C      1  0.5343680000000  0.4587930000000  0.5590050000000 1.0
C      1  0.5324310000000  0.4706490000000  0.4335450000000 1.0
C      1  0.4770750000000  0.4026980000000  0.4855030000000 1.0
C      1  0.4759130000000  0.5614620000000  0.4238150000000 1.0
C      1  0.4755550000000  0.5368220000000  0.5915760000000 1.0
C      1  0.4561460000000  0.5296320000000  0.4794500000000 1.0
C      1  0.4544070000000  0.5052900000000  0.5331490000000 1.0
C      1  0.4551040000000  0.4673220000000  0.4879360000000 1.0
C      1  0.5839880000000  0.5167640000000  0.4389020000000 1.0
C      1  0.5847420000000  0.5424750000000  0.5491260000000 1.0
C      1  0.5851580000000  0.4346700000000  0.5155640000000 1.0
C      1  0.5436970000000  0.5938990000000  0.5500170000000 1.0
C      1  0.5424500000000  0.4102260000000  0.5572330000000 1.0
C      1  0.5404070000000  0.4968110000000  0.3929860000000 1.0
C      1  0.4150020000000  0.4711770000000  0.4508600000000 1.0
C      1  0.4121330000000  0.5543040000000  0.5056470000000 1.0
C      1  0.4141580000000  0.4692160000000  0.5478180000000 1.0
C      1  0.4241320000000  0.5587230000000  0.5325980000000 1.0
C      1  0.4190490000000  0.4333260000000  0.5358230000000 1.0
C      1  0.4173850000000  0.5009740000000  0.4266730000000 1.0
C      1  0.5102730000000  0.4929510000000  0.6165890000000 1.0
C      1  0.5095780000000  0.4039660000000  0.4345780000000 1.0
C      1  0.5120490000000  0.6039020000000  0.4474780000000 1.0
C      1  0.5716290000000  0.5716990000000  0.4413930000000 1.0
C      1  0.5723620000000  0.5151730000000  0.5897170000000 1.0
C      1  0.5731880000000  0.4257060000000  0.4689160000000 1.0
C      1  0.5068780000000  0.4392690000000  0.4015220000000 1.0
C      1  0.5120220000000  0.6155230000000  0.4945980000000 1.0
C      1  0.5087330000000  0.4464160000000  0.6013690000000 1.0
C      1  0.4759340000000  0.5078550000000  0.5821950000000 1.0
C      1  0.4763660000000  0.4261720000000  0.4660130000000 1.0
C      1  0.4771380000000  0.5672030000000  0.4537830000000 1.0
C      1  0.5010630000000  0.5498430000000  0.4639500000000 1.0
C      1  0.4998610000000  0.5070680000000  0.5615880000000 1.0
C      1  0.5001760000000  0.4439250000000  0.4750710000000 1.0
C      1  0.4851230000000  0.6045510000000  0.4882890000000 1.0
C      1  0.4820580000000  0.4586470000000  0.5950510000000 1.0
C      1  0.4809570000000  0.4396160000000  0.4164530000000 1.0
C      1  0.4463680000000  0.4981960000000  0.4378830000000 1.0
C      1  0.4531400000000  0.5574080000000  0.5344150000000 1.0
C      1  0.4476100000000  0.4455680000000  0.5333120000000 1.0
C      1  0.4091260000000  0.4370780000000  0.4888050000000 1.0
C      1  0.4098320000000  0.5404250000000  0.4529010000000 1.0
C      1  0.4057550000000  0.5182310000000  0.5534760000000 1.0
C      1  0.5681590000000  0.4392330000000  0.4423440000000 1.0
C      1  0.5708190000000  0.5782490000000  0.4689420000000 1.0
C      1  0.5690110000000  0.4866150000000  0.5848030000000 1.0
C      1  0.4252410000000  0.4247270000000  0.5093370000000 1.0
C      1  0.4236580000000  0.5285840000000  0.4309620000000 1.0
C      1  0.4149440000000  0.5444020000000  0.5545960000000 1.0
C      1  0.4701210000000  0.5322280000000  0.5294330000000 1.0
C      1  0.4694730000000  0.4582160000000  0.5134560000000 1.0
C      1  0.4680600000000  0.5101280000000  0.4582010000000 1.0
C      1  0.4621450000000  0.4885350000000  0.4152640000000 1.0
C      1  0.4661350000000  0.5841680000000  0.5308690000000 1.0
C      1  0.4639130000000  0.4317320000000  0.5534690000000 1.0
C      1  0.4022120000000  0.5186770000000  0.4718030000000 1.0
C      1  0.3980090000000  0.5117660000000  0.5261440000000 1.0
C      1  0.4022220000000  0.4640880000000  0.4992300000000 1.0
C      1  0.5531910000000  0.4357970000000  0.5511890000000 1.0
C      1  0.5513800000000  0.4887750000000  0.4179720000000 1.0
C      1  0.5545650000000  0.5755110000000  0.5312530000000 1.0
C      1  0.5037750000000  0.4428260000000  0.5058560000000 1.0
C      1  0.5033060000000  0.5235040000000  0.4481600000000 1.0
C      1  0.5043390000000  0.5338730000000  0.5469560000000 1.0
C      1  0.5436460000000  0.5536750000000  0.5737650000000 1.0
C      1  0.5441490000000  0.4108720000000  0.5100420000000 1.0
C      1  0.5434840000000  0.5368560000000  0.4175140000000 1.0
C      1  0.4825190000000  0.4509580000000  0.5655820000000 1.0
C      1  0.4811920000000  0.4688170000000  0.4251050000000 1.0
C      1  0.4849710000000  0.5829730000000  0.5088230000000 1.0
C      1  0.4826340000000  0.4175440000000  0.4371400000000 1.0
C      1  0.4849570000000  0.5966540000000  0.4592000000000 1.0
C      1  0.4832800000000  0.4876740000000  0.6041640000000 1.0
C      1  0.5262100000000  0.5635790000000  0.4584110000000 1.0
C      1  0.5248390000000  0.5040300000000  0.5764640000000 1.0
C      1  0.5248740000000  0.4331460000000  0.4636780000000 1.0
C      1  0.4526290000000  0.5571780000000  0.4694760000000 1.0
C      1  0.4494530000000  0.4997470000000  0.5699770000000 1.0
C      1  0.4519960000000  0.4448050000000  0.4688190000000 1.0
C      1  0.5871060000000  0.5131130000000  0.5546920000000 1.0
C      1  0.5870320000000  0.4438180000000  0.4880670000000 1.0
C      1  0.5876030000000  0.5361640000000  0.4612950000000 1.0
C      1  0.4874420000000  0.5004630000000  0.5001620000000 1.0
END
