TITL C-3577091-527-8 -1.59430128216478e-06 125000 -877.307883240978 0 0 141 (C1) n - 1
REM
REM in /home/bkarasulu/work/CARBON/AIRSS/Generating-Clusters/EDIP-Nigel-Params/with-SteepDescent/Higher-Symm/SD-CG/HFTN-CG
REM
REM
REM
REM
REM
REM ./C.cell (12c818d87b63d06a65506943cc24bca4)
REM
REM compiler GCC version 9.2.1 20190827 (Red Hat 9.2.1-1)
REM options -cpp -mtune=generic -march=x86-64 -g -O0 -fpre-include=/usr/include/finclude/math-vector-fortran.h
REM seed 1203450028 1529725305 -1698867877 -1560509193 -1951747727 -1449201579 112696368 1873206892 635886902 -354673073 732024946 1967534329 533072333 -1323172850 -2050148267 1495113513 -131124189 -1173297425 -386328331 -12416564 -560722667 185335101 652573024 -691287964 -700567364 270666789 458588528 -757188712 748347423 1696171638 632333648 -1026892994 883250025
REM
CELL 1.54180   50.00000   50.00000   50.00000   90.00000   90.00000   90.00000
LATT -1
SFAC C  
C      1  0.5880480000000  0.4772530000000  0.5201660000000 1.0
C      1  0.5333370000000  0.4896280000000  0.4516240000000 1.0
C      1  0.4577340000000  0.4855990000000  0.4232630000000 1.0
C      1  0.4916140000000  0.5141070000000  0.5339520000000 1.0
C      1  0.5006130000000  0.5185290000000  0.4108550000000 1.0
C      1  0.4843730000000  0.5663900000000  0.5646010000000 1.0
C      1  0.5071750000000  0.4022590000000  0.5190270000000 1.0
C      1  0.4242060000000  0.5611970000000  0.4763090000000 1.0
C      1  0.4865350000000  0.4452880000000  0.5033210000000 1.0
C      1  0.5509450000000  0.5149190000000  0.4865350000000 1.0
C      1  0.4894000000000  0.4154330000000  0.4716190000000 1.0
C      1  0.4009200000000  0.5280540000000  0.5069940000000 1.0
C      1  0.4962270000000  0.5381960000000  0.4577600000000 1.0
C      1  0.4422710000000  0.5165960000000  0.5159550000000 1.0
C      1  0.5537590000000  0.4567420000000  0.5823430000000 1.0
C      1  0.5294900000000  0.5429600000000  0.5879330000000 1.0
C      1  0.4557220000000  0.5418650000000  0.4264590000000 1.0
C      1  0.5576280000000  0.4472310000000  0.5519130000000 1.0
C      1  0.4856010000000  0.4184330000000  0.5319970000000 1.0
C      1  0.4910320000000  0.4587940000000  0.4112750000000 1.0
C      1  0.5820200000000  0.4456040000000  0.4842220000000 1.0
C      1  0.5443360000000  0.5159460000000  0.5905250000000 1.0
C      1  0.5616910000000  0.5874610000000  0.5165540000000 1.0
C      1  0.5042020000000  0.5845600000000  0.4511910000000 1.0
C      1  0.5580780000000  0.5800590000000  0.4691280000000 1.0
C      1  0.5917220000000  0.5056290000000  0.5294620000000 1.0
C      1  0.5191780000000  0.4599540000000  0.4221640000000 1.0
C      1  0.4762900000000  0.4437960000000  0.4358340000000 1.0
C      1  0.5373940000000  0.5640950000000  0.5496510000000 1.0
C      1  0.5531610000000  0.4096910000000  0.5071410000000 1.0
C      1  0.5333830000000  0.4583240000000  0.5104170000000 1.0
C      1  0.5319200000000  0.5091460000000  0.4163430000000 1.0
C      1  0.4387750000000  0.5611350000000  0.5254070000000 1.0
C      1  0.4655200000000  0.4608130000000  0.4821250000000 1.0
C      1  0.4643540000000  0.5275160000000  0.5383400000000 1.0
C      1  0.5224780000000  0.4824200000000  0.5602340000000 1.0
C      1  0.4694360000000  0.4767900000000  0.5911330000000 1.0
C      1  0.5618160000000  0.4471680000000  0.4628360000000 1.0
C      1  0.4218360000000  0.5178650000000  0.4661610000000 1.0
C      1  0.4039450000000  0.5046230000000  0.4864990000000 1.0
C      1  0.4119130000000  0.4897520000000  0.5670900000000 1.0
C      1  0.5398790000000  0.5573400000000  0.4734530000000 1.0
C      1  0.5083010000000  0.4405760000000  0.5764980000000 1.0
C      1  0.5164980000000  0.4533440000000  0.4872610000000 1.0
C      1  0.5542490000000  0.5401630000000  0.4183740000000 1.0
C      1  0.4961990000000  0.5902490000000  0.4794870000000 1.0
C      1  0.4333830000000  0.5548000000000  0.5536170000000 1.0
C      1  0.4601090000000  0.4173230000000  0.4742170000000 1.0
C      1  0.4632870000000  0.5786730000000  0.5192100000000 1.0
C      1  0.4497060000000  0.4306490000000  0.4495100000000 1.0
C      1  0.4588690000000  0.4283550000000  0.5705350000000 1.0
C      1  0.4047470000000  0.4934090000000  0.5394670000000 1.0
C      1  0.4304190000000  0.4662850000000  0.5643600000000 1.0
C      1  0.4158230000000  0.4748460000000  0.4954530000000 1.0
C      1  0.5422490000000  0.5189140000000  0.5468300000000 1.0
C      1  0.4194000000000  0.5522150000000  0.5041620000000 1.0
C      1  0.5938430000000  0.5277920000000  0.5082400000000 1.0
C      1  0.4416180000000  0.4189710000000  0.5471630000000 1.0
C      1  0.4964490000000  0.4231560000000  0.4441610000000 1.0
C      1  0.5354620000000  0.5415640000000  0.5278800000000 1.0
C      1  0.5946350000000  0.5188890000000  0.4796960000000 1.0
C      1  0.5457580000000  0.5629170000000  0.5767660000000 1.0
C      1  0.4450360000000  0.4669260000000  0.5363200000000 1.0
C      1  0.5226890000000  0.4350270000000  0.4395700000000 1.0
C      1  0.4494580000000  0.5111640000000  0.5594630000000 1.0
C      1  0.4988140000000  0.5118910000000  0.4409580000000 1.0
C      1  0.4872420000000  0.5217220000000  0.5895410000000 1.0
C      1  0.4802090000000  0.4656170000000  0.4563060000000 1.0
C      1  0.5806220000000  0.5036160000000  0.4244010000000 1.0
C      1  0.5080190000000  0.5344790000000  0.5195360000000 1.0
C      1  0.5006690000000  0.5455560000000  0.5801880000000 1.0
C      1  0.5479250000000  0.5964590000000  0.4924780000000 1.0
C      1  0.5070450000000  0.5082890000000  0.5590410000000 1.0
C      1  0.4768480000000  0.4826730000000  0.4017160000000 1.0
C      1  0.5091450000000  0.4014710000000  0.4888410000000 1.0
C      1  0.5836530000000  0.5653560000000  0.4760210000000 1.0
C      1  0.5329620000000  0.4120270000000  0.5289980000000 1.0
C      1  0.4267910000000  0.4464970000000  0.4542740000000 1.0
C      1  0.5678890000000  0.4783280000000  0.4234000000000 1.0
C      1  0.5128030000000  0.5928180000000  0.5262720000000 1.0
C      1  0.5494630000000  0.4939530000000  0.5348870000000 1.0
C      1  0.5887480000000  0.5399520000000  0.4595770000000 1.0
C      1  0.4355530000000  0.4647860000000  0.4739110000000 1.0
C      1  0.5187360000000  0.5578420000000  0.4511640000000 1.0
C      1  0.5350080000000  0.4349810000000  0.4673160000000 1.0
C      1  0.4674730000000  0.4866850000000  0.4958870000000 1.0
C      1  0.4875750000000  0.5702520000000  0.4062430000000 1.0
C      1  0.5681510000000  0.5255210000000  0.4394790000000 1.0
C      1  0.4723760000000  0.5344640000000  0.4028300000000 1.0
C      1  0.4878190000000  0.5791220000000  0.5371840000000 1.0
C      1  0.4863350000000  0.4888970000000  0.5179000000000 1.0
C      1  0.4282130000000  0.4878160000000  0.5212990000000 1.0
C      1  0.5239720000000  0.5026220000000  0.4944150000000 1.0
C      1  0.5337210000000  0.4790190000000  0.5880730000000 1.0
C      1  0.5404410000000  0.5895500000000  0.5372290000000 1.0
C      1  0.3967470000000  0.5201100000000  0.5345900000000 1.0
C      1  0.5812580000000  0.4503610000000  0.5326740000000 1.0
C      1  0.4581620000000  0.4109160000000  0.5243100000000 1.0
C      1  0.5323580000000  0.4422480000000  0.5349190000000 1.0
C      1  0.4692070000000  0.5819450000000  0.4899160000000 1.0
C      1  0.4670770000000  0.5051590000000  0.4741840000000 1.0
C      1  0.4829540000000  0.4623420000000  0.5306160000000 1.0
C      1  0.5164410000000  0.4817800000000  0.4749240000000 1.0
C      1  0.4479930000000  0.4242560000000  0.5002900000000 1.0
C      1  0.5786390000000  0.5557100000000  0.5047580000000 1.0
C      1  0.5455020000000  0.5165130000000  0.4574060000000 1.0
C      1  0.5094670000000  0.4567690000000  0.5501820000000 1.0
C      1  0.4809990000000  0.5797800000000  0.4331440000000 1.0
C      1  0.5183900000000  0.5939390000000  0.4980860000000 1.0
C      1  0.4688690000000  0.5401440000000  0.5016120000000 1.0
C      1  0.4868820000000  0.4211480000000  0.5636830000000 1.0
C      1  0.4528800000000  0.5667670000000  0.4708570000000 1.0
C      1  0.4876750000000  0.4720340000000  0.6114040000000 1.0
C      1  0.4316480000000  0.5263910000000  0.4296280000000 1.0
C      1  0.4508250000000  0.4558660000000  0.5828190000000 1.0
C      1  0.5914550000000  0.4724070000000  0.4917370000000 1.0
C      1  0.4221460000000  0.4377810000000  0.5054820000000 1.0
C      1  0.4567140000000  0.5128890000000  0.3890240000000 1.0
C      1  0.4643660000000  0.5048830000000  0.5844500000000 1.0
C      1  0.5612580000000  0.4751040000000  0.4525170000000 1.0
C      1  0.5372540000000  0.4078290000000  0.4811580000000 1.0
C      1  0.5633650000000  0.5231620000000  0.5676010000000 1.0
C      1  0.5107070000000  0.5543680000000  0.4023250000000 1.0
C      1  0.5866220000000  0.5108770000000  0.5569830000000 1.0
C      1  0.4258640000000  0.4410640000000  0.5349860000000 1.0
C      1  0.5512580000000  0.5427920000000  0.4995700000000 1.0
C      1  0.4696830000000  0.5562490000000  0.4478880000000 1.0
C      1  0.5294420000000  0.5528990000000  0.4235690000000 1.0
C      1  0.5370310000000  0.4317340000000  0.5801220000000 1.0
C      1  0.4744800000000  0.4935080000000  0.4476790000000 1.0
C      1  0.5748640000000  0.4317660000000  0.5090890000000 1.0
C      1  0.5804450000000  0.4926050000000  0.4736200000000 1.0
C      1  0.4478000000000  0.5242700000000  0.4822700000000 1.0
C      1  0.4229260000000  0.5266840000000  0.5610050000000 1.0
C      1  0.4108660000000  0.5439450000000  0.4570640000000 1.0
C      1  0.4380520000000  0.5040180000000  0.4108730000000 1.0
C      1  0.5403390000000  0.4789780000000  0.4101500000000 1.0
C      1  0.5103950000000  0.4619490000000  0.5991880000000 1.0
C      1  0.4573610000000  0.5597020000000  0.5669530000000 1.0
C      1  0.5304350000000  0.4853810000000  0.5169080000000 1.0
C      1  0.4985340000000  0.5313510000000  0.4903730000000 1.0
END
