TITL C-3578202-4305-514 -1.19275201169748e-06 125000 -867.078103823359 0 0 139 (C1) n - 1
REM
REM in /home/bkarasulu/work/CARBON/AIRSS/Generating-Clusters/EDIP-Nigel-Params/with-SteepDescent/Higher-Symm/SD-CG/HFTN-CG
REM
REM
REM
REM
REM
REM ./C.cell (12c818d87b63d06a65506943cc24bca4)
REM
REM compiler GCC version 9.2.1 20190827 (Red Hat 9.2.1-1)
REM options -cpp -mtune=generic -march=x86-64 -g -O0 -fpre-include=/usr/include/finclude/math-vector-fortran.h
REM seed 272227980 1514183447 -536100715 368676431 -108927644 -1205289418 206386297 859965665 -1632469698 -863592904 2024263754 1672385913 28284725 36851871 -823867966 -784366844 -380929664 1354099052 -1104154028 1166519921 60908985 -1303179527 -1100702387 -197942268 -2053600423 73414175 496612282 195789569 695116574 1983754529 1344960010 -7483657 346949526
REM
CELL 1.54180   50.00000   50.00000   50.00000   90.00000   90.00000   90.00000
LATT -1
SFAC C  
C      1  0.4948210000000  0.4810450000000  0.5426740000000 1.0
C      1  0.4672080000000  0.4792720000000  0.4748700000000 1.0
C      1  0.5390080000000  0.4836610000000  0.4798330000000 1.0
C      1  0.4991990000000  0.4697490000000  0.4025650000000 1.0
C      1  0.5732210000000  0.4575700000000  0.5462450000000 1.0
C      1  0.4240170000000  0.4584660000000  0.5414860000000 1.0
C      1  0.4586960000000  0.5323660000000  0.4737600000000 1.0
C      1  0.5422670000000  0.5347590000000  0.4762140000000 1.0
C      1  0.4974400000000  0.5338860000000  0.5490150000000 1.0
C      1  0.4410430000000  0.5347390000000  0.4201350000000 1.0
C      1  0.5990500000000  0.5355500000000  0.4869910000000 1.0
C      1  0.4615840000000  0.5371430000000  0.5922870000000 1.0
C      1  0.5255670000000  0.3962480000000  0.4676940000000 1.0
C      1  0.5156900000000  0.4053310000000  0.5398980000000 1.0
C      1  0.4584580000000  0.4035620000000  0.4966460000000 1.0
C      1  0.4797760000000  0.5654070000000  0.5078250000000 1.0
C      1  0.5010230000000  0.5666660000000  0.4826780000000 1.0
C      1  0.5184630000000  0.5645540000000  0.5097090000000 1.0
C      1  0.4507030000000  0.5833190000000  0.4792730000000 1.0
C      1  0.5413450000000  0.5865680000000  0.4690020000000 1.0
C      1  0.5054530000000  0.5841960000000  0.5527870000000 1.0
C      1  0.5741060000000  0.5177840000000  0.5362270000000 1.0
C      1  0.4305570000000  0.5187060000000  0.5460900000000 1.0
C      1  0.4954020000000  0.5215550000000  0.4166080000000 1.0
C      1  0.5655250000000  0.5730950000000  0.5391440000000 1.0
C      1  0.4316390000000  0.5729750000000  0.5367160000000 1.0
C      1  0.5024880000000  0.5737780000000  0.4252520000000 1.0
C      1  0.4802920000000  0.4402350000000  0.5156480000000 1.0
C      1  0.5048020000000  0.4415780000000  0.4704450000000 1.0
C      1  0.5317140000000  0.4530990000000  0.5181140000000 1.0
C      1  0.4465640000000  0.4947510000000  0.5549020000000 1.0
C      1  0.4816900000000  0.4956940000000  0.4258870000000 1.0
C      1  0.5719400000000  0.4922220000000  0.5196120000000 1.0
C      1  0.5603700000000  0.5085720000000  0.4704440000000 1.0
C      1  0.4929470000000  0.5077600000000  0.5674380000000 1.0
C      1  0.4459330000000  0.5056870000000  0.4603680000000 1.0
C      1  0.5714240000000  0.4569170000000  0.4657050000000 1.0
C      1  0.4898460000000  0.4602740000000  0.5815170000000 1.0
C      1  0.4349520000000  0.4593150000000  0.4523820000000 1.0
C      1  0.4921890000000  0.4211640000000  0.4394520000000 1.0
C      1  0.5620630000000  0.4087810000000  0.5196400000000 1.0
C      1  0.4461030000000  0.4172020000000  0.5434510000000 1.0
C      1  0.5110210000000  0.5925570000000  0.4713820000000 1.0
C      1  0.5196370000000  0.5900980000000  0.5258870000000 1.0
C      1  0.4661130000000  0.5914020000000  0.5048860000000 1.0
C      1  0.5753740000000  0.4251780000000  0.4994330000000 1.0
C      1  0.4598500000000  0.4304840000000  0.5649890000000 1.0
C      1  0.4640600000000  0.4290600000000  0.4366000000000 1.0
C      1  0.4188720000000  0.5062670000000  0.5221690000000 1.0
C      1  0.5222460000000  0.5109410000000  0.4177460000000 1.0
C      1  0.5604420000000  0.5065450000000  0.5595890000000 1.0
C      1  0.5211850000000  0.3900440000000  0.4956300000000 1.0
C      1  0.4898810000000  0.4046870000000  0.5281690000000 1.0
C      1  0.4845860000000  0.3961780000000  0.4850250000000 1.0
C      1  0.4717640000000  0.5435450000000  0.5320040000000 1.0
C      1  0.4862730000000  0.5423160000000  0.4602620000000 1.0
C      1  0.5420580000000  0.5431760000000  0.5065790000000 1.0
C      1  0.5319270000000  0.4496800000000  0.4845920000000 1.0
C      1  0.5036230000000  0.4527620000000  0.5321170000000 1.0
C      1  0.4798210000000  0.4503300000000  0.4856230000000 1.0
C      1  0.5954580000000  0.4630670000000  0.4816180000000 1.0
C      1  0.4649850000000  0.4655150000000  0.5959200000000 1.0
C      1  0.4326760000000  0.4619980000000  0.4236430000000 1.0
C      1  0.4494960000000  0.5798800000000  0.4296900000000 1.0
C      1  0.5850330000000  0.5798460000000  0.4922200000000 1.0
C      1  0.4625030000000  0.5812290000000  0.5788660000000 1.0
C      1  0.5946530000000  0.4631080000000  0.5283790000000 1.0
C      1  0.4282730000000  0.4711040000000  0.5676810000000 1.0
C      1  0.4699020000000  0.4738030000000  0.4031280000000 1.0
C      1  0.4706650000000  0.5121650000000  0.5867910000000 1.0
C      1  0.4411060000000  0.5095180000000  0.4306900000000 1.0
C      1  0.5867690000000  0.5113580000000  0.4832510000000 1.0
C      1  0.4523130000000  0.4913710000000  0.5929940000000 1.0
C      1  0.4350420000000  0.4882920000000  0.4129580000000 1.0
C      1  0.5995160000000  0.4887730000000  0.4931820000000 1.0
C      1  0.5589570000000  0.5903790000000  0.4940640000000 1.0
C      1  0.4746350000000  0.5874520000000  0.5542940000000 1.0
C      1  0.4647150000000  0.5865640000000  0.4523980000000 1.0
C      1  0.4864980000000  0.5478850000000  0.4295810000000 1.0
C      1  0.5686320000000  0.5466000000000  0.5227990000000 1.0
C      1  0.4448050000000  0.5471190000000  0.5475850000000 1.0
C      1  0.4052420000000  0.5249430000000  0.5039730000000 1.0
C      1  0.5454330000000  0.5286280000000  0.4161550000000 1.0
C      1  0.5509210000000  0.5258920000000  0.5796440000000 1.0
C      1  0.5638930000000  0.4708160000000  0.4408350000000 1.0
C      1  0.5162140000000  0.4706190000000  0.5875070000000 1.0
C      1  0.4165840000000  0.4696960000000  0.4716510000000 1.0
C      1  0.5428270000000  0.5557240000000  0.4282560000000 1.0
C      1  0.5412880000000  0.5519190000000  0.5693200000000 1.0
C      1  0.4182610000000  0.5512800000000  0.5006590000000 1.0
C      1  0.4523940000000  0.4519270000000  0.5272060000000 1.0
C      1  0.5057200000000  0.4572540000000  0.4443280000000 1.0
C      1  0.5506110000000  0.4395710000000  0.5388880000000 1.0
C      1  0.5335550000000  0.4046040000000  0.5172400000000 1.0
C      1  0.4617810000000  0.4012340000000  0.5256820000000 1.0
C      1  0.4976360000000  0.3996070000000  0.4592460000000 1.0
C      1  0.4187550000000  0.4983590000000  0.4712190000000 1.0
C      1  0.5668710000000  0.4999380000000  0.4424410000000 1.0
C      1  0.5159100000000  0.4993130000000  0.5848090000000 1.0
C      1  0.4220560000000  0.4580120000000  0.4975060000000 1.0
C      1  0.5394860000000  0.4629970000000  0.4275400000000 1.0
C      1  0.5379200000000  0.4574380000000  0.5725210000000 1.0
C      1  0.5898220000000  0.5549430000000  0.5035800000000 1.0
C      1  0.4516510000000  0.5558670000000  0.5754830000000 1.0
C      1  0.4589130000000  0.5551600000000  0.4214290000000 1.0
C      1  0.4651840000000  0.4815650000000  0.5311620000000 1.0
C      1  0.4918700000000  0.4830670000000  0.4533720000000 1.0
C      1  0.5407280000000  0.4829810000000  0.5126270000000 1.0
C      1  0.5672070000000  0.4285930000000  0.4711480000000 1.0
C      1  0.4888390000000  0.4347110000000  0.5695680000000 1.0
C      1  0.4472660000000  0.4352040000000  0.4599280000000 1.0
C      1  0.4558360000000  0.4467510000000  0.4136910000000 1.0
C      1  0.5966560000000  0.4452860000000  0.5050560000000 1.0
C      1  0.4447210000000  0.4491790000000  0.5823640000000 1.0
C      1  0.5126000000000  0.5564580000000  0.5631830000000 1.0
C      1  0.4388970000000  0.5552430000000  0.4799170000000 1.0
C      1  0.5468640000000  0.5586770000000  0.4574970000000 1.0
C      1  0.5497120000000  0.5929930000000  0.5229220000000 1.0
C      1  0.4541840000000  0.5924740000000  0.5323560000000 1.0
C      1  0.4937950000000  0.5927280000000  0.4468350000000 1.0
C      1  0.5122800000000  0.5246130000000  0.4737680000000 1.0
C      1  0.5148230000000  0.5239960000000  0.5252700000000 1.0
C      1  0.4698570000000  0.5227000000000  0.5013600000000 1.0
C      1  0.5175010000000  0.4955660000000  0.5272200000000 1.0
C      1  0.4657610000000  0.4938050000000  0.5030180000000 1.0
C      1  0.5138560000000  0.4963030000000  0.4682290000000 1.0
C      1  0.5234250000000  0.4818160000000  0.4120980000000 1.0
C      1  0.5607570000000  0.4766220000000  0.5647700000000 1.0
C      1  0.4139590000000  0.4760300000000  0.5202380000000 1.0
C      1  0.5339030000000  0.5152160000000  0.5991680000000 1.0
C      1  0.3971030000000  0.5140840000000  0.4794810000000 1.0
C      1  0.5700840000000  0.5160670000000  0.4197580000000 1.0
C      1  0.4109660000000  0.5725110000000  0.5176080000000 1.0
C      1  0.5284320000000  0.5755950000000  0.4145930000000 1.0
C      1  0.5598360000000  0.5728490000000  0.5667080000000 1.0
C      1  0.4465860000000  0.4305050000000  0.4894290000000 1.0
C      1  0.5417700000000  0.4193060000000  0.4624390000000 1.0
C      1  0.5159410000000  0.4274970000000  0.5594030000000 1.0
C      1  0.4992150000000  0.5259440000000  0.5004830000000 1.0
END
