TITL C-3577076-40-589 3.89755637370974e-07 125000 -899.330443181041 0 0 144 (C1) n - 1
REM
REM in /home/bkarasulu/work/CARBON/AIRSS/Generating-Clusters/EDIP-Nigel-Params/with-SteepDescent/Higher-Symm/SD-CG/HFTN-CG
REM
REM
REM
REM
REM
REM ./C.cell (12c818d87b63d06a65506943cc24bca4)
REM
REM compiler GCC version 9.2.1 20190827 (Red Hat 9.2.1-1)
REM options -cpp -mtune=generic -march=x86-64 -g -O0 -fpre-include=/usr/include/finclude/math-vector-fortran.h
REM seed -144223906 108753652 507103834 -313021579 91586902 -181168469 -1812938031 1507621597 533009797 550407029 687931974 588481296 429736478 489408332 -1342195011 761118814 -1880995432 104837292 -1437908761 1273190659 -1204185612 1392330667 -232639948 -376178082 -869901368 64975150 -1435141595 -483470254 1711934929 -1327650510 -55439480 862885908 529127576
REM
CELL 1.54180   50.00000   50.00000   50.00000   90.00000   90.00000   90.00000
LATT -1
SFAC C  
C      1  0.4228180000000  0.4688020000000  0.5120710000000 1.0
C      1  0.4213960000000  0.5033170000000  0.4616110000000 1.0
C      1  0.4204560000000  0.5277350000000  0.5265290000000 1.0
C      1  0.4591870000000  0.5551310000000  0.4359750000000 1.0
C      1  0.4609360000000  0.5271340000000  0.5813260000000 1.0
C      1  0.4585580000000  0.4231390000000  0.4837440000000 1.0
C      1  0.5548810000000  0.5321550000000  0.5915350000000 1.0
C      1  0.5529750000000  0.4054450000000  0.4796370000000 1.0
C      1  0.5536270000000  0.5601470000000  0.4316920000000 1.0
C      1  0.5429040000000  0.6016570000000  0.5181860000000 1.0
C      1  0.5446840000000  0.4357390000000  0.5770790000000 1.0
C      1  0.5472220000000  0.4657520000000  0.3973750000000 1.0
C      1  0.4720640000000  0.5644540000000  0.4895850000000 1.0
C      1  0.4722270000000  0.4805170000000  0.5655800000000 1.0
C      1  0.4729120000000  0.4505810000000  0.4459850000000 1.0
C      1  0.5755800000000  0.4816640000000  0.4656190000000 1.0
C      1  0.5757120000000  0.5364290000000  0.5040720000000 1.0
C      1  0.5763600000000  0.4829420000000  0.5277970000000 1.0
C      1  0.5057120000000  0.5361870000000  0.5910590000000 1.0
C      1  0.5048610000000  0.4065880000000  0.4834050000000 1.0
C      1  0.5070290000000  0.5575100000000  0.4276100000000 1.0
C      1  0.4866100000000  0.5227910000000  0.5530350000000 1.0
C      1  0.4843280000000  0.4502670000000  0.4951690000000 1.0
C      1  0.4761280000000  0.5317100000000  0.4600810000000 1.0
C      1  0.5103220000000  0.4491670000000  0.5125070000000 1.0
C      1  0.5177960000000  0.4956470000000  0.4480560000000 1.0
C      1  0.5151120000000  0.5368700000000  0.5480700000000 1.0
C      1  0.4471580000000  0.4876960000000  0.5048340000000 1.0
C      1  0.4466230000000  0.4983750000000  0.4765940000000 1.0
C      1  0.4457390000000  0.5093490000000  0.5272570000000 1.0
C      1  0.4723530000000  0.5777730000000  0.5166870000000 1.0
C      1  0.4723920000000  0.4492730000000  0.5612930000000 1.0
C      1  0.4732180000000  0.4696740000000  0.4205790000000 1.0
C      1  0.4820040000000  0.5176760000000  0.4145240000000 1.0
C      1  0.4781880000000  0.5669750000000  0.5642560000000 1.0
C      1  0.4804620000000  0.4167700000000  0.5253160000000 1.0
C      1  0.5799580000000  0.4317650000000  0.4835610000000 1.0
C      1  0.5821710000000  0.5450480000000  0.4510350000000 1.0
C      1  0.5815940000000  0.5223250000000  0.5659420000000 1.0
C      1  0.5628420000000  0.4678500000000  0.4420370000000 1.0
C      1  0.5630440000000  0.5634310000000  0.4991380000000 1.0
C      1  0.5627180000000  0.4710500000000  0.5518340000000 1.0
C      1  0.5123210000000  0.5979330000000  0.4809150000000 1.0
C      1  0.5153430000000  0.4678470000000  0.5979450000000 1.0
C      1  0.5211200000000  0.4297560000000  0.4162760000000 1.0
C      1  0.4083260000000  0.5286850000000  0.5000490000000 1.0
C      1  0.4044110000000  0.4845570000000  0.5288730000000 1.0
C      1  0.4034030000000  0.4820990000000  0.4701400000000 1.0
C      1  0.5904150000000  0.4605520000000  0.4814970000000 1.0
C      1  0.5903180000000  0.5298660000000  0.4762890000000 1.0
C      1  0.5926960000000  0.5074000000000  0.5408680000000 1.0
C      1  0.5605580000000  0.5068040000000  0.4206090000000 1.0
C      1  0.5590870000000  0.5654130000000  0.5467460000000 1.0
C      1  0.5575310000000  0.4298830000000  0.5301290000000 1.0
C      1  0.4369140000000  0.5901770000000  0.4634160000000 1.0
C      1  0.4353810000000  0.4878130000000  0.5993370000000 1.0
C      1  0.4332110000000  0.4202500000000  0.4392060000000 1.0
C      1  0.5062060000000  0.5843160000000  0.4391710000000 1.0
C      1  0.5045190000000  0.5110460000000  0.6064540000000 1.0
C      1  0.5029840000000  0.4050880000000  0.4537960000000 1.0
C      1  0.5012500000000  0.4747870000000  0.4072760000000 1.0
C      1  0.5001710000000  0.5844840000000  0.5262500000000 1.0
C      1  0.5013880000000  0.4386700000000  0.5608090000000 1.0
C      1  0.5250250000000  0.4585150000000  0.4146690000000 1.0
C      1  0.5214900000000  0.5857880000000  0.5064580000000 1.0
C      1  0.5230540000000  0.4545050000000  0.5725220000000 1.0
C      1  0.5304500000000  0.4015740000000  0.4975060000000 1.0
C      1  0.5321260000000  0.5479190000000  0.4166510000000 1.0
C      1  0.5320640000000  0.5496800000000  0.5869270000000 1.0
C      1  0.4950370000000  0.4925080000000  0.5189050000000 1.0
C      1  0.4947260000000  0.4880830000000  0.4647190000000 1.0
C      1  0.4881150000000  0.5220460000000  0.5061580000000 1.0
C      1  0.5468760000000  0.4213600000000  0.4564450000000 1.0
C      1  0.5450860000000  0.5676370000000  0.4589820000000 1.0
C      1  0.5469620000000  0.5044550000000  0.5867740000000 1.0
C      1  0.5088590000000  0.5033450000000  0.4169490000000 1.0
C      1  0.5060170000000  0.5701380000000  0.5520710000000 1.0
C      1  0.5076540000000  0.4271280000000  0.5330540000000 1.0
C      1  0.4300930000000  0.5560230000000  0.5363130000000 1.0
C      1  0.4336510000000  0.4455260000000  0.5292880000000 1.0
C      1  0.4309460000000  0.5000720000000  0.4313970000000 1.0
C      1  0.4282800000000  0.5728300000000  0.5119590000000 1.0
C      1  0.4292500000000  0.4590690000000  0.5553030000000 1.0
C      1  0.4288370000000  0.4704390000000  0.4291240000000 1.0
C      1  0.4585410000000  0.5828070000000  0.4456530000000 1.0
C      1  0.4583240000000  0.5049820000000  0.5994810000000 1.0
C      1  0.4550880000000  0.4116000000000  0.4560200000000 1.0
C      1  0.5330110000000  0.4760780000000  0.5517890000000 1.0
C      1  0.5325520000000  0.4680680000000  0.4427220000000 1.0
C      1  0.5331820000000  0.5570760000000  0.5006140000000 1.0
C      1  0.5628680000000  0.5821830000000  0.5225570000000 1.0
C      1  0.5626570000000  0.4420400000000  0.5562950000000 1.0
C      1  0.5657580000000  0.4784250000000  0.4146640000000 1.0
C      1  0.4450010000000  0.4450710000000  0.5771150000000 1.0
C      1  0.4469180000000  0.4578940000000  0.4082670000000 1.0
C      1  0.4475060000000  0.5966300000000  0.5125840000000 1.0
C      1  0.4699400000000  0.5290520000000  0.5293000000000 1.0
C      1  0.4736390000000  0.4745570000000  0.5089770000000 1.0
C      1  0.4703870000000  0.5034010000000  0.4589810000000 1.0
C      1  0.4436950000000  0.6056100000000  0.4860210000000 1.0
C      1  0.4407010000000  0.4605000000000  0.5999770000000 1.0
C      1  0.4413140000000  0.4306570000000  0.4142580000000 1.0
C      1  0.5355880000000  0.5705630000000  0.5658250000000 1.0
C      1  0.5337860000000  0.4114580000000  0.5259740000000 1.0
C      1  0.5350880000000  0.5191840000000  0.4095090000000 1.0
C      1  0.4627880000000  0.4398030000000  0.5336350000000 1.0
C      1  0.4629970000000  0.4988680000000  0.4299340000000 1.0
C      1  0.4614170000000  0.5577830000000  0.5378320000000 1.0
C      1  0.5217610000000  0.4489500000000  0.4619540000000 1.0
C      1  0.5236820000000  0.5441430000000  0.4736920000000 1.0
C      1  0.5286680000000  0.5040290000000  0.5632530000000 1.0
C      1  0.4792310000000  0.4075740000000  0.4977330000000 1.0
C      1  0.4816030000000  0.5466480000000  0.4190800000000 1.0
C      1  0.4791780000000  0.5486810000000  0.5872090000000 1.0
C      1  0.4437830000000  0.4606680000000  0.4539260000000 1.0
C      1  0.4424360000000  0.5555790000000  0.4909340000000 1.0
C      1  0.4424440000000  0.4878930000000  0.5553820000000 1.0
C      1  0.5281690000000  0.5918080000000  0.4570690000000 1.0
C      1  0.5275760000000  0.4931790000000  0.6063150000000 1.0
C      1  0.5264740000000  0.4122330000000  0.4379080000000 1.0
C      1  0.4935250000000  0.4589070000000  0.4671940000000 1.0
C      1  0.4908410000000  0.5416050000000  0.4829480000000 1.0
C      1  0.4929920000000  0.4950350000000  0.5494570000000 1.0
C      1  0.5841090000000  0.5202810000000  0.4336120000000 1.0
C      1  0.5832600000000  0.5489360000000  0.5524860000000 1.0
C      1  0.5815820000000  0.4318720000000  0.5135900000000 1.0
C      1  0.4206200000000  0.5050920000000  0.5687700000000 1.0
C      1  0.4270890000000  0.4424300000000  0.4704830000000 1.0
C      1  0.4273400000000  0.5530900000000  0.4661360000000 1.0
C      1  0.5525250000000  0.5200590000000  0.5173810000000 1.0
C      1  0.5510730000000  0.4921410000000  0.5104440000000 1.0
C      1  0.5529150000000  0.4945150000000  0.4809910000000 1.0
C      1  0.4839340000000  0.5909140000000  0.4562380000000 1.0
C      1  0.4835220000000  0.4905420000000  0.6013320000000 1.0
C      1  0.4789480000000  0.4134120000000  0.4408080000000 1.0
C      1  0.5220180000000  0.4762650000000  0.5211860000000 1.0
C      1  0.5345230000000  0.5139030000000  0.4663560000000 1.0
C      1  0.5277910000000  0.5346570000000  0.5204210000000 1.0
C      1  0.4094440000000  0.4599450000000  0.4865050000000 1.0
C      1  0.4109970000000  0.5300950000000  0.4719400000000 1.0
C      1  0.4046680000000  0.5087400000000  0.5442400000000 1.0
C      1  0.5930740000000  0.4617190000000  0.5126310000000 1.0
C      1  0.5947710000000  0.5038530000000  0.4579390000000 1.0
C      1  0.5956740000000  0.5357450000000  0.5269710000000 1.0
END
