TITL C-3578195-8548-339 -4.90128595653692e-06 125000 -638.154460452584 0 0 103 (C1) n - 1
REM
REM in /home/bkarasulu/work/CARBON/AIRSS/Generating-Clusters/EDIP-Nigel-Params/with-SteepDescent/Higher-Symm/SD-CG/HFTN-CG
REM
REM
REM
REM
REM
REM ./C.cell (12c818d87b63d06a65506943cc24bca4)
REM
REM compiler GCC version 9.2.1 20190827 (Red Hat 9.2.1-1)
REM options -cpp -mtune=generic -march=x86-64 -g -O0 -fpre-include=/usr/include/finclude/math-vector-fortran.h
REM seed 677578999 -1621202897 1469211712 40459772 -298309053 1118688185 -1176743875 1928554291 825532683 1510430805 771519465 2050326859 -1261500125 795637015 -1433058388 -508989135 167121537 -1300781798 -1922440235 -707179944 -985662139 1961774409 1088451020 -2144994108 638167099 416717470 1860759866 -1191397813 1391413027 653576292 -1333394199 -1964622345 -1441770989
REM
CELL 1.54180   50.00000   50.00000   50.00000   90.00000   90.00000   90.00000
LATT -1
SFAC C  
C      1  0.4656920000000  0.5095610000000  0.4107150000000 1.0
C      1  0.4647210000000  0.4904500000000  0.5893830000000 1.0
C      1  0.4792570000000  0.4493750000000  0.5195590000000 1.0
C      1  0.4816490000000  0.5498470000000  0.4812380000000 1.0
C      1  0.5910600000000  0.5204250000000  0.4989020000000 1.0
C      1  0.5948050000000  0.4813130000000  0.5017630000000 1.0
C      1  0.4350890000000  0.5581200000000  0.4830190000000 1.0
C      1  0.4328970000000  0.4378080000000  0.5192500000000 1.0
C      1  0.4777240000000  0.4303970000000  0.5431070000000 1.0
C      1  0.4789590000000  0.5688420000000  0.4577050000000 1.0
C      1  0.5380180000000  0.4766690000000  0.5694520000000 1.0
C      1  0.5380660000000  0.5223310000000  0.4305220000000 1.0
C      1  0.4936680000000  0.5455680000000  0.4237220000000 1.0
C      1  0.4928800000000  0.4542610000000  0.5765060000000 1.0
C      1  0.4390490000000  0.5529470000000  0.5465230000000 1.0
C      1  0.4365970000000  0.4467360000000  0.4550940000000 1.0
C      1  0.4772090000000  0.5352200000000  0.5744050000000 1.0
C      1  0.4753290000000  0.4645480000000  0.4262630000000 1.0
C      1  0.5661360000000  0.4442380000000  0.4873610000000 1.0
C      1  0.5660070000000  0.5545950000000  0.5123230000000 1.0
C      1  0.4585180000000  0.5548250000000  0.5665940000000 1.0
C      1  0.4565530000000  0.4457000000000  0.4355110000000 1.0
C      1  0.4673560000000  0.5350320000000  0.4217290000000 1.0
C      1  0.4666420000000  0.4650790000000  0.5780890000000 1.0
C      1  0.4812890000000  0.4990380000000  0.5421030000000 1.0
C      1  0.4812780000000  0.5005510000000  0.4587730000000 1.0
C      1  0.4231440000000  0.5118990000000  0.5060570000000 1.0
C      1  0.4296160000000  0.4839000000000  0.4946230000000 1.0
C      1  0.4169190000000  0.4658710000000  0.4499400000000 1.0
C      1  0.4212410000000  0.5318140000000  0.5500340000000 1.0
C      1  0.5445570000000  0.4842760000000  0.4266400000000 1.0
C      1  0.5445830000000  0.5146160000000  0.5739440000000 1.0
C      1  0.5544310000000  0.5483320000000  0.5391670000000 1.0
C      1  0.5526820000000  0.4520100000000  0.4623890000000 1.0
C      1  0.4648700000000  0.4762110000000  0.5274450000000 1.0
C      1  0.4659230000000  0.5238200000000  0.4734580000000 1.0
C      1  0.5716260000000  0.4979930000000  0.4588880000000 1.0
C      1  0.5719070000000  0.5023820000000  0.5414040000000 1.0
C      1  0.5235260000000  0.4185270000000  0.4930080000000 1.0
C      1  0.5247620000000  0.5808760000000  0.5062800000000 1.0
C      1  0.4599640000000  0.4856130000000  0.4994360000000 1.0
C      1  0.4621720000000  0.5149990000000  0.5015720000000 1.0
C      1  0.5078490000000  0.5418810000000  0.5181480000000 1.0
C      1  0.5048000000000  0.4566480000000  0.4810940000000 1.0
C      1  0.5344390000000  0.5272890000000  0.5262420000000 1.0
C      1  0.5307270000000  0.4710870000000  0.4722110000000 1.0
C      1  0.5661950000000  0.5262840000000  0.5572140000000 1.0
C      1  0.5655170000000  0.4734210000000  0.4443260000000 1.0
C      1  0.5030520000000  0.4332120000000  0.4485740000000 1.0
C      1  0.5039870000000  0.5658360000000  0.5500570000000 1.0
C      1  0.5502070000000  0.4240170000000  0.5035650000000 1.0
C      1  0.5514830000000  0.5756310000000  0.4959000000000 1.0
C      1  0.5950550000000  0.5030380000000  0.5241360000000 1.0
C      1  0.5945990000000  0.4991350000000  0.4763340000000 1.0
C      1  0.5680150000000  0.5448170000000  0.4639480000000 1.0
C      1  0.5662680000000  0.4567100000000  0.5320860000000 1.0
C      1  0.5226630000000  0.5179340000000  0.5538270000000 1.0
C      1  0.5214940000000  0.4810590000000  0.4451830000000 1.0
C      1  0.5629760000000  0.4769070000000  0.5528640000000 1.0
C      1  0.5636160000000  0.5229180000000  0.4458650000000 1.0
C      1  0.4991710000000  0.5906830000000  0.4635820000000 1.0
C      1  0.4978270000000  0.4086900000000  0.5362310000000 1.0
C      1  0.5106210000000  0.5076000000000  0.4541270000000 1.0
C      1  0.5102350000000  0.4913860000000  0.5463030000000 1.0
C      1  0.5498710000000  0.4321830000000  0.5320340000000 1.0
C      1  0.5510270000000  0.5678890000000  0.4672330000000 1.0
C      1  0.4208230000000  0.5327580000000  0.4831570000000 1.0
C      1  0.4201890000000  0.4638220000000  0.5166460000000 1.0
C      1  0.5213000000000  0.4376730000000  0.5390650000000 1.0
C      1  0.5225120000000  0.5615670000000  0.4611740000000 1.0
C      1  0.5031950000000  0.5402220000000  0.5622600000000 1.0
C      1  0.5018830000000  0.4589960000000  0.4367240000000 1.0
C      1  0.5188170000000  0.4533360000000  0.5651930000000 1.0
C      1  0.5195180000000  0.5458860000000  0.4351280000000 1.0
C      1  0.4802350000000  0.4767860000000  0.4778650000000 1.0
C      1  0.4827920000000  0.5221290000000  0.5222250000000 1.0
C      1  0.4285950000000  0.4790330000000  0.5412220000000 1.0
C      1  0.4302640000000  0.5184340000000  0.4588750000000 1.0
C      1  0.4719820000000  0.5655960000000  0.5064970000000 1.0
C      1  0.4692060000000  0.4340290000000  0.4943750000000 1.0
C      1  0.4783190000000  0.5931110000000  0.5063800000000 1.0
C      1  0.4764590000000  0.4068120000000  0.4933740000000 1.0
C      1  0.5011010000000  0.4057630000000  0.5071120000000 1.0
C      1  0.5028060000000  0.5944540000000  0.4924700000000 1.0
C      1  0.4464340000000  0.5590820000000  0.5189070000000 1.0
C      1  0.4435530000000  0.4410250000000  0.4828210000000 1.0
C      1  0.5209720000000  0.4212410000000  0.4653920000000 1.0
C      1  0.5221510000000  0.5781420000000  0.5338320000000 1.0
C      1  0.4687360000000  0.5081910000000  0.5681420000000 1.0
C      1  0.4683040000000  0.4920700000000  0.4324300000000 1.0
C      1  0.4478760000000  0.5657930000000  0.4567790000000 1.0
C      1  0.4468520000000  0.4323360000000  0.5452450000000 1.0
C      1  0.5613070000000  0.5288310000000  0.4972740000000 1.0
C      1  0.5678120000000  0.4683680000000  0.5046050000000 1.0
C      1  0.5090390000000  0.4547520000000  0.5142300000000 1.0
C      1  0.5119570000000  0.5434530000000  0.4859880000000 1.0
C      1  0.5181700000000  0.4826760000000  0.5190150000000 1.0
C      1  0.5224500000000  0.5153820000000  0.4804240000000 1.0
C      1  0.4432010000000  0.4576150000000  0.5607580000000 1.0
C      1  0.4441930000000  0.5414300000000  0.4398800000000 1.0
C      1  0.4236540000000  0.4881250000000  0.4652840000000 1.0
C      1  0.4185370000000  0.5083790000000  0.5354520000000 1.0
C      1  0.5381340000000  0.4935550000000  0.4982030000000 1.0
END
