TITL C-3578195-8548-26 -6.15744431379995e-07 125000 -646.168902266362 0 0 102 (C1) n - 1
REM
REM in /home/bkarasulu/work/CARBON/AIRSS/Generating-Clusters/EDIP-Nigel-Params/with-SteepDescent/Higher-Symm/SD-CG/HFTN-CG
REM
REM
REM
REM
REM
REM ./C.cell (12c818d87b63d06a65506943cc24bca4)
REM
REM compiler GCC version 9.2.1 20190827 (Red Hat 9.2.1-1)
REM options -cpp -mtune=generic -march=x86-64 -g -O0 -fpre-include=/usr/include/finclude/math-vector-fortran.h
REM seed -113451094 -490570799 23456029 1859396996 -20708896 1057393253 -1165771061 1641679572 2119837954 -2049766635 -469069289 -1199049033 -1587853149 -695754706 421321632 350195849 904790279 1193365898 -770000724 -804765725 1234588959 104175026 2118632124 -942905675 1020866667 -1863921655 -700570694 -1389092420 -937975271 -610976010 1140816879 844164849 -313231603
REM
CELL 1.54180   50.00000   50.00000   50.00000   90.00000   90.00000   90.00000
LATT -1
SFAC C  
C      1  0.4061790000000  0.4755140000000  0.4872500000000 1.0
C      1  0.4023680000000  0.5254350000000  0.4862820000000 1.0
C      1  0.4054480000000  0.5039370000000  0.5317240000000 1.0
C      1  0.5934660000000  0.4753600000000  0.4869250000000 1.0
C      1  0.5977570000000  0.5251880000000  0.4858950000000 1.0
C      1  0.5945770000000  0.5037810000000  0.5313660000000 1.0
C      1  0.4036690000000  0.4793840000000  0.5165780000000 1.0
C      1  0.4047900000000  0.5280270000000  0.5144030000000 1.0
C      1  0.4059860000000  0.5009440000000  0.4704100000000 1.0
C      1  0.5961140000000  0.4792100000000  0.5162360000000 1.0
C      1  0.5951910000000  0.5278580000000  0.5140070000000 1.0
C      1  0.5934450000000  0.5007600000000  0.4701140000000 1.0
C      1  0.5329430000000  0.5252420000000  0.4842670000000 1.0
C      1  0.5244070000000  0.4991540000000  0.5275710000000 1.0
C      1  0.5218620000000  0.4748690000000  0.4858740000000 1.0
C      1  0.4673000000000  0.5251910000000  0.4844050000000 1.0
C      1  0.4756320000000  0.4991630000000  0.5276200000000 1.0
C      1  0.4775220000000  0.4746610000000  0.4858950000000 1.0
C      1  0.5326300000000  0.5251430000000  0.5154220000000 1.0
C      1  0.5251580000000  0.4994820000000  0.4711780000000 1.0
C      1  0.5306480000000  0.4733140000000  0.5140700000000 1.0
C      1  0.4674740000000  0.5251980000000  0.5155320000000 1.0
C      1  0.4766970000000  0.4997700000000  0.4718380000000 1.0
C      1  0.4691240000000  0.4733050000000  0.5141940000000 1.0
C      1  0.4739250000000  0.4751320000000  0.5711130000000 1.0
C      1  0.4733970000000  0.4496890000000  0.4431030000000 1.0
C      1  0.4734940000000  0.5734800000000  0.4851720000000 1.0
C      1  0.5261560000000  0.4751320000000  0.5710460000000 1.0
C      1  0.5265080000000  0.4497950000000  0.4429040000000 1.0
C      1  0.5265430000000  0.5734100000000  0.4849850000000 1.0
C      1  0.4738530000000  0.4755250000000  0.4284420000000 1.0
C      1  0.4732580000000  0.4494310000000  0.5563270000000 1.0
C      1  0.4739100000000  0.5734960000000  0.5147650000000 1.0
C      1  0.5263010000000  0.4755280000000  0.4279350000000 1.0
C      1  0.5266710000000  0.4494350000000  0.5562500000000 1.0
C      1  0.5261880000000  0.5734420000000  0.5145890000000 1.0
C      1  0.4322390000000  0.5064840000000  0.4572900000000 1.0
C      1  0.4389640000000  0.5324730000000  0.5271870000000 1.0
C      1  0.4384780000000  0.4632550000000  0.5146150000000 1.0
C      1  0.5668750000000  0.5063680000000  0.4575600000000 1.0
C      1  0.5611300000000  0.5324150000000  0.5270160000000 1.0
C      1  0.5612580000000  0.4631620000000  0.5144100000000 1.0
C      1  0.4320660000000  0.5083480000000  0.5435400000000 1.0
C      1  0.4380390000000  0.5310190000000  0.4736890000000 1.0
C      1  0.4319920000000  0.4608810000000  0.4851980000000 1.0
C      1  0.5680520000000  0.5083010000000  0.5433600000000 1.0
C      1  0.5619760000000  0.5313260000000  0.4737720000000 1.0
C      1  0.5676810000000  0.4607620000000  0.4850240000000 1.0
C      1  0.4845240000000  0.5003440000000  0.4428110000000 1.0
C      1  0.4839370000000  0.5484600000000  0.5283450000000 1.0
C      1  0.4835210000000  0.4494550000000  0.5278750000000 1.0
C      1  0.5160790000000  0.5003180000000  0.4424550000000 1.0
C      1  0.5162000000000  0.5484390000000  0.5282530000000 1.0
C      1  0.5162850000000  0.4494780000000  0.5278290000000 1.0
C      1  0.4843620000000  0.4997350000000  0.5564760000000 1.0
C      1  0.4834880000000  0.5486070000000  0.4714260000000 1.0
C      1  0.4841680000000  0.4490090000000  0.4715640000000 1.0
C      1  0.5157380000000  0.4997430000000  0.5564410000000 1.0
C      1  0.5165400000000  0.5485210000000  0.4712330000000 1.0
C      1  0.5156290000000  0.4491400000000  0.4714680000000 1.0
C      1  0.5317660000000  0.5234450000000  0.4286160000000 1.0
C      1  0.5305300000000  0.5496190000000  0.5558220000000 1.0
C      1  0.5326170000000  0.4262840000000  0.5149450000000 1.0
C      1  0.4684000000000  0.5232950000000  0.4291400000000 1.0
C      1  0.4696800000000  0.5496250000000  0.5559560000000 1.0
C      1  0.4671060000000  0.4262680000000  0.5150570000000 1.0
C      1  0.5308730000000  0.5230950000000  0.5706030000000 1.0
C      1  0.5316350000000  0.5496190000000  0.4438860000000 1.0
C      1  0.5326700000000  0.4265180000000  0.4847260000000 1.0
C      1  0.4693240000000  0.5230930000000  0.5707000000000 1.0
C      1  0.4683450000000  0.5495510000000  0.4442180000000 1.0
C      1  0.4670210000000  0.4264470000000  0.4848360000000 1.0
C      1  0.5540620000000  0.4805350000000  0.5801980000000 1.0
C      1  0.5547720000000  0.4401190000000  0.4429660000000 1.0
C      1  0.5547730000000  0.5776520000000  0.4766730000000 1.0
C      1  0.4460620000000  0.4806080000000  0.5803660000000 1.0
C      1  0.4450690000000  0.4401940000000  0.4430810000000 1.0
C      1  0.4452180000000  0.5776020000000  0.4769170000000 1.0
C      1  0.5543780000000  0.4805490000000  0.4189370000000 1.0
C      1  0.5550720000000  0.4405420000000  0.5559370000000 1.0
C      1  0.5541080000000  0.5782270000000  0.5235010000000 1.0
C      1  0.4459010000000  0.4805670000000  0.4191430000000 1.0
C      1  0.4448290000000  0.4406220000000  0.5561020000000 1.0
C      1  0.4459940000000  0.5782380000000  0.5237240000000 1.0
C      1  0.4410170000000  0.5558590000000  0.4563860000000 1.0
C      1  0.4416090000000  0.5091250000000  0.5714040000000 1.0
C      1  0.4398910000000  0.4352170000000  0.4724870000000 1.0
C      1  0.5589460000000  0.5559190000000  0.4561610000000 1.0
C      1  0.5585630000000  0.5090550000000  0.5712450000000 1.0
C      1  0.5598120000000  0.4351050000000  0.4723640000000 1.0
C      1  0.4423020000000  0.5570720000000  0.5447350000000 1.0
C      1  0.4410110000000  0.5085960000000  0.4290950000000 1.0
C      1  0.4402430000000  0.4353220000000  0.5268690000000 1.0
C      1  0.5578800000000  0.5570640000000  0.5445170000000 1.0
C      1  0.5591240000000  0.5086230000000  0.4290730000000 1.0
C      1  0.5595240000000  0.4352400000000  0.5266930000000 1.0
C      1  0.5709350000000  0.4597840000000  0.4297830000000 1.0
C      1  0.4289750000000  0.4605640000000  0.5690820000000 1.0
C      1  0.5710430000000  0.4604370000000  0.5688490000000 1.0
C      1  0.4290750000000  0.4599070000000  0.4297680000000 1.0
C      1  0.4291600000000  0.5776620000000  0.5005960000000 1.0
C      1  0.5708740000000  0.5777080000000  0.5003230000000 1.0
END
