TITL C-3578198-8939-5 -2.05782843189833e-06 125000 -1111.74082418245 0 0 174 (C1) n - 1
REM
REM in /home/bkarasulu/work/CARBON/AIRSS/Generating-Clusters/EDIP-Nigel-Params/with-SteepDescent/Higher-Symm/SD-CG/HFTN-CG
REM
REM
REM
REM
REM
REM ./C.cell (12c818d87b63d06a65506943cc24bca4)
REM
REM compiler GCC version 9.2.1 20190827 (Red Hat 9.2.1-1)
REM options -cpp -mtune=generic -march=x86-64 -g -O0 -fpre-include=/usr/include/finclude/math-vector-fortran.h
REM seed 241512091 -343340602 -914601649 1400698335 82270 -1311223927 -1094360384 -1764734687 -1145815385 -2100509663 -279921283 -1530056241 1502127954 34660575 1001684037 -218358767 1185662920 -857302416 -2030571574 415532346 -2052462232 -1563241261 681568672 1335685514 -130732857 -1450262900 1212055108 -973952184 1216225190 -690004344 934530552 -39206164 -886648007
REM
CELL 1.54180   50.00000   50.00000   50.00000   90.00000   90.00000   90.00000
LATT -1
SFAC C  
C      1  0.5735780000000  0.4950850000000  0.5775550000000 1.0
C      1  0.5651310000000  0.4384320000000  0.4579490000000 1.0
C      1  0.5740220000000  0.5783420000000  0.4650630000000 1.0
C      1  0.5392410000000  0.5721230000000  0.4288560000000 1.0
C      1  0.5405790000000  0.5317810000000  0.5957870000000 1.0
C      1  0.5343670000000  0.4041400000000  0.4753800000000 1.0
C      1  0.4955220000000  0.6134920000000  0.4945270000000 1.0
C      1  0.5005050000000  0.4430070000000  0.5964180000000 1.0
C      1  0.4939090000000  0.4415900000000  0.4108310000000 1.0
C      1  0.6002990000000  0.5139710000000  0.4883690000000 1.0
C      1  0.6089320000000  0.4967980000000  0.5097420000000 1.0
C      1  0.6163530000000  0.4726640000000  0.4977580000000 1.0
C      1  0.5448930000000  0.4924220000000  0.5137450000000 1.0
C      1  0.5007700000000  0.4983520000000  0.4821750000000 1.0
C      1  0.5019290000000  0.5199270000000  0.5003420000000 1.0
C      1  0.4749000000000  0.5283580000000  0.5071960000000 1.0
C      1  0.4623020000000  0.4705010000000  0.5143780000000 1.0
C      1  0.4732960000000  0.4923580000000  0.4753890000000 1.0
C      1  0.4671000000000  0.4053900000000  0.4972230000000 1.0
C      1  0.4748260000000  0.5324150000000  0.4362390000000 1.0
C      1  0.4759790000000  0.5418630000000  0.5564320000000 1.0
C      1  0.4454810000000  0.6013030000000  0.5044360000000 1.0
C      1  0.4484040000000  0.4440160000000  0.5856900000000 1.0
C      1  0.4453210000000  0.4554820000000  0.4086220000000 1.0
C      1  0.5870790000000  0.5123010000000  0.5569130000000 1.0
C      1  0.5806780000000  0.4421420000000  0.4819680000000 1.0
C      1  0.5873390000000  0.5522680000000  0.4596370000000 1.0
C      1  0.4530190000000  0.5133000000000  0.5425350000000 1.0
C      1  0.4427970000000  0.4206080000000  0.4923090000000 1.0
C      1  0.4529320000000  0.5321890000000  0.4603840000000 1.0
C      1  0.4322300000000  0.5371040000000  0.5462820000000 1.0
C      1  0.4265090000000  0.4282570000000  0.5145240000000 1.0
C      1  0.4313030000000  0.5225720000000  0.4406720000000 1.0
C      1  0.4785850000000  0.4769700000000  0.5724870000000 1.0
C      1  0.4654620000000  0.4422160000000  0.4504070000000 1.0
C      1  0.4762070000000  0.5744610000000  0.4826760000000 1.0
C      1  0.5176950000000  0.5976150000000  0.4781530000000 1.0
C      1  0.5246480000000  0.4844700000000  0.5948340000000 1.0
C      1  0.5153140000000  0.4333410000000  0.4318690000000 1.0
C      1  0.5433080000000  0.5362080000000  0.3969040000000 1.0
C      1  0.5422810000000  0.5760860000000  0.5812670000000 1.0
C      1  0.5386390000000  0.3936260000000  0.5221930000000 1.0
C      1  0.4345260000000  0.4523310000000  0.5597360000000 1.0
C      1  0.4291190000000  0.4722610000000  0.4284930000000 1.0
C      1  0.4322160000000  0.5739440000000  0.5078900000000 1.0
C      1  0.4895770000000  0.4282490000000  0.4603480000000 1.0
C      1  0.4985860000000  0.5766530000000  0.4629780000000 1.0
C      1  0.4995680000000  0.4968150000000  0.5829240000000 1.0
C      1  0.4169270000000  0.4889280000000  0.5801330000000 1.0
C      1  0.4056440000000  0.4342420000000  0.4477930000000 1.0
C      1  0.4142310000000  0.5736180000000  0.4648870000000 1.0
C      1  0.4505470000000  0.5603010000000  0.4703980000000 1.0
C      1  0.4526650000000  0.4922840000000  0.5644850000000 1.0
C      1  0.4397510000000  0.4339480000000  0.4663500000000 1.0
C      1  0.5382520000000  0.5081910000000  0.4065880000000 1.0
C      1  0.5365050000000  0.5814740000000  0.5525800000000 1.0
C      1  0.5326530000000  0.4155850000000  0.5423120000000 1.0
C      1  0.5261980000000  0.5544040000000  0.5429290000000 1.0
C      1  0.5196850000000  0.4378710000000  0.5257470000000 1.0
C      1  0.5278450000000  0.5123780000000  0.4348680000000 1.0
C      1  0.5485410000000  0.4867750000000  0.4857150000000 1.0
C      1  0.5637100000000  0.5095080000000  0.4772300000000 1.0
C      1  0.5504510000000  0.5224220000000  0.5118810000000 1.0
C      1  0.4698050000000  0.4464650000000  0.5299980000000 1.0
C      1  0.4701180000000  0.4941320000000  0.4448750000000 1.0
C      1  0.4708370000000  0.5512550000000  0.5268650000000 1.0
C      1  0.5810520000000  0.5628960000000  0.5367120000000 1.0
C      1  0.5764750000000  0.4360640000000  0.5335850000000 1.0
C      1  0.5825700000000  0.5053780000000  0.4314440000000 1.0
C      1  0.4916820000000  0.4722250000000  0.4040180000000 1.0
C      1  0.4898920000000  0.6003630000000  0.5233110000000 1.0
C      1  0.4906260000000  0.4280140000000  0.5721950000000 1.0
C      1  0.5469670000000  0.5313870000000  0.5411620000000 1.0
C      1  0.5377680000000  0.4491040000000  0.5061280000000 1.0
C      1  0.5491530000000  0.5248300000000  0.4554100000000 1.0
C      1  0.5262980000000  0.5371990000000  0.4996000000000 1.0
C      1  0.5403520000000  0.4804310000000  0.5420620000000 1.0
C      1  0.5226200000000  0.4806890000000  0.4722630000000 1.0
C      1  0.5957080000000  0.4674990000000  0.4791030000000 1.0
C      1  0.5927250000000  0.5412920000000  0.4863180000000 1.0
C      1  0.5922880000000  0.4930890000000  0.5336270000000 1.0
C      1  0.5098800000000  0.6002070000000  0.5483420000000 1.0
C      1  0.5086310000000  0.4066820000000  0.5592960000000 1.0
C      1  0.5125570000000  0.4943890000000  0.3911000000000 1.0
C      1  0.4888730000000  0.5712080000000  0.5128960000000 1.0
C      1  0.4883430000000  0.4540720000000  0.5538680000000 1.0
C      1  0.4917350000000  0.4804140000000  0.4324510000000 1.0
C      1  0.5182620000000  0.5617860000000  0.5145420000000 1.0
C      1  0.5157720000000  0.4610610000000  0.5427920000000 1.0
C      1  0.5192350000000  0.4838110000000  0.4421720000000 1.0
C      1  0.4707320000000  0.4660110000000  0.4874360000000 1.0
C      1  0.4554640000000  0.5128400000000  0.4904960000000 1.0
C      1  0.4452130000000  0.4955630000000  0.5175070000000 1.0
C      1  0.5634130000000  0.4329430000000  0.5052320000000 1.0
C      1  0.5722790000000  0.5352080000000  0.4389500000000 1.0
C      1  0.5719400000000  0.5399760000000  0.5555510000000 1.0
C      1  0.5047000000000  0.5393450000000  0.5623140000000 1.0
C      1  0.4882430000000  0.4284920000000  0.5119520000000 1.0
C      1  0.5046130000000  0.5374540000000  0.4359690000000 1.0
C      1  0.4428380000000  0.5629330000000  0.5330470000000 1.0
C      1  0.4435470000000  0.4327580000000  0.5388950000000 1.0
C      1  0.4438700000000  0.4982360000000  0.4282920000000 1.0
C      1  0.4066400000000  0.5292920000000  0.4946970000000 1.0
C      1  0.4146160000000  0.4889910000000  0.5237030000000 1.0
C      1  0.4052510000000  0.4814000000000  0.4744400000000 1.0
C      1  0.4393130000000  0.5784430000000  0.4489850000000 1.0
C      1  0.4411760000000  0.5028590000000  0.5903880000000 1.0
C      1  0.4263940000000  0.4118800000000  0.4473840000000 1.0
C      1  0.4608150000000  0.6068080000000  0.5298760000000 1.0
C      1  0.4625880000000  0.4183260000000  0.5782620000000 1.0
C      1  0.4631040000000  0.4745960000000  0.3929580000000 1.0
C      1  0.4872470000000  0.5869000000000  0.4371570000000 1.0
C      1  0.4868820000000  0.5143380000000  0.6036040000000 1.0
C      1  0.4815550000000  0.3999180000000  0.4698410000000 1.0
C      1  0.5353770000000  0.5068750000000  0.5557160000000 1.0
C      1  0.5217760000000  0.4515380000000  0.4810870000000 1.0
C      1  0.5345020000000  0.5471830000000  0.4704350000000 1.0
C      1  0.4623830000000  0.5548670000000  0.5790450000000 1.0
C      1  0.4584920000000  0.3812830000000  0.5117980000000 1.0
C      1  0.4635050000000  0.5446360000000  0.4121110000000 1.0
C      1  0.5528620000000  0.4473450000000  0.5765540000000 1.0
C      1  0.5587500000000  0.4645890000000  0.4175740000000 1.0
C      1  0.5581070000000  0.5961260000000  0.5102180000000 1.0
C      1  0.5350240000000  0.4312170000000  0.4609140000000 1.0
C      1  0.5439640000000  0.5758740000000  0.4592400000000 1.0
C      1  0.5453470000000  0.5045670000000  0.5842880000000 1.0
C      1  0.5887940000000  0.4827720000000  0.4524480000000 1.0
C      1  0.5901850000000  0.5611080000000  0.5079590000000 1.0
C      1  0.5869370000000  0.4638410000000  0.5419100000000 1.0
C      1  0.5088240000000  0.3913750000000  0.4838450000000 1.0
C      1  0.5111120000000  0.5635520000000  0.4195110000000 1.0
C      1  0.5113340000000  0.5416350000000  0.5926820000000 1.0
C      1  0.5588660000000  0.5509430000000  0.5829750000000 1.0
C      1  0.5531900000000  0.4045630000000  0.4988660000000 1.0
C      1  0.5580870000000  0.5521260000000  0.4173820000000 1.0
C      1  0.4666160000000  0.3875680000000  0.5378760000000 1.0
C      1  0.4696310000000  0.5245680000000  0.3932870000000 1.0
C      1  0.4673100000000  0.5818130000000  0.5728730000000 1.0
C      1  0.4522190000000  0.5012640000000  0.3990260000000 1.0
C      1  0.4497980000000  0.5878580000000  0.5497190000000 1.0
C      1  0.4499950000000  0.4070390000000  0.5535750000000 1.0
C      1  0.4924730000000  0.4446010000000  0.4857490000000 1.0
C      1  0.5076550000000  0.5491550000000  0.4611220000000 1.0
C      1  0.5075120000000  0.5110710000000  0.5586250000000 1.0
C      1  0.5811460000000  0.5856310000000  0.4938440000000 1.0
C      1  0.5650760000000  0.4705260000000  0.5612080000000 1.0
C      1  0.5761140000000  0.4587160000000  0.4400890000000 1.0
C      1  0.4651970000000  0.4351270000000  0.4201500000000 1.0
C      1  0.4673130000000  0.6042140000000  0.4827460000000 1.0
C      1  0.4714960000000  0.4616400000000  0.5978790000000 1.0
C      1  0.5308520000000  0.4602450000000  0.4273460000000 1.0
C      1  0.5327780000000  0.5841740000000  0.5006160000000 1.0
C      1  0.5250900000000  0.4568440000000  0.5859880000000 1.0
C      1  0.5156770000000  0.5463210000000  0.3937090000000 1.0
C      1  0.5144060000000  0.5724810000000  0.5917420000000 1.0
C      1  0.5116950000000  0.3848020000000  0.5136170000000 1.0
C      1  0.4025570000000  0.5164210000000  0.5207950000000 1.0
C      1  0.4035900000000  0.4716200000000  0.5019530000000 1.0
C      1  0.4027650000000  0.5107760000000  0.4723380000000 1.0
C      1  0.5643280000000  0.4931580000000  0.4106840000000 1.0
C      1  0.5627470000000  0.5864920000000  0.5379490000000 1.0
C      1  0.5576800000000  0.4260400000000  0.5555730000000 1.0
C      1  0.4577480000000  0.4051180000000  0.4405510000000 1.0
C      1  0.4612240000000  0.5977860000000  0.4458980000000 1.0
C      1  0.4630970000000  0.4973640000000  0.6090860000000 1.0
C      1  0.4947250000000  0.3928300000000  0.5371450000000 1.0
C      1  0.4988980000000  0.5214070000000  0.3889980000000 1.0
C      1  0.4965790000000  0.5880930000000  0.5725030000000 1.0
C      1  0.4110540000000  0.4631270000000  0.4503650000000 1.0
C      1  0.4122420000000  0.5596310000000  0.4909430000000 1.0
C      1  0.4146610000000  0.4741920000000  0.5546040000000 1.0
C      1  0.4050490000000  0.5323540000000  0.5432050000000 1.0
C      1  0.4057260000000  0.4448860000000  0.5075290000000 1.0
C      1  0.4043490000000  0.5218550000000  0.4470850000000 1.0
END
