TITL C-3577085-527-647 -3.80082711903473e-06 125000 -897.052909688347 0 0 147 (C1) n - 1
REM
REM in /home/bkarasulu/work/CARBON/AIRSS/Generating-Clusters/EDIP-Nigel-Params/with-SteepDescent/Higher-Symm/SD-CG/HFTN-CG
REM
REM
REM
REM
REM
REM ./C.cell (12c818d87b63d06a65506943cc24bca4)
REM
REM compiler GCC version 9.2.1 20190827 (Red Hat 9.2.1-1)
REM options -cpp -mtune=generic -march=x86-64 -g -O0 -fpre-include=/usr/include/finclude/math-vector-fortran.h
REM seed -108273901 1699586232 -365905088 -149616036 1254173118 795893477 781408302 1783655450 2094206637 257507832 1491777148 -1009294913 -378672895 623479582 469114791 693600278 -1326812342 1197674917 -2050621447 -1851206254 943309795 503953290 -183555643 1927371099 348450348 1389361057 -1127904560 -1330046132 -1646563147 1656687284 -563575308 1342810965 2089114954
REM
CELL 1.54180   50.00000   50.00000   50.00000   90.00000   90.00000   90.00000
LATT -1
SFAC C  
C      1  0.5518020000000  0.5309540000000  0.4955410000000 1.0
C      1  0.5684590000000  0.4843860000000  0.4803430000000 1.0
C      1  0.5685740000000  0.4948740000000  0.5302990000000 1.0
C      1  0.4407440000000  0.5283160000000  0.4927630000000 1.0
C      1  0.4310440000000  0.4818110000000  0.4766260000000 1.0
C      1  0.4363180000000  0.4913650000000  0.5309650000000 1.0
C      1  0.5587580000000  0.4743720000000  0.5085610000000 1.0
C      1  0.5715510000000  0.5143670000000  0.4779590000000 1.0
C      1  0.5551480000000  0.5213780000000  0.5243500000000 1.0
C      1  0.4410210000000  0.4718390000000  0.5057350000000 1.0
C      1  0.4256520000000  0.5116060000000  0.4731330000000 1.0
C      1  0.4300270000000  0.5209590000000  0.5216390000000 1.0
C      1  0.4698910000000  0.4456800000000  0.5577210000000 1.0
C      1  0.4735870000000  0.5823270000000  0.5136220000000 1.0
C      1  0.4673540000000  0.4690160000000  0.4223540000000 1.0
C      1  0.5291270000000  0.4450980000000  0.5592110000000 1.0
C      1  0.5294960000000  0.5837460000000  0.5156720000000 1.0
C      1  0.5285090000000  0.4717920000000  0.4244400000000 1.0
C      1  0.4713550000000  0.5520920000000  0.5602630000000 1.0
C      1  0.4728060000000  0.4207910000000  0.5126770000000 1.0
C      1  0.4722400000000  0.5268130000000  0.4279900000000 1.0
C      1  0.5278390000000  0.5515670000000  0.5610360000000 1.0
C      1  0.5267380000000  0.4219530000000  0.5122940000000 1.0
C      1  0.5324320000000  0.5290920000000  0.4200820000000 1.0
C      1  0.5562990000000  0.5147060000000  0.4299630000000 1.0
C      1  0.5555780000000  0.4198400000000  0.5081700000000 1.0
C      1  0.5555770000000  0.5534250000000  0.5589440000000 1.0
C      1  0.4451660000000  0.5141600000000  0.4338620000000 1.0
C      1  0.4442800000000  0.4174210000000  0.5085390000000 1.0
C      1  0.4424390000000  0.5495830000000  0.5636910000000 1.0
C      1  0.5545330000000  0.4848340000000  0.4309710000000 1.0
C      1  0.5575630000000  0.5872480000000  0.5092090000000 1.0
C      1  0.5567000000000  0.4417960000000  0.5536660000000 1.0
C      1  0.4433030000000  0.4832640000000  0.4339720000000 1.0
C      1  0.4450930000000  0.5865850000000  0.5078660000000 1.0
C      1  0.4402880000000  0.4511070000000  0.5592860000000 1.0
C      1  0.4883410000000  0.5825090000000  0.4871600000000 1.0
C      1  0.4837790000000  0.4472290000000  0.4350780000000 1.0
C      1  0.4855410000000  0.4665090000000  0.5723160000000 1.0
C      1  0.5173180000000  0.5887170000000  0.4898450000000 1.0
C      1  0.5138010000000  0.4484710000000  0.4386980000000 1.0
C      1  0.5151700000000  0.4701110000000  0.5708320000000 1.0
C      1  0.4847370000000  0.4159150000000  0.4863530000000 1.0
C      1  0.4896800000000  0.5503500000000  0.4418670000000 1.0
C      1  0.4856880000000  0.5296480000000  0.5735900000000 1.0
C      1  0.5143800000000  0.4205280000000  0.4847160000000 1.0
C      1  0.5192650000000  0.5510470000000  0.4350640000000 1.0
C      1  0.5150060000000  0.5257280000000  0.5712700000000 1.0
C      1  0.5221700000000  0.5788830000000  0.4279750000000 1.0
C      1  0.5192570000000  0.3922970000000  0.4724070000000 1.0
C      1  0.5203810000000  0.5226900000000  0.6002370000000 1.0
C      1  0.4834920000000  0.5767050000000  0.4300850000000 1.0
C      1  0.4821020000000  0.3883700000000  0.4761670000000 1.0
C      1  0.4811370000000  0.5238310000000  0.6012320000000 1.0
C      1  0.5196240000000  0.4217120000000  0.4279540000000 1.0
C      1  0.5202760000000  0.6141180000000  0.4752560000000 1.0
C      1  0.5191490000000  0.4738340000000  0.6002960000000 1.0
C      1  0.4808150000000  0.4192490000000  0.4287360000000 1.0
C      1  0.4832030000000  0.6094280000000  0.4712440000000 1.0
C      1  0.4800080000000  0.4733950000000  0.5996690000000 1.0
C      1  0.5149840000000  0.4194410000000  0.5612210000000 1.0
C      1  0.5165090000000  0.5962140000000  0.5390720000000 1.0
C      1  0.5144860000000  0.4835360000000  0.4015480000000 1.0
C      1  0.4829890000000  0.4190300000000  0.5599960000000 1.0
C      1  0.4850310000000  0.5959740000000  0.5372710000000 1.0
C      1  0.4828840000000  0.4844830000000  0.4022060000000 1.0
C      1  0.5147950000000  0.5777970000000  0.5643700000000 1.0
C      1  0.5154950000000  0.4048340000000  0.5337420000000 1.0
C      1  0.5151000000000  0.5146620000000  0.4008310000000 1.0
C      1  0.4839340000000  0.5786000000000  0.5630210000000 1.0
C      1  0.4845450000000  0.4038040000000  0.5334640000000 1.0
C      1  0.4839750000000  0.5154830000000  0.4035550000000 1.0
C      1  0.4005980000000  0.5130460000000  0.5191530000000 1.0
C      1  0.3869430000000  0.5127610000000  0.4723900000000 1.0
C      1  0.3929930000000  0.4688240000000  0.4948580000000 1.0
C      1  0.6051770000000  0.5142270000000  0.5219780000000 1.0
C      1  0.6100840000000  0.5162760000000  0.4723950000000 1.0
C      1  0.6084200000000  0.4722060000000  0.4940170000000 1.0
C      1  0.4003310000000  0.4801010000000  0.5219540000000 1.0
C      1  0.3926780000000  0.4850500000000  0.4715130000000 1.0
C      1  0.3918600000000  0.5289950000000  0.4953700000000 1.0
C      1  0.6044360000000  0.4857500000000  0.5191960000000 1.0
C      1  0.6054470000000  0.4887300000000  0.4710330000000 1.0
C      1  0.6077370000000  0.5302880000000  0.4968620000000 1.0
C      1  0.4580250000000  0.5868480000000  0.4386440000000 1.0
C      1  0.4618900000000  0.3844690000000  0.4562900000000 1.0
C      1  0.4535220000000  0.5139790000000  0.5998920000000 1.0
C      1  0.5455830000000  0.5910600000000  0.4397860000000 1.0
C      1  0.5406750000000  0.3875070000000  0.4543220000000 1.0
C      1  0.5481980000000  0.5134890000000  0.6001010000000 1.0
C      1  0.4563690000000  0.4080700000000  0.4399120000000 1.0
C      1  0.4623980000000  0.6123730000000  0.4519400000000 1.0
C      1  0.4532040000000  0.4845420000000  0.5967970000000 1.0
C      1  0.5450090000000  0.4119550000000  0.4387010000000 1.0
C      1  0.5400220000000  0.6156870000000  0.4545830000000 1.0
C      1  0.5469340000000  0.4831440000000  0.5992410000000 1.0
C      1  0.5949920000000  0.5033240000000  0.5578830000000 1.0
C      1  0.5787580000000  0.5546660000000  0.4614470000000 1.0
C      1  0.5920780000000  0.4481110000000  0.4897030000000 1.0
C      1  0.4098490000000  0.5147480000000  0.5752490000000 1.0
C      1  0.4234370000000  0.5541580000000  0.4611550000000 1.0
C      1  0.4078740000000  0.4447200000000  0.4886700000000 1.0
C      1  0.5863180000000  0.4734680000000  0.5645010000000 1.0
C      1  0.5794300000000  0.4464270000000  0.4613610000000 1.0
C      1  0.5899510000000  0.5527090000000  0.4896970000000 1.0
C      1  0.4149640000000  0.4906540000000  0.5621360000000 1.0
C      1  0.4197590000000  0.4426270000000  0.4603160000000 1.0
C      1  0.4103980000000  0.5529710000000  0.4895870000000 1.0
C      1  0.5118000000000  0.5250460000000  0.5154710000000 1.0
C      1  0.5118930000000  0.5032990000000  0.4719140000000 1.0
C      1  0.5289770000000  0.4753360000000  0.5097610000000 1.0
C      1  0.4822100000000  0.5225050000000  0.5145310000000 1.0
C      1  0.4827430000000  0.5057560000000  0.4687400000000 1.0
C      1  0.4698560000000  0.4733090000000  0.5036510000000 1.0
C      1  0.5150580000000  0.4962720000000  0.5272810000000 1.0
C      1  0.5168190000000  0.4742270000000  0.4831350000000 1.0
C      1  0.5195480000000  0.5298140000000  0.4870080000000 1.0
C      1  0.4795130000000  0.4933440000000  0.5234110000000 1.0
C      1  0.4735140000000  0.4808380000000  0.4767000000000 1.0
C      1  0.4726080000000  0.5279880000000  0.4869830000000 1.0
C      1  0.5651880000000  0.5120520000000  0.5711670000000 1.0
C      1  0.5584690000000  0.5757970000000  0.4612460000000 1.0
C      1  0.5592680000000  0.4081340000000  0.4815250000000 1.0
C      1  0.4355700000000  0.5258460000000  0.5790480000000 1.0
C      1  0.4455850000000  0.5724690000000  0.4609970000000 1.0
C      1  0.4417630000000  0.4054000000000  0.4819250000000 1.0
C      1  0.5590820000000  0.4820680000000  0.5713780000000 1.0
C      1  0.5573720000000  0.4277290000000  0.4608770000000 1.0
C      1  0.5602480000000  0.5963540000000  0.4814270000000 1.0
C      1  0.4377440000000  0.4765160000000  0.5722910000000 1.0
C      1  0.4426280000000  0.4243140000000  0.4604620000000 1.0
C      1  0.4430660000000  0.5937880000000  0.4798430000000 1.0
C      1  0.5754870000000  0.4704390000000  0.4449980000000 1.0
C      1  0.5831410000000  0.4495310000000  0.5481980000000 1.0
C      1  0.5710170000000  0.5605820000000  0.5114570000000 1.0
C      1  0.4205730000000  0.4665170000000  0.4428030000000 1.0
C      1  0.4190400000000  0.4507080000000  0.5382340000000 1.0
C      1  0.4269390000000  0.5642450000000  0.5135980000000 1.0
C      1  0.5771480000000  0.5304140000000  0.4437020000000 1.0
C      1  0.5691350000000  0.5437500000000  0.5367930000000 1.0
C      1  0.5719510000000  0.4456830000000  0.5127270000000 1.0
C      1  0.4234180000000  0.5324640000000  0.4411160000000 1.0
C      1  0.4250220000000  0.5539920000000  0.5409450000000 1.0
C      1  0.4283570000000  0.4433250000000  0.5108360000000 1.0
C      1  0.5206850000000  0.4975100000000  0.5565800000000 1.0
C      1  0.4903200000000  0.5515400000000  0.4742240000000 1.0
C      1  0.5189270000000  0.4478460000000  0.4686250000000 1.0
END
