TITL C-3577083-591-763 1.71170121727297e-06 125000 -809.495805384563 0 0 130 (C1) n - 1
REM
REM in /home/bkarasulu/work/CARBON/AIRSS/Generating-Clusters/EDIP-Nigel-Params/with-SteepDescent/Higher-Symm/SD-CG/HFTN-CG
REM
REM
REM
REM
REM
REM ./C.cell (12c818d87b63d06a65506943cc24bca4)
REM
REM compiler GCC version 9.2.1 20190827 (Red Hat 9.2.1-1)
REM options -cpp -mtune=generic -march=x86-64 -g -O0 -fpre-include=/usr/include/finclude/math-vector-fortran.h
REM seed -1206191533 -1230752432 -1688457394 -774919418 -1469990691 640666969 -1474833512 476275695 834971529 1656391669 -60284506 -1123662812 564210844 1900770945 -351506942 -687241983 1457016746 201527415 -723996415 -1879985603 -1261871677 -425390235 1004026027 -1173652309 554245959 -2003373598 -719535332 1926107730 1426990720 -1751428588 -1924019146 -337988092 584896451
REM
CELL 1.54180   50.00000   50.00000   50.00000   90.00000   90.00000   90.00000
LATT -1
SFAC C  
C      1  0.4119280000000  0.5298560000000  0.4757440000000 1.0
C      1  0.5873810000000  0.4694760000000  0.4762970000000 1.0
C      1  0.5889710000000  0.5293290000000  0.5251960000000 1.0
C      1  0.4104100000000  0.4690020000000  0.5249680000000 1.0
C      1  0.4167570000000  0.5724930000000  0.4538860000000 1.0
C      1  0.5818170000000  0.4275740000000  0.4540620000000 1.0
C      1  0.5824060000000  0.5733230000000  0.5426830000000 1.0
C      1  0.4153360000000  0.4255760000000  0.5451990000000 1.0
C      1  0.4697680000000  0.5956800000000  0.4784430000000 1.0
C      1  0.5301550000000  0.4055450000000  0.4783570000000 1.0
C      1  0.5309710000000  0.5952430000000  0.5182180000000 1.0
C      1  0.4715880000000  0.4070010000000  0.5210420000000 1.0
C      1  0.4869400000000  0.5265190000000  0.4936940000000 1.0
C      1  0.5121900000000  0.4866320000000  0.4960840000000 1.0
C      1  0.5137860000000  0.5148920000000  0.5048830000000 1.0
C      1  0.4847080000000  0.4751370000000  0.5051760000000 1.0
C      1  0.5316130000000  0.4838660000000  0.5838940000000 1.0
C      1  0.4670310000000  0.5155140000000  0.5828970000000 1.0
C      1  0.4665520000000  0.4812180000000  0.4147730000000 1.0
C      1  0.5325480000000  0.5171800000000  0.4153260000000 1.0
C      1  0.4617990000000  0.5553010000000  0.5349730000000 1.0
C      1  0.5413470000000  0.4359790000000  0.5397750000000 1.0
C      1  0.5395530000000  0.5596680000000  0.4623230000000 1.0
C      1  0.4618800000000  0.4461400000000  0.4644920000000 1.0
C      1  0.5280070000000  0.5174850000000  0.4591860000000 1.0
C      1  0.4758740000000  0.4863620000000  0.4577010000000 1.0
C      1  0.4722860000000  0.5137760000000  0.5389990000000 1.0
C      1  0.5270410000000  0.4847480000000  0.5400930000000 1.0
C      1  0.5003540000000  0.4719800000000  0.5495250000000 1.0
C      1  0.4997000000000  0.5271560000000  0.5484900000000 1.0
C      1  0.5044470000000  0.4732830000000  0.4525680000000 1.0
C      1  0.5005420000000  0.5300660000000  0.4500220000000 1.0
C      1  0.5294900000000  0.5846300000000  0.4469340000000 1.0
C      1  0.4711350000000  0.4206970000000  0.4493980000000 1.0
C      1  0.4721530000000  0.5813220000000  0.5496230000000 1.0
C      1  0.5359560000000  0.4085790000000  0.5480420000000 1.0
C      1  0.5677460000000  0.4811630000000  0.4568710000000 1.0
C      1  0.4309710000000  0.5187600000000  0.4560280000000 1.0
C      1  0.4276080000000  0.4794680000000  0.5462760000000 1.0
C      1  0.5704430000000  0.5196420000000  0.5457350000000 1.0
C      1  0.5661300000000  0.4449610000000  0.5251480000000 1.0
C      1  0.4340790000000  0.5534400000000  0.5233040000000 1.0
C      1  0.4348470000000  0.4465950000000  0.4771720000000 1.0
C      1  0.5657700000000  0.5555000000000  0.4756050000000 1.0
C      1  0.5562710000000  0.5403250000000  0.5628760000000 1.0
C      1  0.4416340000000  0.4593860000000  0.5641350000000 1.0
C      1  0.4443120000000  0.5384960000000  0.4369020000000 1.0
C      1  0.5547150000000  0.4620200000000  0.4364800000000 1.0
C      1  0.5060700000000  0.4472150000000  0.4173010000000 1.0
C      1  0.4910810000000  0.5529760000000  0.4170170000000 1.0
C      1  0.4898520000000  0.4444030000000  0.5809720000000 1.0
C      1  0.5091380000000  0.5542360000000  0.5809210000000 1.0
C      1  0.5024860000000  0.5746100000000  0.5572190000000 1.0
C      1  0.5020770000000  0.4244610000000  0.5568990000000 1.0
C      1  0.4984580000000  0.5766430000000  0.4394180000000 1.0
C      1  0.5007310000000  0.4283170000000  0.4414770000000 1.0
C      1  0.5219040000000  0.4886990000000  0.4679980000000 1.0
C      1  0.4802980000000  0.5155990000000  0.4652860000000 1.0
C      1  0.4783230000000  0.4847640000000  0.5336880000000 1.0
C      1  0.5204620000000  0.5127900000000  0.5336850000000 1.0
C      1  0.4825430000000  0.3994080000000  0.4689120000000 1.0
C      1  0.5168240000000  0.6056200000000  0.4668350000000 1.0
C      1  0.5177270000000  0.3941860000000  0.5297540000000 1.0
C      1  0.4833660000000  0.6031100000000  0.5300440000000 1.0
C      1  0.4064130000000  0.5154750000000  0.5016910000000 1.0
C      1  0.5925100000000  0.4834230000000  0.5025990000000 1.0
C      1  0.5904880000000  0.5143490000000  0.4994260000000 1.0
C      1  0.4092460000000  0.4846750000000  0.4993650000000 1.0
C      1  0.4615340000000  0.5675330000000  0.4717310000000 1.0
C      1  0.5381900000000  0.4337760000000  0.4717300000000 1.0
C      1  0.5381960000000  0.5672770000000  0.5265320000000 1.0
C      1  0.4608220000000  0.4333240000000  0.5286390000000 1.0
C      1  0.5285600000000  0.4912990000000  0.4063380000000 1.0
C      1  0.4706320000000  0.5079440000000  0.4090080000000 1.0
C      1  0.4694610000000  0.4890850000000  0.5908530000000 1.0
C      1  0.5296390000000  0.5104430000000  0.5914810000000 1.0
C      1  0.4457030000000  0.5226060000000  0.5659790000000 1.0
C      1  0.5533660000000  0.4766760000000  0.5673370000000 1.0
C      1  0.5547510000000  0.5235480000000  0.4318450000000 1.0
C      1  0.4473150000000  0.4746190000000  0.4342580000000 1.0
C      1  0.4840400000000  0.4609640000000  0.4072980000000 1.0
C      1  0.5138860000000  0.5374490000000  0.4109230000000 1.0
C      1  0.5104270000000  0.4646350000000  0.5867700000000 1.0
C      1  0.4879640000000  0.5348470000000  0.5851610000000 1.0
C      1  0.5083470000000  0.4459490000000  0.4650670000000 1.0
C      1  0.4943790000000  0.5576270000000  0.4631180000000 1.0
C      1  0.4970350000000  0.4448440000000  0.5352130000000 1.0
C      1  0.5076450000000  0.5551740000000  0.5342610000000 1.0
C      1  0.4419460000000  0.4324480000000  0.5525540000000 1.0
C      1  0.5560790000000  0.5675060000000  0.5513300000000 1.0
C      1  0.5554050000000  0.4346740000000  0.4469970000000 1.0
C      1  0.4435390000000  0.5660470000000  0.4472020000000 1.0
C      1  0.4622080000000  0.4801300000000  0.4848750000000 1.0
C      1  0.5388990000000  0.5236800000000  0.4894220000000 1.0
C      1  0.5343220000000  0.4730280000000  0.5118850000000 1.0
C      1  0.4624700000000  0.5225400000000  0.5110260000000 1.0
C      1  0.4854780000000  0.4427910000000  0.4863150000000 1.0
C      1  0.5177570000000  0.5617920000000  0.4828880000000 1.0
C      1  0.5220990000000  0.4410570000000  0.5171860000000 1.0
C      1  0.4849930000000  0.5596580000000  0.5127400000000 1.0
C      1  0.5149240000000  0.5898750000000  0.4930240000000 1.0
C      1  0.4871000000000  0.4135170000000  0.4958970000000 1.0
C      1  0.4864420000000  0.5892080000000  0.5030650000000 1.0
C      1  0.5158760000000  0.4117170000000  0.5045090000000 1.0
C      1  0.4118370000000  0.4397290000000  0.5208690000000 1.0
C      1  0.5848410000000  0.5573500000000  0.5193550000000 1.0
C      1  0.5854000000000  0.4403300000000  0.4791260000000 1.0
C      1  0.4130030000000  0.5592040000000  0.4786130000000 1.0
C      1  0.4204090000000  0.4720340000000  0.4741030000000 1.0
C      1  0.5797670000000  0.5279420000000  0.4734380000000 1.0
C      1  0.5761360000000  0.4729690000000  0.5257420000000 1.0
C      1  0.4211420000000  0.5265350000000  0.5253900000000 1.0
C      1  0.5318270000000  0.5348200000000  0.5780720000000 1.0
C      1  0.4670520000000  0.4645890000000  0.5777210000000 1.0
C      1  0.4683200000000  0.5331850000000  0.4206310000000 1.0
C      1  0.5283490000000  0.4678290000000  0.4222240000000 1.0
C      1  0.4292320000000  0.5089080000000  0.5475270000000 1.0
C      1  0.5696930000000  0.4902290000000  0.5483720000000 1.0
C      1  0.5705530000000  0.5103670000000  0.4516710000000 1.0
C      1  0.4317590000000  0.4893120000000  0.4533530000000 1.0
C      1  0.5104020000000  0.3963370000000  0.4588090000000 1.0
C      1  0.4879480000000  0.6060450000000  0.4575120000000 1.0
C      1  0.4903820000000  0.3982210000000  0.5424100000000 1.0
C      1  0.5121710000000  0.6050430000000  0.5388710000000 1.0
C      1  0.4334570000000  0.5658120000000  0.4975960000000 1.0
C      1  0.5653600000000  0.4339890000000  0.4987740000000 1.0
C      1  0.5578610000000  0.5532260000000  0.5052040000000 1.0
C      1  0.4333920000000  0.4339530000000  0.5026350000000 1.0
C      1  0.5566220000000  0.4957700000000  0.4938750000000 1.0
C      1  0.4427140000000  0.5040380000000  0.4939070000000 1.0
END
