TITL C-3577081-279-722 9.24713277204166e-07 125000 -536.356277285146 0 0 87 (C1) n - 1
REM
REM in /home/bkarasulu/work/CARBON/AIRSS/Generating-Clusters/EDIP-Nigel-Params/with-SteepDescent/Higher-Symm/SD-CG/HFTN-CG
REM
REM
REM
REM
REM
REM ./C.cell (12c818d87b63d06a65506943cc24bca4)
REM
REM compiler GCC version 9.2.1 20190827 (Red Hat 9.2.1-1)
REM options -cpp -mtune=generic -march=x86-64 -g -O0 -fpre-include=/usr/include/finclude/math-vector-fortran.h
REM seed 613844927 1411816417 571043541 1148395449 1181192836 -498669206 -251277083 1145331919 -238853225 1434368722 -1514863262 1365837725 -945987425 -2143604138 -717867673 -658092793 495904778 953442910 -46064808 -1913429354 1413021238 1952525623 -1709784159 -788152292 -763178330 1555413394 -800118361 901706589 1451535268 -1411164455 1396517338 -486706533 -2104489569
REM
CELL 1.54180   50.00000   50.00000   50.00000   90.00000   90.00000   90.00000
LATT -1
SFAC C  
C      1  0.4823610000000  0.5474600000000  0.4282060000000 1.0
C      1  0.4599650000000  0.4919490000000  0.4497240000000 1.0
C      1  0.4907080000000  0.4582100000000  0.4478790000000 1.0
C      1  0.5410490000000  0.4791190000000  0.4505560000000 1.0
C      1  0.5272820000000  0.5330270000000  0.4505410000000 1.0
C      1  0.4972730000000  0.4754520000000  0.5884860000000 1.0
C      1  0.5223730000000  0.4903750000000  0.5884970000000 1.0
C      1  0.5160290000000  0.5188120000000  0.5881660000000 1.0
C      1  0.4870450000000  0.5213450000000  0.5877810000000 1.0
C      1  0.4753730000000  0.4946470000000  0.5881400000000 1.0
C      1  0.4555010000000  0.4305210000000  0.4585080000000 1.0
C      1  0.5299590000000  0.4317810000000  0.4635310000000 1.0
C      1  0.5740710000000  0.5203100000000  0.4566770000000 1.0
C      1  0.4948720000000  0.5832160000000  0.4590120000000 1.0
C      1  0.4359040000000  0.5334560000000  0.4585700000000 1.0
C      1  0.5389690000000  0.4755150000000  0.4995750000000 1.0
C      1  0.5331590000000  0.5281110000000  0.4995830000000 1.0
C      1  0.4777970000000  0.5518180000000  0.5021920000000 1.0
C      1  0.4573660000000  0.4966850000000  0.4987870000000 1.0
C      1  0.4906410000000  0.4542180000000  0.4988980000000 1.0
C      1  0.4261530000000  0.4603830000000  0.4933300000000 1.0
C      1  0.5107530000000  0.4094410000000  0.5048460000000 1.0
C      1  0.5816840000000  0.4859840000000  0.4949210000000 1.0
C      1  0.5385190000000  0.5749600000000  0.4970140000000 1.0
C      1  0.4352790000000  0.5639450000000  0.5030290000000 1.0
C      1  0.4648560000000  0.5802610000000  0.4651150000000 1.0
C      1  0.4333540000000  0.5032250000000  0.4580430000000 1.0
C      1  0.4821010000000  0.4181270000000  0.4654850000000 1.0
C      1  0.5509750000000  0.4523560000000  0.4598420000000 1.0
C      1  0.5547050000000  0.5422970000000  0.4602130000000 1.0
C      1  0.5502760000000  0.4818320000000  0.5474550000000 1.0
C      1  0.5324090000000  0.5433530000000  0.5474810000000 1.0
C      1  0.4671080000000  0.5465420000000  0.5495270000000 1.0
C      1  0.4488220000000  0.4845370000000  0.5465440000000 1.0
C      1  0.4987120000000  0.4456770000000  0.5474670000000 1.0
C      1  0.4852750000000  0.5437260000000  0.4753230000000 1.0
C      1  0.4762980000000  0.4947500000000  0.4759080000000 1.0
C      1  0.4960760000000  0.4720450000000  0.4752100000000 1.0
C      1  0.5243680000000  0.4854640000000  0.4756120000000 1.0
C      1  0.5205580000000  0.5154730000000  0.4760920000000 1.0
C      1  0.5246790000000  0.4867260000000  0.4263580000000 1.0
C      1  0.5221350000000  0.5164290000000  0.4246990000000 1.0
C      1  0.4929860000000  0.5216010000000  0.4178190000000 1.0
C      1  0.4770960000000  0.4971500000000  0.4235770000000 1.0
C      1  0.4976930000000  0.4755370000000  0.4247050000000 1.0
C      1  0.5360770000000  0.4125380000000  0.4853040000000 1.0
C      1  0.5900390000000  0.5150370000000  0.4810460000000 1.0
C      1  0.5082280000000  0.5792190000000  0.4855210000000 1.0
C      1  0.4389090000000  0.5357600000000  0.4886180000000 1.0
C      1  0.4367270000000  0.4304020000000  0.4821700000000 1.0
C      1  0.5055120000000  0.5588490000000  0.4441130000000 1.0
C      1  0.4624460000000  0.5498770000000  0.4524300000000 1.0
C      1  0.4605650000000  0.4564390000000  0.4464740000000 1.0
C      1  0.5037620000000  0.4312960000000  0.4496150000000 1.0
C      1  0.5631150000000  0.4965430000000  0.4484220000000 1.0
C      1  0.4151460000000  0.5149110000000  0.5040200000000 1.0
C      1  0.4561090000000  0.4202550000000  0.5059510000000 1.0
C      1  0.5577130000000  0.4294340000000  0.5026400000000 1.0
C      1  0.5800010000000  0.5367760000000  0.5023490000000 1.0
C      1  0.4912820000000  0.5935390000000  0.5085190000000 1.0
C      1  0.4521230000000  0.4884390000000  0.5740190000000 1.0
C      1  0.4951660000000  0.4513980000000  0.5745220000000 1.0
C      1  0.5446660000000  0.4807810000000  0.5747700000000 1.0
C      1  0.5324000000000  0.5369910000000  0.5747180000000 1.0
C      1  0.4738980000000  0.5431210000000  0.5763630000000 1.0
C      1  0.4888050000000  0.5408410000000  0.5293020000000 1.0
C      1  0.4636000000000  0.5037530000000  0.5280250000000 1.0
C      1  0.4871580000000  0.4653220000000  0.5269340000000 1.0
C      1  0.5277010000000  0.4751840000000  0.5279150000000 1.0
C      1  0.5301540000000  0.5201600000000  0.5283490000000 1.0
C      1  0.4477470000000  0.5281160000000  0.5393380000000 1.0
C      1  0.4586000000000  0.4602640000000  0.5358340000000 1.0
C      1  0.5254650000000  0.4463840000000  0.5383230000000 1.0
C      1  0.5562940000000  0.5075290000000  0.5370720000000 1.0
C      1  0.5107380000000  0.5594740000000  0.5392020000000 1.0
C      1  0.4302210000000  0.4921460000000  0.4883550000000 1.0
C      1  0.4852790000000  0.4247520000000  0.4951790000000 1.0
C      1  0.5609590000000  0.4576920000000  0.4892570000000 1.0
C      1  0.5530650000000  0.5476590000000  0.4907470000000 1.0
C      1  0.4631210000000  0.5775180000000  0.4967850000000 1.0
C      1  0.5185900000000  0.5831510000000  0.5228600000000 1.0
C      1  0.4248540000000  0.5389320000000  0.5232720000000 1.0
C      1  0.4399600000000  0.4447910000000  0.5182150000000 1.0
C      1  0.5343430000000  0.4223970000000  0.5229540000000 1.0
C      1  0.5796390000000  0.5086420000000  0.5181520000000 1.0
C      1  0.4930190000000  0.5175370000000  0.4782210000000 1.0
C      1  0.4990790000000  0.5038900000000  0.5315850000000 1.0
END
