TITL C-3577087-600-299 -4.3399168693689e-06 125000 -1211.3464548241 0 0 195 (C1) n - 1
REM
REM in /home/bkarasulu/work/CARBON/AIRSS/Generating-Clusters/EDIP-Nigel-Params/with-SteepDescent/Higher-Symm/SD-CG/HFTN-CG
REM
REM
REM
REM
REM
REM ./C.cell (12c818d87b63d06a65506943cc24bca4)
REM
REM compiler GCC version 9.2.1 20190827 (Red Hat 9.2.1-1)
REM options -cpp -mtune=generic -march=x86-64 -g -O0 -fpre-include=/usr/include/finclude/math-vector-fortran.h
REM seed -1572664037 1142752207 -769603817 -198283413 1509351217 1020870919 1363595093 -1823757357 -311987058 -1488203198 -54948576 -929543213 -1503726302 219465624 920975508 563985514 -1429444097 -797090673 4396164 -2003752766 405544464 -1167468718 1139086642 -805808479 1085056372 -950997134 -2144437080 1793195938 55102099 54098937 -1419154012 -407398132 -467506983
REM
CELL 1.54180   50.00000   50.00000   50.00000   90.00000   90.00000   90.00000
LATT -1
SFAC C  
C      1  0.5331770000000  0.5250860000000  0.5445190000000 1.0
C      1  0.4958520000000  0.5222950000000  0.5681190000000 1.0
C      1  0.4796110000000  0.5119590000000  0.5923250000000 1.0
C      1  0.4671710000000  0.4846020000000  0.5492300000000 1.0
C      1  0.4763970000000  0.4535870000000  0.5412990000000 1.0
C      1  0.5062050000000  0.4526730000000  0.5418930000000 1.0
C      1  0.5200300000000  0.4777240000000  0.5497160000000 1.0
C      1  0.5627340000000  0.4447940000000  0.4125110000000 1.0
C      1  0.5824250000000  0.5130950000000  0.4047410000000 1.0
C      1  0.5376890000000  0.5690440000000  0.4136290000000 1.0
C      1  0.4667290000000  0.5768920000000  0.4155920000000 1.0
C      1  0.4178950000000  0.5227620000000  0.4186470000000 1.0
C      1  0.4310250000000  0.4526680000000  0.4158060000000 1.0
C      1  0.4952380000000  0.4171390000000  0.4154290000000 1.0
C      1  0.4762860000000  0.4911410000000  0.4708070000000 1.0
C      1  0.4954220000000  0.4714460000000  0.4720060000000 1.0
C      1  0.5225570000000  0.4755160000000  0.4738120000000 1.0
C      1  0.5353840000000  0.4996240000000  0.4760390000000 1.0
C      1  0.5251470000000  0.5250230000000  0.4737900000000 1.0
C      1  0.5000860000000  0.5359690000000  0.4840070000000 1.0
C      1  0.4756910000000  0.5176620000000  0.4816870000000 1.0
C      1  0.6084510000000  0.4795760000000  0.5080370000000 1.0
C      1  0.5910600000000  0.5740210000000  0.5000180000000 1.0
C      1  0.5084300000000  0.6092780000000  0.5153160000000 1.0
C      1  0.4185460000000  0.5742090000000  0.5247820000000 1.0
C      1  0.3876540000000  0.4759020000000  0.5213540000000 1.0
C      1  0.4491740000000  0.3968500000000  0.5186520000000 1.0
C      1  0.5486770000000  0.4032730000000  0.5178560000000 1.0
C      1  0.5975350000000  0.4383740000000  0.4807640000000 1.0
C      1  0.6059510000000  0.5356340000000  0.4677470000000 1.0
C      1  0.5458410000000  0.6107190000000  0.4772670000000 1.0
C      1  0.4454980000000  0.6000400000000  0.4896920000000 1.0
C      1  0.3946640000000  0.5158450000000  0.4912450000000 1.0
C      1  0.4170390000000  0.4186080000000  0.4850760000000 1.0
C      1  0.5110040000000  0.3876400000000  0.4861730000000 1.0
C      1  0.5416230000000  0.4837550000000  0.4352790000000 1.0
C      1  0.5409440000000  0.5177360000000  0.4334650000000 1.0
C      1  0.5011610000000  0.5367480000000  0.4380740000000 1.0
C      1  0.4694890000000  0.5300240000000  0.4366390000000 1.0
C      1  0.4594880000000  0.5004220000000  0.4312700000000 1.0
C      1  0.4801790000000  0.4740200000000  0.4304380000000 1.0
C      1  0.5131490000000  0.4632590000000  0.4326220000000 1.0
C      1  0.5248460000000  0.5722260000000  0.4994190000000 1.0
C      1  0.4553850000000  0.5602060000000  0.5056670000000 1.0
C      1  0.4289010000000  0.4823200000000  0.5079080000000 1.0
C      1  0.4559820000000  0.4416090000000  0.4966950000000 1.0
C      1  0.5177240000000  0.4289540000000  0.5007190000000 1.0
C      1  0.5590340000000  0.4770650000000  0.5136540000000 1.0
C      1  0.5585380000000  0.5294530000000  0.5075450000000 1.0
C      1  0.5697050000000  0.5275830000000  0.4779720000000 1.0
C      1  0.5266590000000  0.5691240000000  0.4681880000000 1.0
C      1  0.4611180000000  0.5615380000000  0.4742300000000 1.0
C      1  0.4283570000000  0.4898120000000  0.4785370000000 1.0
C      1  0.4566780000000  0.4474130000000  0.4673020000000 1.0
C      1  0.5157250000000  0.4315500000000  0.4699450000000 1.0
C      1  0.5661850000000  0.4675690000000  0.4768070000000 1.0
C      1  0.4319220000000  0.5264120000000  0.5387550000000 1.0
C      1  0.4337870000000  0.4425680000000  0.5440680000000 1.0
C      1  0.4827060000000  0.4184760000000  0.5567780000000 1.0
C      1  0.5472400000000  0.4680040000000  0.5598140000000 1.0
C      1  0.5571750000000  0.5106500000000  0.5539140000000 1.0
C      1  0.5364600000000  0.5538410000000  0.5467320000000 1.0
C      1  0.4807910000000  0.5464860000000  0.5519170000000 1.0
C      1  0.5530520000000  0.4144520000000  0.4922530000000 1.0
C      1  0.6205120000000  0.4893290000000  0.4847410000000 1.0
C      1  0.5956770000000  0.5970050000000  0.4841540000000 1.0
C      1  0.4975910000000  0.5992600000000  0.4910340000000 1.0
C      1  0.4173870000000  0.5648330000000  0.4980630000000 1.0
C      1  0.3890630000000  0.4607300000000  0.4978530000000 1.0
C      1  0.4678490000000  0.4119810000000  0.5016880000000 1.0
C      1  0.4674430000000  0.4230970000000  0.4163520000000 1.0
C      1  0.5412350000000  0.4261630000000  0.4136760000000 1.0
C      1  0.5820510000000  0.4850580000000  0.4100920000000 1.0
C      1  0.5610170000000  0.5537700000000  0.4102860000000 1.0
C      1  0.4948290000000  0.5804170000000  0.4168910000000 1.0
C      1  0.4287670000000  0.5493820000000  0.4173410000000 1.0
C      1  0.4179360000000  0.4776270000000  0.4179380000000 1.0
C      1  0.4982660000000  0.3839210000000  0.5351780000000 1.0
C      1  0.5909340000000  0.4326060000000  0.5285760000000 1.0
C      1  0.6076740000000  0.5285950000000  0.5154440000000 1.0
C      1  0.5611450000000  0.6042300000000  0.5238450000000 1.0
C      1  0.4608130000000  0.6042370000000  0.5356240000000 1.0
C      1  0.3935870000000  0.5279630000000  0.5389360000000 1.0
C      1  0.4063900000000  0.4329300000000  0.5427570000000 1.0
C      1  0.5398590000000  0.5277440000000  0.5977630000000 1.0
C      1  0.4969950000000  0.5542170000000  0.5982230000000 1.0
C      1  0.4494550000000  0.5427260000000  0.5831940000000 1.0
C      1  0.4418930000000  0.4947740000000  0.5784780000000 1.0
C      1  0.4653930000000  0.4577670000000  0.5838740000000 1.0
C      1  0.5106090000000  0.4444220000000  0.5938140000000 1.0
C      1  0.5515080000000  0.4775980000000  0.6027620000000 1.0
C      1  0.4225160000000  0.4118300000000  0.5147740000000 1.0
C      1  0.5211550000000  0.3877600000000  0.5147670000000 1.0
C      1  0.5945310000000  0.4522810000000  0.5066740000000 1.0
C      1  0.6047440000000  0.5479710000000  0.4953590000000 1.0
C      1  0.5396410000000  0.6121630000000  0.5070230000000 1.0
C      1  0.4387940000000  0.5976580000000  0.5188820000000 1.0
C      1  0.3988430000000  0.5051830000000  0.5189920000000 1.0
C      1  0.4608100000000  0.4517980000000  0.4110710000000 1.0
C      1  0.5148150000000  0.4397600000000  0.4102760000000 1.0
C      1  0.5549800000000  0.4737980000000  0.4093700000000 1.0
C      1  0.5545930000000  0.5254640000000  0.4068950000000 1.0
C      1  0.5103520000000  0.5550060000000  0.4133930000000 1.0
C      1  0.4583290000000  0.5478920000000  0.4131020000000 1.0
C      1  0.4359340000000  0.5003820000000  0.4109170000000 1.0
C      1  0.4773040000000  0.4728230000000  0.3885630000000 1.0
C      1  0.5077830000000  0.4654140000000  0.3895970000000 1.0
C      1  0.5316540000000  0.4842350000000  0.3895000000000 1.0
C      1  0.5299130000000  0.5146840000000  0.3903180000000 1.0
C      1  0.5050320000000  0.5329320000000  0.3922950000000 1.0
C      1  0.4749590000000  0.5278370000000  0.3908780000000 1.0
C      1  0.4625760000000  0.5003920000000  0.3876220000000 1.0
C      1  0.4468220000000  0.5205870000000  0.5637980000000 1.0
C      1  0.4402350000000  0.4576260000000  0.5686490000000 1.0
C      1  0.4851750000000  0.4364430000000  0.5810470000000 1.0
C      1  0.5458590000000  0.4548330000000  0.5855430000000 1.0
C      1  0.5575430000000  0.5083700000000  0.5840460000000 1.0
C      1  0.5229780000000  0.5462630000000  0.5815170000000 1.0
C      1  0.4740250000000  0.5594910000000  0.5783410000000 1.0
C      1  0.4019770000000  0.5461570000000  0.4567400000000 1.0
C      1  0.3982650000000  0.4488220000000  0.4510580000000 1.0
C      1  0.4761560000000  0.3927390000000  0.4523230000000 1.0
C      1  0.5729290000000  0.4128790000000  0.4475800000000 1.0
C      1  0.6167190000000  0.5016370000000  0.4381220000000 1.0
C      1  0.5717460000000  0.5888480000000  0.4416000000000 1.0
C      1  0.4759800000000  0.6089770000000  0.4509260000000 1.0
C      1  0.5989100000000  0.5032950000000  0.5237260000000 1.0
C      1  0.5713440000000  0.5779290000000  0.5214030000000 1.0
C      1  0.4872480000000  0.5939650000000  0.5336560000000 1.0
C      1  0.4062030000000  0.5544550000000  0.5434430000000 1.0
C      1  0.3917700000000  0.4570360000000  0.5418300000000 1.0
C      1  0.4681200000000  0.3879190000000  0.5406700000000 1.0
C      1  0.5664070000000  0.4183970000000  0.5358810000000 1.0
C      1  0.4938650000000  0.5254040000000  0.6162030000000 1.0
C      1  0.4490750000000  0.5294970000000  0.6083900000000 1.0
C      1  0.4397800000000  0.5020320000000  0.6080620000000 1.0
C      1  0.4778070000000  0.4797070000000  0.6016630000000 1.0
C      1  0.5043300000000  0.4681460000000  0.6093880000000 1.0
C      1  0.5267990000000  0.4854330000000  0.6164840000000 1.0
C      1  0.5221300000000  0.5145610000000  0.6170400000000 1.0
C      1  0.4910520000000  0.4180550000000  0.5195220000000 1.0
C      1  0.5621080000000  0.4568070000000  0.5364400000000 1.0
C      1  0.5695040000000  0.5045020000000  0.5252670000000 1.0
C      1  0.5486770000000  0.5585340000000  0.5191890000000 1.0
C      1  0.4822970000000  0.5642750000000  0.5252110000000 1.0
C      1  0.4487260000000  0.5327460000000  0.5153240000000 1.0
C      1  0.4295490000000  0.4507450000000  0.5114330000000 1.0
C      1  0.4019460000000  0.4980670000000  0.4649360000000 1.0
C      1  0.4372780000000  0.4246690000000  0.4571160000000 1.0
C      1  0.5220220000000  0.4034880000000  0.4563880000000 1.0
C      1  0.5916730000000  0.4566810000000  0.4541000000000 1.0
C      1  0.6014870000000  0.5475350000000  0.4396810000000 1.0
C      1  0.5274390000000  0.5966180000000  0.4543920000000 1.0
C      1  0.4404630000000  0.5804280000000  0.4588620000000 1.0
C      1  0.5456330000000  0.4080670000000  0.4373300000000 1.0
C      1  0.5983870000000  0.4795010000000  0.4340540000000 1.0
C      1  0.5768350000000  0.5613900000000  0.4335470000000 1.0
C      1  0.5001330000000  0.5965320000000  0.4409540000000 1.0
C      1  0.4200290000000  0.5639330000000  0.4425670000000 1.0
C      1  0.3985230000000  0.4766130000000  0.4414400000000 1.0
C      1  0.4548750000000  0.4083680000000  0.4394580000000 1.0
C      1  0.4690390000000  0.5132350000000  0.5098220000000 1.0
C      1  0.4575520000000  0.4870550000000  0.5183680000000 1.0
C      1  0.4738950000000  0.4620310000000  0.5094450000000 1.0
C      1  0.5096790000000  0.4572120000000  0.5118160000000 1.0
C      1  0.5295310000000  0.4835380000000  0.5168500000000 1.0
C      1  0.5239120000000  0.5147490000000  0.5160890000000 1.0
C      1  0.5044470000000  0.5535100000000  0.5080850000000 1.0
C      1  0.5390230000000  0.4535200000000  0.4671410000000 1.0
C      1  0.5634280000000  0.4978200000000  0.4710380000000 1.0
C      1  0.5473900000000  0.5406080000000  0.4589990000000 1.0
C      1  0.4977010000000  0.5573520000000  0.4615900000000 1.0
C      1  0.4586260000000  0.5344370000000  0.4641700000000 1.0
C      1  0.4506000000000  0.4788250000000  0.4623320000000 1.0
C      1  0.4876790000000  0.4453000000000  0.4630800000000 1.0
C      1  0.5778440000000  0.4155710000000  0.4769070000000 1.0
C      1  0.6213850000000  0.5099190000000  0.4657590000000 1.0
C      1  0.5720620000000  0.5992330000000  0.4689370000000 1.0
C      1  0.4724870000000  0.6087090000000  0.4802000000000 1.0
C      1  0.4011940000000  0.5444250000000  0.4855190000000 1.0
C      1  0.4000840000000  0.4424420000000  0.4796340000000 1.0
C      1  0.4820760000000  0.3932920000000  0.4813980000000 1.0
C      1  0.5448580000000  0.5921710000000  0.4310510000000 1.0
C      1  0.4547520000000  0.5946290000000  0.4370110000000 1.0
C      1  0.4039050000000  0.5205600000000  0.4444720000000 1.0
C      1  0.4192310000000  0.4351950000000  0.4363890000000 1.0
C      1  0.5005080000000  0.3972730000000  0.4368640000000 1.0
C      1  0.5822150000000  0.4368450000000  0.4337190000000 1.0
C      1  0.6055790000000  0.5240420000000  0.4216800000000 1.0
C      1  0.4761890000000  0.5119720000000  0.6387670000000 1.0
C      1  0.4605810000000  0.4894040000000  0.6258840000000 1.0
C      1  0.4948470000000  0.5141100000000  0.5249100000000 1.0
C      1  0.5079050000000  0.5009260000000  0.4412270000000 1.0
C      1  0.4945820000000  0.4990160000000  0.5497060000000 1.0
C      1  0.4878770000000  0.5061100000000  0.6619600000000 1.0
END
