TITL C-3578209-2550-26 2.04289723581489e-06 125000 -710.240549247213 0 0 114 (C2) n - 1
REM
REM in /home/bkarasulu/work/CARBON/AIRSS/Generating-Clusters/EDIP-Nigel-Params/with-SteepDescent/Higher-Symm/SD-CG/HFTN-CG
REM
REM
REM
REM
REM
REM ./C.cell (12c818d87b63d06a65506943cc24bca4)
REM
REM compiler GCC version 9.2.1 20190827 (Red Hat 9.2.1-1)
REM options -cpp -mtune=generic -march=x86-64 -g -O0 -fpre-include=/usr/include/finclude/math-vector-fortran.h
REM seed 436937338 662680631 589066266 683871658 323412185 -104537910 -1596024712 -668864430 1091521892 -788006096 1516599666 579555680 1480080584 -1462914069 -718412540 -2055693819 -1727747709 1760538805 1222532543 -1786318583 -1773539764 877055816 -646093592 -2131207040 -1072673635 669604955 -309069442 -777128984 1632187915 -304922291 972810569 -140291140 1824176194
REM
CELL 1.54180   50.00000   50.00000   50.00000   90.00000   90.00000   90.00000
LATT -1
SFAC C  
C      1  0.4405790000000  0.4936820000000  0.5007350000000 1.0
C      1  0.5594210000000  0.5063180000000  0.5007350000000 1.0
C      1  0.4566290000000  0.4376270000000  0.5174190000000 1.0
C      1  0.5433710000000  0.5623740000000  0.5174190000000 1.0
C      1  0.5096240000000  0.5362660000000  0.5367260000000 1.0
C      1  0.4903760000000  0.4637340000000  0.5367260000000 1.0
C      1  0.4901030000000  0.4879300000000  0.4414590000000 1.0
C      1  0.5098970000000  0.5120690000000  0.4414590000000 1.0
C      1  0.5459680000000  0.4427910000000  0.5188300000000 1.0
C      1  0.4540320000000  0.5572090000000  0.5188290000000 1.0
C      1  0.4381180000000  0.4354160000000  0.4937710000000 1.0
C      1  0.5618820000000  0.5645840000000  0.4937700000000 1.0
C      1  0.4905260000000  0.5823320000000  0.4706670000000 1.0
C      1  0.5094740000000  0.4176680000000  0.4706680000000 1.0
C      1  0.4810650000000  0.5538840000000  0.4609930000000 1.0
C      1  0.5189350000000  0.4461160000000  0.4609940000000 1.0
C      1  0.4209190000000  0.4855670000000  0.5578570000000 1.0
C      1  0.5790800000000  0.5144340000000  0.5578570000000 1.0
C      1  0.4774690000000  0.5503820000000  0.5818520000000 1.0
C      1  0.5225310000000  0.4496190000000  0.5818520000000 1.0
C      1  0.5260950000000  0.5218020000000  0.5147300000000 1.0
C      1  0.4739050000000  0.4781980000000  0.5147300000000 1.0
C      1  0.4211280000000  0.4468410000000  0.4476620000000 1.0
C      1  0.5788720000000  0.5531590000000  0.4476610000000 1.0
C      1  0.4429580000000  0.4844040000000  0.4264200000000 1.0
C      1  0.5570420000000  0.5155950000000  0.4264200000000 1.0
C      1  0.5697580000000  0.4790650000000  0.4849830000000 1.0
C      1  0.4302430000000  0.5209350000000  0.4849830000000 1.0
C      1  0.5542730000000  0.5170200000000  0.4705110000000 1.0
C      1  0.4457270000000  0.4829790000000  0.4705110000000 1.0
C      1  0.4982160000000  0.5679190000000  0.5690440000000 1.0
C      1  0.5017840000000  0.4320820000000  0.5690440000000 1.0
C      1  0.4507210000000  0.4452150000000  0.5453360000000 1.0
C      1  0.5492790000000  0.5547850000000  0.5453360000000 1.0
C      1  0.5930560000000  0.4968930000000  0.4702830000000 1.0
C      1  0.4069440000000  0.5031070000000  0.4702830000000 1.0
C      1  0.5511830000000  0.4206270000000  0.4981210000000 1.0
C      1  0.4488170000000  0.5793730000000  0.4981190000000 1.0
C      1  0.4812200000000  0.4225470000000  0.5140060000000 1.0
C      1  0.5187800000000  0.5774530000000  0.5140050000000 1.0
C      1  0.4429130000000  0.5312560000000  0.4387530000000 1.0
C      1  0.5570870000000  0.4687430000000  0.4387540000000 1.0
C      1  0.5933820000000  0.4981540000000  0.5360440000000 1.0
C      1  0.4066180000000  0.5018470000000  0.5360430000000 1.0
C      1  0.5738000000000  0.5401700000000  0.5456340000000 1.0
C      1  0.4262000000000  0.4598310000000  0.5456340000000 1.0
C      1  0.5327360000000  0.4746490000000  0.4222470000000 1.0
C      1  0.4672640000000  0.5253500000000  0.4222460000000 1.0
C      1  0.5072420000000  0.4626600000000  0.4344710000000 1.0
C      1  0.4927580000000  0.5373390000000  0.4344710000000 1.0
C      1  0.5143510000000  0.5328200000000  0.4873040000000 1.0
C      1  0.4856490000000  0.4671800000000  0.4873050000000 1.0
C      1  0.4031680000000  0.4762560000000  0.4850920000000 1.0
C      1  0.5968320000000  0.5237430000000  0.4850920000000 1.0
C      1  0.4696090000000  0.4956520000000  0.4201080000000 1.0
C      1  0.5303920000000  0.5043470000000  0.4201080000000 1.0
C      1  0.5363900000000  0.4701010000000  0.5028840000000 1.0
C      1  0.4636100000000  0.5298990000000  0.5028840000000 1.0
C      1  0.5317240000000  0.5588760000000  0.4327730000000 1.0
C      1  0.4682770000000  0.4411230000000  0.4327740000000 1.0
C      1  0.5336540000000  0.4613270000000  0.5558230000000 1.0
C      1  0.4663460000000  0.5386740000000  0.5558220000000 1.0
C      1  0.5565070000000  0.4984690000000  0.5710820000000 1.0
C      1  0.4434920000000  0.5015320000000  0.5710820000000 1.0
C      1  0.4264750000000  0.4576350000000  0.4740640000000 1.0
C      1  0.5735260000000  0.5423650000000  0.4740640000000 1.0
C      1  0.4825590000000  0.4741290000000  0.5845850000000 1.0
C      1  0.5174400000000  0.5258720000000  0.5845850000000 1.0
C      1  0.5841920000000  0.5197460000000  0.5144460000000 1.0
C      1  0.4158080000000  0.4802540000000  0.5144460000000 1.0
C      1  0.5452540000000  0.5794080000000  0.4744550000000 1.0
C      1  0.4547460000000  0.4205920000000  0.4744560000000 1.0
C      1  0.4394800000000  0.5276570000000  0.5615180000000 1.0
C      1  0.5605190000000  0.4723440000000  0.5615180000000 1.0
C      1  0.5026310000000  0.4393810000000  0.5235710000000 1.0
C      1  0.4973690000000  0.5606200000000  0.5235700000000 1.0
C      1  0.4243890000000  0.5498210000000  0.5228190000000 1.0
C      1  0.5756110000000  0.4501790000000  0.5228200000000 1.0
C      1  0.5145670000000  0.4642310000000  0.4833310000000 1.0
C      1  0.4854330000000  0.5357690000000  0.4833300000000 1.0
C      1  0.5721720000000  0.4948150000000  0.4441590000000 1.0
C      1  0.4278280000000  0.5051850000000  0.4441590000000 1.0
C      1  0.4825940000000  0.4116370000000  0.4862740000000 1.0
C      1  0.5174060000000  0.5883630000000  0.4862730000000 1.0
C      1  0.4779870000000  0.4522180000000  0.5631000000000 1.0
C      1  0.5220120000000  0.5477830000000  0.5630990000000 1.0
C      1  0.5092840000000  0.5529780000000  0.4165750000000 1.0
C      1  0.4907160000000  0.4470210000000  0.4165750000000 1.0
C      1  0.4696830000000  0.5929220000000  0.4856110000000 1.0
C      1  0.5303170000000  0.4070770000000  0.4856130000000 1.0
C      1  0.5756680000000  0.4747380000000  0.5378340000000 1.0
C      1  0.4243310000000  0.5252620000000  0.5378330000000 1.0
C      1  0.5230630000000  0.4920090000000  0.5198600000000 1.0
C      1  0.4769370000000  0.5079910000000  0.5198600000000 1.0
C      1  0.5115080000000  0.4757630000000  0.5910710000000 1.0
C      1  0.4884920000000  0.5242380000000  0.5910710000000 1.0
C      1  0.5582630000000  0.5449640000000  0.4299950000000 1.0
C      1  0.4417380000000  0.4550350000000  0.4299950000000 1.0
C      1  0.5844350000000  0.4540210000000  0.4950060000000 1.0
C      1  0.4155650000000  0.5459790000000  0.4950050000000 1.0
C      1  0.4736040000000  0.4404440000000  0.4621240000000 1.0
C      1  0.5263960000000  0.5595550000000  0.4621240000000 1.0
C      1  0.5200690000000  0.4274140000000  0.5437900000000 1.0
C      1  0.4799310000000  0.5725870000000  0.5437890000000 1.0
C      1  0.4508980000000  0.5504480000000  0.4596010000000 1.0
C      1  0.5491030000000  0.4495520000000  0.4596020000000 1.0
C      1  0.5248190000000  0.5159090000000  0.4670300000000 1.0
C      1  0.4751810000000  0.4840900000000  0.4670300000000 1.0
C      1  0.5677340000000  0.4352560000000  0.4784620000000 1.0
C      1  0.4322660000000  0.5647430000000  0.4784610000000 1.0
C      1  0.5113720000000  0.4841590000000  0.5453500000000 1.0
C      1  0.4886280000000  0.5158410000000  0.5453490000000 1.0
C      1  0.4714750000000  0.5002560000000  0.5817520000000 1.0
C      1  0.5285250000000  0.4997450000000  0.5817520000000 1.0
END
