TITL C-3578206-1180-351 1.35523086360955e-06 125000 -1165.25277480848 0 0 184 (C1) n - 1
REM
REM in /home/bkarasulu/work/CARBON/AIRSS/Generating-Clusters/EDIP-Nigel-Params/with-SteepDescent/Higher-Symm/SD-CG/HFTN-CG
REM
REM
REM
REM
REM
REM ./C.cell (12c818d87b63d06a65506943cc24bca4)
REM
REM compiler GCC version 9.2.1 20190827 (Red Hat 9.2.1-1)
REM options -cpp -mtune=generic -march=x86-64 -g -O0 -fpre-include=/usr/include/finclude/math-vector-fortran.h
REM seed -1299253844 -362336745 875619912 1597930340 446543778 1113262675 1874212104 1159880716 -1756946885 -1074527696 -121425658 1479922825 101707823 951194671 628093872 -1727936653 -1619003490 -1981269539 -2025108273 -562334346 -1397715980 2075045455 -560209123 -219152255 -610082946 -243989050 1619419331 -1494669052 -474378879 -1888325785 -1964796460 832127909 -753684290
REM
CELL 1.54180   50.00000   50.00000   50.00000   90.00000   90.00000   90.00000
LATT -1
SFAC C  
C      1  0.4464880000000  0.3833350000000  0.4884520000000 1.0
C      1  0.4554940000000  0.4224640000000  0.5094010000000 1.0
C      1  0.4993840000000  0.5929120000000  0.5114950000000 1.0
C      1  0.4655060000000  0.4707480000000  0.5237190000000 1.0
C      1  0.5111960000000  0.5511330000000  0.4934830000000 1.0
C      1  0.4794420000000  0.5790530000000  0.5660890000000 1.0
C      1  0.5535260000000  0.5697120000000  0.5749500000000 1.0
C      1  0.5772980000000  0.4170100000000  0.5101840000000 1.0
C      1  0.3984980000000  0.4908010000000  0.4779040000000 1.0
C      1  0.4499110000000  0.4785280000000  0.4405570000000 1.0
C      1  0.4614120000000  0.5287340000000  0.4545550000000 1.0
C      1  0.5940730000000  0.4366790000000  0.5486610000000 1.0
C      1  0.6009490000000  0.5106060000000  0.5492410000000 1.0
C      1  0.5245750000000  0.4276590000000  0.5531330000000 1.0
C      1  0.5580380000000  0.4495970000000  0.5146970000000 1.0
C      1  0.5418460000000  0.5574830000000  0.4042200000000 1.0
C      1  0.4107460000000  0.5148710000000  0.4415050000000 1.0
C      1  0.5714520000000  0.4749430000000  0.5296910000000 1.0
C      1  0.4421560000000  0.4450140000000  0.4360960000000 1.0
C      1  0.4355390000000  0.5337720000000  0.5725560000000 1.0
C      1  0.5465330000000  0.4528550000000  0.4869600000000 1.0
C      1  0.5283990000000  0.4611110000000  0.5874010000000 1.0
C      1  0.5162040000000  0.5694680000000  0.6053410000000 1.0
C      1  0.4894310000000  0.5193410000000  0.5415490000000 1.0
C      1  0.4598140000000  0.5708350000000  0.5479570000000 1.0
C      1  0.4905390000000  0.4245850000000  0.4193020000000 1.0
C      1  0.5327410000000  0.4452230000000  0.5307220000000 1.0
C      1  0.4746190000000  0.3805400000000  0.5030390000000 1.0
C      1  0.5949190000000  0.5640260000000  0.4847320000000 1.0
C      1  0.5635470000000  0.5816400000000  0.5506570000000 1.0
C      1  0.5522520000000  0.5100600000000  0.6019670000000 1.0
C      1  0.4951730000000  0.5748780000000  0.4162210000000 1.0
C      1  0.4579710000000  0.5242240000000  0.5898830000000 1.0
C      1  0.5574700000000  0.4373610000000  0.5808170000000 1.0
C      1  0.4789030000000  0.5417000000000  0.5943660000000 1.0
C      1  0.5232990000000  0.3960070000000  0.4436890000000 1.0
C      1  0.5222750000000  0.4072750000000  0.4917360000000 1.0
C      1  0.4640060000000  0.4341840000000  0.4202810000000 1.0
C      1  0.5215450000000  0.5028110000000  0.4955580000000 1.0
C      1  0.4096440000000  0.4659410000000  0.4344880000000 1.0
C      1  0.5071390000000  0.4398340000000  0.4616070000000 1.0
C      1  0.4709060000000  0.4197350000000  0.4823800000000 1.0
C      1  0.4732360000000  0.5227250000000  0.4806110000000 1.0
C      1  0.3740140000000  0.5030430000000  0.5150760000000 1.0
C      1  0.5148460000000  0.5912660000000  0.4680330000000 1.0
C      1  0.5664620000000  0.5116840000000  0.4884370000000 1.0
C      1  0.4832790000000  0.5239010000000  0.4356610000000 1.0
C      1  0.4619280000000  0.5219000000000  0.5310550000000 1.0
C      1  0.4145740000000  0.4474270000000  0.5484810000000 1.0
C      1  0.5735600000000  0.5395170000000  0.5298020000000 1.0
C      1  0.4755020000000  0.3960810000000  0.5538150000000 1.0
C      1  0.5988910000000  0.4338440000000  0.5195380000000 1.0
C      1  0.4994330000000  0.5319770000000  0.3906260000000 1.0
C      1  0.5063900000000  0.5449550000000  0.5949540000000 1.0
C      1  0.4383390000000  0.4212940000000  0.5757380000000 1.0
C      1  0.4005790000000  0.5113140000000  0.5422990000000 1.0
C      1  0.4280710000000  0.5767130000000  0.5120780000000 1.0
C      1  0.5350850000000  0.6042650000000  0.4860840000000 1.0
C      1  0.5523260000000  0.4210050000000  0.4493340000000 1.0
C      1  0.4803070000000  0.4448660000000  0.4699410000000 1.0
C      1  0.5370300000000  0.4865130000000  0.5681720000000 1.0
C      1  0.4592880000000  0.5308800000000  0.5028660000000 1.0
C      1  0.5122780000000  0.4741730000000  0.5041940000000 1.0
C      1  0.4867890000000  0.4842880000000  0.4027370000000 1.0
C      1  0.5369500000000  0.4816040000000  0.4051230000000 1.0
C      1  0.4935340000000  0.3973570000000  0.4850830000000 1.0
C      1  0.5473730000000  0.4722740000000  0.4637710000000 1.0
C      1  0.5412810000000  0.5546950000000  0.4910410000000 1.0
C      1  0.4309910000000  0.5300500000000  0.4970890000000 1.0
C      1  0.4523250000000  0.5873930000000  0.5251460000000 1.0
C      1  0.5192430000000  0.4701450000000  0.5320340000000 1.0
C      1  0.4483310000000  0.4929470000000  0.5344980000000 1.0
C      1  0.5656690000000  0.4855270000000  0.5949850000000 1.0
C      1  0.4765100000000  0.4026780000000  0.5252880000000 1.0
C      1  0.5299520000000  0.5312550000000  0.3960570000000 1.0
C      1  0.4841360000000  0.4798730000000  0.5031410000000 1.0
C      1  0.5996230000000  0.4600650000000  0.5070900000000 1.0
C      1  0.5189660000000  0.6163930000000  0.5070490000000 1.0
C      1  0.4792840000000  0.4922960000000  0.4314830000000 1.0
C      1  0.5811800000000  0.5260420000000  0.4458370000000 1.0
C      1  0.4017690000000  0.4486020000000  0.4916370000000 1.0
C      1  0.4662700000000  0.4189130000000  0.5677620000000 1.0
C      1  0.4014200000000  0.4655850000000  0.4627850000000 1.0
C      1  0.4962940000000  0.4834360000000  0.4544900000000 1.0
C      1  0.5543520000000  0.5322130000000  0.5784190000000 1.0
C      1  0.4400270000000  0.4474480000000  0.5901240000000 1.0
C      1  0.4829140000000  0.5460010000000  0.4114520000000 1.0
C      1  0.5909940000000  0.5163250000000  0.4730930000000 1.0
C      1  0.4377830000000  0.4957850000000  0.4076330000000 1.0
C      1  0.5583380000000  0.4089980000000  0.5305670000000 1.0
C      1  0.5257330000000  0.5024220000000  0.6141660000000 1.0
C      1  0.4803740000000  0.5949480000000  0.4331930000000 1.0
C      1  0.4526070000000  0.5158380000000  0.3922840000000 1.0
C      1  0.5436730000000  0.4363790000000  0.4254460000000 1.0
C      1  0.5717930000000  0.5199160000000  0.5527570000000 1.0
C      1  0.4761990000000  0.4733350000000  0.4759940000000 1.0
C      1  0.4309520000000  0.5753640000000  0.4830300000000 1.0
C      1  0.6167010000000  0.4789230000000  0.4940020000000 1.0
C      1  0.4160000000000  0.4229080000000  0.4820430000000 1.0
C      1  0.5376590000000  0.5224740000000  0.4501920000000 1.0
C      1  0.5116140000000  0.4685100000000  0.3980210000000 1.0
C      1  0.3808580000000  0.4813670000000  0.4988620000000 1.0
C      1  0.6266940000000  0.4996380000000  0.5099250000000 1.0
C      1  0.4192150000000  0.4579890000000  0.5194780000000 1.0
C      1  0.4254750000000  0.4981580000000  0.4906180000000 1.0
C      1  0.4236620000000  0.5484770000000  0.5230540000000 1.0
C      1  0.4130380000000  0.4927580000000  0.4222680000000 1.0
C      1  0.5141630000000  0.4439480000000  0.4155330000000 1.0
C      1  0.4989050000000  0.4697900000000  0.5521310000000 1.0
C      1  0.5066820000000  0.5824980000000  0.5611190000000 1.0
C      1  0.5342050000000  0.5167270000000  0.5216790000000 1.0
C      1  0.5156410000000  0.5053100000000  0.5773660000000 1.0
C      1  0.5850870000000  0.4711030000000  0.4572590000000 1.0
C      1  0.5684540000000  0.4222150000000  0.5570620000000 1.0
C      1  0.5189320000000  0.4647370000000  0.4482210000000 1.0
C      1  0.4185890000000  0.5105010000000  0.5668620000000 1.0
C      1  0.5148380000000  0.5364250000000  0.5398910000000 1.0
C      1  0.5878260000000  0.4655660000000  0.5544490000000 1.0
C      1  0.4208460000000  0.5479250000000  0.4742300000000 1.0
C      1  0.5481600000000  0.5522480000000  0.4602710000000 1.0
C      1  0.4475420000000  0.4833560000000  0.4712800000000 1.0
C      1  0.4689180000000  0.4547690000000  0.5956640000000 1.0
C      1  0.4679020000000  0.6099550000000  0.4809680000000 1.0
C      1  0.5555240000000  0.5323820000000  0.5070160000000 1.0
C      1  0.5201800000000  0.4391270000000  0.4887720000000 1.0
C      1  0.5707790000000  0.5074170000000  0.4258680000000 1.0
C      1  0.4957310000000  0.5757020000000  0.4863430000000 1.0
C      1  0.5535150000000  0.4639370000000  0.4208350000000 1.0
C      1  0.5830620000000  0.5675210000000  0.5332670000000 1.0
C      1  0.5525120000000  0.4978660000000  0.5416660000000 1.0
C      1  0.5301930000000  0.5738940000000  0.4490100000000 1.0
C      1  0.4570770000000  0.5825140000000  0.4440120000000 1.0
C      1  0.5845620000000  0.5524630000000  0.4363190000000 1.0
C      1  0.6089240000000  0.4850050000000  0.5582100000000 1.0
C      1  0.5080660000000  0.4469380000000  0.5699610000000 1.0
C      1  0.4323220000000  0.5360190000000  0.4470420000000 1.0
C      1  0.4813620000000  0.5075040000000  0.3847210000000 1.0
C      1  0.6125720000000  0.5196290000000  0.5233280000000 1.0
C      1  0.4266430000000  0.4637700000000  0.5697810000000 1.0
C      1  0.5352440000000  0.6157300000000  0.5302850000000 1.0
C      1  0.4498740000000  0.3987380000000  0.4616500000000 1.0
C      1  0.5233170000000  0.5333050000000  0.5714910000000 1.0
C      1  0.6038320000000  0.4891630000000  0.4697850000000 1.0
C      1  0.4341000000000  0.4235600000000  0.4582320000000 1.0
C      1  0.5757080000000  0.4787720000000  0.4315290000000 1.0
C      1  0.4176320000000  0.4204110000000  0.5560940000000 1.0
C      1  0.5009290000000  0.4140230000000  0.4450040000000 1.0
C      1  0.5509110000000  0.5822690000000  0.5017050000000 1.0
C      1  0.5823150000000  0.5691640000000  0.4590320000000 1.0
C      1  0.4306750000000  0.4060440000000  0.5023300000000 1.0
C      1  0.4657000000000  0.4963870000000  0.5814350000000 1.0
C      1  0.5684740000000  0.5573600000000  0.4139240000000 1.0
C      1  0.5131310000000  0.4761000000000  0.6101670000000 1.0
C      1  0.5435740000000  0.5014020000000  0.4735810000000 1.0
C      1  0.6048380000000  0.5364520000000  0.4910710000000 1.0
C      1  0.4326560000000  0.5530800000000  0.4218550000000 1.0
C      1  0.4591870000000  0.5821550000000  0.4736220000000 1.0
C      1  0.5082360000000  0.5260420000000  0.4530380000000 1.0
C      1  0.5418140000000  0.5868940000000  0.5307790000000 1.0
C      1  0.3971070000000  0.5390350000000  0.5310350000000 1.0
C      1  0.4401230000000  0.4896550000000  0.5639480000000 1.0
C      1  0.3891900000000  0.5139730000000  0.4615250000000 1.0
C      1  0.5243170000000  0.5752340000000  0.4205910000000 1.0
C      1  0.5421990000000  0.5095660000000  0.4136820000000 1.0
C      1  0.5816120000000  0.5801350000000  0.5058390000000 1.0
C      1  0.5024600000000  0.5251650000000  0.4818120000000 1.0
C      1  0.4925760000000  0.6088790000000  0.4574280000000 1.0
C      1  0.4221140000000  0.4888080000000  0.5197700000000 1.0
C      1  0.4455000000000  0.5441450000000  0.5459090000000 1.0
C      1  0.4722140000000  0.6047460000000  0.5107680000000 1.0
C      1  0.4908990000000  0.4974650000000  0.5624390000000 1.0
C      1  0.4835020000000  0.4764490000000  0.6087270000000 1.0
C      1  0.5276370000000  0.5812780000000  0.5823210000000 1.0
C      1  0.5118150000000  0.4026300000000  0.5428820000000 1.0
C      1  0.5145280000000  0.5722260000000  0.5349940000000 1.0
C      1  0.3911100000000  0.5380650000000  0.4787690000000 1.0
C      1  0.4338130000000  0.5802600000000  0.4282980000000 1.0
C      1  0.4847990000000  0.4342840000000  0.5836740000000 1.0
C      1  0.5403090000000  0.3996210000000  0.4672350000000 1.0
C      1  0.4474130000000  0.4509360000000  0.5133850000000 1.0
C      1  0.4537180000000  0.5444890000000  0.4018950000000 1.0
C      1  0.5718300000000  0.4624720000000  0.5792980000000 1.0
C      1  0.5315590000000  0.3982700000000  0.5206420000000 1.0
C      1  0.3809740000000  0.5307740000000  0.5076010000000 1.0
END
