TITL C-3578208-4450-169 6.22167989497226e-07 125000 -327.079695048674 0 0 54 (C1) n - 1
REM
REM in /home/bkarasulu/work/CARBON/AIRSS/Generating-Clusters/EDIP-Nigel-Params/with-SteepDescent/Higher-Symm/SD-CG/HFTN-CG
REM
REM
REM
REM
REM
REM ./C.cell (12c818d87b63d06a65506943cc24bca4)
REM
REM compiler GCC version 9.2.1 20190827 (Red Hat 9.2.1-1)
REM options -cpp -mtune=generic -march=x86-64 -g -O0 -fpre-include=/usr/include/finclude/math-vector-fortran.h
REM seed -681863726 822611846 -1083143317 -842751838 -2103785585 -1770736543 1301734574 -737821429 405475516 826859707 637402116 83272144 -1255692148 -56921280 439959555 1698390412 -102725686 -1138396514 2011475101 -724538803 -35264829 826274054 9389472 1113801101 -519937163 -1735572407 841014932 1017807306 116500430 -950515833 -1422107032 1029738194 -316718803
REM
CELL 1.54180   50.00000   50.00000   50.00000   90.00000   90.00000   90.00000
LATT -1
SFAC C  
C      1  0.5343920000000  0.5614630000000  0.4570370000000 1.0
C      1  0.5303990000000  0.4305800000000  0.4673530000000 1.0
C      1  0.5324620000000  0.5076520000000  0.5764410000000 1.0
C      1  0.5239610000000  0.4681680000000  0.4400730000000 1.0
C      1  0.5276190000000  0.4642570000000  0.5570970000000 1.0
C      1  0.5261470000000  0.5668270000000  0.5038610000000 1.0
C      1  0.5424150000000  0.4815510000000  0.5379400000000 1.0
C      1  0.5426550000000  0.5426040000000  0.4998730000000 1.0
C      1  0.5410180000000  0.4766270000000  0.4626790000000 1.0
C      1  0.5089740000000  0.4911120000000  0.4283410000000 1.0
C      1  0.5120500000000  0.4424320000000  0.5432140000000 1.0
C      1  0.5088520000000  0.5654820000000  0.5285240000000 1.0
C      1  0.5334190000000  0.5388230000000  0.4382110000000 1.0
C      1  0.5313850000000  0.4251660000000  0.4964870000000 1.0
C      1  0.5295170000000  0.5351370000000  0.5668120000000 1.0
C      1  0.5501180000000  0.5050350000000  0.5532530000000 1.0
C      1  0.5516240000000  0.5434000000000  0.4722600000000 1.0
C      1  0.5495470000000  0.4517550000000  0.4748260000000 1.0
C      1  0.4414710000000  0.5223290000000  0.4857740000000 1.0
C      1  0.4452050000000  0.4736560000000  0.4799850000000 1.0
C      1  0.4418310000000  0.4982050000000  0.5229070000000 1.0
C      1  0.5105010000000  0.4860430000000  0.5708060000000 1.0
C      1  0.5109430000000  0.5676570000000  0.4771580000000 1.0
C      1  0.5065450000000  0.4467410000000  0.4534640000000 1.0
C      1  0.4633870000000  0.4531770000000  0.4653220000000 1.0
C      1  0.4669940000000  0.4874450000000  0.5646820000000 1.0
C      1  0.4675620000000  0.5610670000000  0.4766030000000 1.0
C      1  0.5145800000000  0.5176080000000  0.4421280000000 1.0
C      1  0.5166160000000  0.4427050000000  0.5134850000000 1.0
C      1  0.5123140000000  0.5406260000000  0.5447140000000 1.0
C      1  0.4794250000000  0.4837740000000  0.4318440000000 1.0
C      1  0.4824050000000  0.4481370000000  0.5496360000000 1.0
C      1  0.4802490000000  0.5668840000000  0.5187450000000 1.0
C      1  0.4467570000000  0.5241470000000  0.5132950000000 1.0
C      1  0.4472860000000  0.5014130000000  0.4676660000000 1.0
C      1  0.4488720000000  0.4734640000000  0.5109490000000 1.0
C      1  0.5232130000000  0.5200280000000  0.5074270000000 1.0
C      1  0.5236320000000  0.4958860000000  0.4794040000000 1.0
C      1  0.5227950000000  0.4866070000000  0.5146090000000 1.0
C      1  0.4932160000000  0.5238660000000  0.4979550000000 1.0
C      1  0.4925980000000  0.4895260000000  0.4795530000000 1.0
C      1  0.4933470000000  0.4874430000000  0.5235010000000 1.0
C      1  0.4744350000000  0.5357750000000  0.5195070000000 1.0
C      1  0.4753790000000  0.5010570000000  0.4565170000000 1.0
C      1  0.4762680000000  0.4630830000000  0.5222760000000 1.0
C      1  0.4894240000000  0.4994280000000  0.5500610000000 1.0
C      1  0.4906230000000  0.5431010000000  0.4744470000000 1.0
C      1  0.4898350000000  0.4588790000000  0.4774740000000 1.0
C      1  0.4904490000000  0.4461090000000  0.5033200000000 1.0
C      1  0.4864710000000  0.5283350000000  0.5461750000000 1.0
C      1  0.4887190000000  0.5270610000000  0.4501920000000 1.0
C      1  0.4791060000000  0.4636940000000  0.5739980000000 1.0
C      1  0.4782970000000  0.5810390000000  0.4934200000000 1.0
C      1  0.4726920000000  0.4559360000000  0.4367200000000 1.0
END
