TITL C-3578196-9646-707 -4.20502102658615e-06 125000 -690.827056554688 0 0 109 (C1) n - 1
REM
REM in /home/bkarasulu/work/CARBON/AIRSS/Generating-Clusters/EDIP-Nigel-Params/with-SteepDescent/Higher-Symm/SD-CG/HFTN-CG
REM
REM
REM
REM
REM
REM ./C.cell (12c818d87b63d06a65506943cc24bca4)
REM
REM compiler GCC version 9.2.1 20190827 (Red Hat 9.2.1-1)
REM options -cpp -mtune=generic -march=x86-64 -g -O0 -fpre-include=/usr/include/finclude/math-vector-fortran.h
REM seed 77443549 951502269 909361941 1623598064 516312821 1396377427 -2122537950 -1110952061 -419805956 -1952959710 1443352360 516815022 1252982939 768186180 2044642554 -2103474334 909992183 1977942083 2087274386 -1974503838 -355605873 -1697816711 -1232402595 -1922641872 -1574993796 -1128181992 1810082605 1469535629 -1718553270 1045698970 590393024 -1272077689 1852061926
REM
CELL 1.54180   50.00000   50.00000   50.00000   90.00000   90.00000   90.00000
LATT -1
SFAC C  
C      1  0.4319730000000  0.4467110000000  0.5003130000000 1.0
C      1  0.4401540000000  0.4991130000000  0.4279350000000 1.0
C      1  0.4847210000000  0.4295830000000  0.4458180000000 1.0
C      1  0.5596410000000  0.5432920000000  0.4808070000000 1.0
C      1  0.4248850000000  0.5594210000000  0.5018680000000 1.0
C      1  0.5771340000000  0.4422830000000  0.5201920000000 1.0
C      1  0.5503710000000  0.5160920000000  0.4343740000000 1.0
C      1  0.4396730000000  0.5067280000000  0.5727060000000 1.0
C      1  0.5512360000000  0.4824380000000  0.5723660000000 1.0
C      1  0.4994310000000  0.5738240000000  0.4427870000000 1.0
C      1  0.4841920000000  0.5791850000000  0.5581500000000 1.0
C      1  0.5177200000000  0.4304240000000  0.5504030000000 1.0
C      1  0.4519170000000  0.4343330000000  0.4834820000000 1.0
C      1  0.5016060000000  0.4415480000000  0.4259040000000 1.0
C      1  0.4341320000000  0.4831060000000  0.4514050000000 1.0
C      1  0.5520550000000  0.5662290000000  0.4964390000000 1.0
C      1  0.5622330000000  0.4248830000000  0.5012480000000 1.0
C      1  0.4460530000000  0.5697950000000  0.5188470000000 1.0
C      1  0.5161690000000  0.5533080000000  0.4310600000000 1.0
C      1  0.5101180000000  0.4466540000000  0.5717580000000 1.0
C      1  0.4989860000000  0.5609500000000  0.5734820000000 1.0
C      1  0.5713740000000  0.4990210000000  0.4444070000000 1.0
C      1  0.5705750000000  0.4991060000000  0.5593220000000 1.0
C      1  0.4258320000000  0.5209090000000  0.5525580000000 1.0
C      1  0.5317470000000  0.4159890000000  0.5040030000000 1.0
C      1  0.4116280000000  0.5153330000000  0.5286610000000 1.0
C      1  0.5095730000000  0.5301400000000  0.4146020000000 1.0
C      1  0.4683140000000  0.5863580000000  0.5117520000000 1.0
C      1  0.5237940000000  0.5781470000000  0.4958380000000 1.0
C      1  0.4722980000000  0.4152160000000  0.4916010000000 1.0
C      1  0.5842070000000  0.4940630000000  0.5313730000000 1.0
C      1  0.4150750000000  0.4895430000000  0.4721950000000 1.0
C      1  0.5824720000000  0.5005920000000  0.4719610000000 1.0
C      1  0.4974490000000  0.4718790000000  0.4179050000000 1.0
C      1  0.5058690000000  0.4718890000000  0.5862670000000 1.0
C      1  0.4963040000000  0.5295090000000  0.5759000000000 1.0
C      1  0.4215540000000  0.5288790000000  0.5036390000000 1.0
C      1  0.5112910000000  0.4155450000000  0.5275230000000 1.0
C      1  0.5319820000000  0.5102300000000  0.4125130000000 1.0
C      1  0.5917690000000  0.4676200000000  0.5126470000000 1.0
C      1  0.5794570000000  0.5241220000000  0.4886660000000 1.0
C      1  0.4171160000000  0.4733440000000  0.4968940000000 1.0
C      1  0.4891290000000  0.5887950000000  0.5321990000000 1.0
C      1  0.4925210000000  0.4161200000000  0.4702170000000 1.0
C      1  0.5024370000000  0.5854220000000  0.4721720000000 1.0
C      1  0.4681170000000  0.4966410000000  0.4148340000000 1.0
C      1  0.4695600000000  0.5083140000000  0.5807060000000 1.0
C      1  0.5285680000000  0.4907350000000  0.5885810000000 1.0
C      1  0.4816140000000  0.4574770000000  0.4916690000000 1.0
C      1  0.4573240000000  0.4996280000000  0.4776740000000 1.0
C      1  0.4958380000000  0.4836670000000  0.4467450000000 1.0
C      1  0.5170050000000  0.5403960000000  0.5044820000000 1.0
C      1  0.4711990000000  0.5430980000000  0.5067880000000 1.0
C      1  0.5297510000000  0.4545280000000  0.5019210000000 1.0
C      1  0.5246390000000  0.4982750000000  0.4794510000000 1.0
C      1  0.4598520000000  0.4913290000000  0.5255870000000 1.0
C      1  0.5467340000000  0.4986510000000  0.5219970000000 1.0
C      1  0.4955540000000  0.5323340000000  0.4562290000000 1.0
C      1  0.5004300000000  0.5162960000000  0.5475710000000 1.0
C      1  0.5048610000000  0.4715800000000  0.5423180000000 1.0
C      1  0.4712630000000  0.4826830000000  0.4982350000000 1.0
C      1  0.4986640000000  0.4595330000000  0.4660460000000 1.0
C      1  0.4747240000000  0.5073030000000  0.4527130000000 1.0
C      1  0.5374490000000  0.5169650000000  0.4980450000000 1.0
C      1  0.5527730000000  0.4703110000000  0.5122590000000 1.0
C      1  0.4507370000000  0.5207860000000  0.5026210000000 1.0
C      1  0.4944420000000  0.5489030000000  0.4826200000000 1.0
C      1  0.5029380000000  0.4563460000000  0.5153830000000 1.0
C      1  0.4953140000000  0.5336820000000  0.5240000000000 1.0
C      1  0.5177810000000  0.5090660000000  0.4539290000000 1.0
C      1  0.5270420000000  0.4950320000000  0.5451280000000 1.0
C      1  0.4814820000000  0.4919620000000  0.5472400000000 1.0
C      1  0.5445980000000  0.4618840000000  0.4232430000000 1.0
C      1  0.4666600000000  0.4393590000000  0.5652190000000 1.0
C      1  0.4311880000000  0.5619410000000  0.4726490000000 1.0
C      1  0.4393590000000  0.5275560000000  0.4357870000000 1.0
C      1  0.5418300000000  0.5381110000000  0.5763740000000 1.0
C      1  0.4359430000000  0.4777720000000  0.5679480000000 1.0
C      1  0.5361700000000  0.5754700000000  0.5415100000000 1.0
C      1  0.4712090000000  0.5660440000000  0.4411600000000 1.0
C      1  0.5395990000000  0.4231020000000  0.4570990000000 1.0
C      1  0.5777070000000  0.4553280000000  0.4633130000000 1.0
C      1  0.4385050000000  0.4457360000000  0.5288150000000 1.0
C      1  0.5714500000000  0.5400370000000  0.5350400000000 1.0
C      1  0.4632970000000  0.5415600000000  0.4274950000000 1.0
C      1  0.4357550000000  0.4742840000000  0.5379230000000 1.0
C      1  0.5643130000000  0.4306650000000  0.4718210000000 1.0
C      1  0.5302050000000  0.4382250000000  0.4326850000000 1.0
C      1  0.5277230000000  0.5623270000000  0.5669570000000 1.0
C      1  0.4578510000000  0.4617890000000  0.5803010000000 1.0
C      1  0.5629790000000  0.5270560000000  0.5593300000000 1.0
C      1  0.5675330000000  0.4705360000000  0.4398040000000 1.0
C      1  0.4223930000000  0.5375130000000  0.4579130000000 1.0
C      1  0.4571720000000  0.5733620000000  0.4653420000000 1.0
C      1  0.4615800000000  0.4307310000000  0.5389610000000 1.0
C      1  0.5573280000000  0.5633850000000  0.5251710000000 1.0
C      1  0.5844590000000  0.5209270000000  0.5173660000000 1.0
C      1  0.5221090000000  0.5200310000000  0.5895420000000 1.0
C      1  0.5169920000000  0.5886930000000  0.5232920000000 1.0
C      1  0.4115370000000  0.4857990000000  0.5240100000000 1.0
C      1  0.5865990000000  0.4742140000000  0.4837150000000 1.0
C      1  0.4099570000000  0.5185210000000  0.4772730000000 1.0
C      1  0.4780920000000  0.4809380000000  0.5896800000000 1.0
C      1  0.5254520000000  0.4810410000000  0.4097590000000 1.0
C      1  0.4806670000000  0.5238840000000  0.4121680000000 1.0
C      1  0.4828260000000  0.4228010000000  0.5189120000000 1.0
C      1  0.5206580000000  0.4111690000000  0.4762420000000 1.0
C      1  0.4745170000000  0.5881080000000  0.4831940000000 1.0
C      1  0.5241020000000  0.4691190000000  0.4780480000000 1.0
END
