TITL C-3578197-9521-445 -2.60595955831039e-06 125000 -894.895931356546 0 0 144 (C1) n - 1
REM
REM in /home/bkarasulu/work/CARBON/AIRSS/Generating-Clusters/EDIP-Nigel-Params/with-SteepDescent/Higher-Symm/SD-CG/HFTN-CG
REM
REM
REM
REM
REM
REM ./C.cell (12c818d87b63d06a65506943cc24bca4)
REM
REM compiler GCC version 9.2.1 20190827 (Red Hat 9.2.1-1)
REM options -cpp -mtune=generic -march=x86-64 -g -O0 -fpre-include=/usr/include/finclude/math-vector-fortran.h
REM seed 131488020 -1715193239 1692520392 1696774733 1673136943 -875833412 -12405972 -1143000373 -1363975866 -129821586 1147340938 249334290 1954892873 1079067946 -466591105 418028230 130048938 -568914515 -595263425 -140841284 -1607503640 1104789918 -1442428676 644857015 -1074768178 -141509845 -372953327 -866266544 422494561 1156500937 -1093159976 437376635 226494755
REM
CELL 1.54180   50.00000   50.00000   50.00000   90.00000   90.00000   90.00000
LATT -1
SFAC C  
C      1  0.5166690000000  0.5140050000000  0.4734940000000 1.0
C      1  0.5082420000000  0.4836530000000  0.5358860000000 1.0
C      1  0.5188470000000  0.4642170000000  0.4812690000000 1.0
C      1  0.5140690000000  0.5382970000000  0.5194400000000 1.0
C      1  0.4152980000000  0.5399820000000  0.4909420000000 1.0
C      1  0.4295890000000  0.4573160000000  0.5162120000000 1.0
C      1  0.4229660000000  0.4510970000000  0.4889120000000 1.0
C      1  0.4355610000000  0.5368890000000  0.5101170000000 1.0
C      1  0.4578660000000  0.5704890000000  0.5285530000000 1.0
C      1  0.4510580000000  0.4277560000000  0.4763950000000 1.0
C      1  0.4500620000000  0.4202150000000  0.5298010000000 1.0
C      1  0.4521390000000  0.5790410000000  0.4662290000000 1.0
C      1  0.4815710000000  0.5213300000000  0.4209850000000 1.0
C      1  0.4728140000000  0.4796180000000  0.5868500000000 1.0
C      1  0.4774270000000  0.4897550000000  0.4205680000000 1.0
C      1  0.4702410000000  0.5098810000000  0.5899750000000 1.0
C      1  0.4371110000000  0.5447780000000  0.5935150000000 1.0
C      1  0.4534530000000  0.4497660000000  0.4104350000000 1.0
C      1  0.4530220000000  0.4392970000000  0.5979680000000 1.0
C      1  0.4615300000000  0.5583510000000  0.4056420000000 1.0
C      1  0.4126070000000  0.4814680000000  0.4500130000000 1.0
C      1  0.3987630000000  0.5217590000000  0.5361700000000 1.0
C      1  0.3988110000000  0.5013790000000  0.4650770000000 1.0
C      1  0.4024060000000  0.4955410000000  0.5290870000000 1.0
C      1  0.4547330000000  0.5302680000000  0.4118040000000 1.0
C      1  0.4495310000000  0.4677320000000  0.5990790000000 1.0
C      1  0.4507780000000  0.4784300000000  0.4157800000000 1.0
C      1  0.4418770000000  0.5175580000000  0.5980120000000 1.0
C      1  0.5223330000000  0.5661870000000  0.5083270000000 1.0
C      1  0.5212390000000  0.4346440000000  0.4880300000000 1.0
C      1  0.5193030000000  0.4321300000000  0.5206230000000 1.0
C      1  0.5211940000000  0.5666980000000  0.4771380000000 1.0
C      1  0.4264090000000  0.4931740000000  0.4257230000000 1.0
C      1  0.4260120000000  0.5013490000000  0.5782990000000 1.0
C      1  0.4348910000000  0.5211460000000  0.4317040000000 1.0
C      1  0.4275970000000  0.4719670000000  0.5817840000000 1.0
C      1  0.4717580000000  0.5203620000000  0.5621580000000 1.0
C      1  0.4822660000000  0.4760840000000  0.4473000000000 1.0
C      1  0.4762660000000  0.4596800000000  0.5535810000000 1.0
C      1  0.4874020000000  0.5433610000000  0.4479960000000 1.0
C      1  0.5328730000000  0.5381650000000  0.4059040000000 1.0
C      1  0.5325570000000  0.4637120000000  0.5845590000000 1.0
C      1  0.5336040000000  0.4679780000000  0.4130850000000 1.0
C      1  0.5362010000000  0.5359850000000  0.5908640000000 1.0
C      1  0.5613960000000  0.5350680000000  0.5769890000000 1.0
C      1  0.5618610000000  0.4660300000000  0.4172180000000 1.0
C      1  0.5608320000000  0.4624290000000  0.5807070000000 1.0
C      1  0.5600610000000  0.5386990000000  0.4138750000000 1.0
C      1  0.5696090000000  0.5570410000000  0.4777480000000 1.0
C      1  0.5650160000000  0.4458340000000  0.5162970000000 1.0
C      1  0.5714430000000  0.4425770000000  0.4876760000000 1.0
C      1  0.5717420000000  0.5580380000000  0.5067840000000 1.0
C      1  0.5042210000000  0.5842920000000  0.5234590000000 1.0
C      1  0.4983140000000  0.4222970000000  0.4728850000000 1.0
C      1  0.4964330000000  0.4152400000000  0.5363200000000 1.0
C      1  0.4994320000000  0.5847010000000  0.4684290000000 1.0
C      1  0.4627630000000  0.5859130000000  0.4401920000000 1.0
C      1  0.4513890000000  0.4177300000000  0.5593020000000 1.0
C      1  0.4566380000000  0.4257180000000  0.4474980000000 1.0
C      1  0.4621840000000  0.5672130000000  0.5565950000000 1.0
C      1  0.5158930000000  0.5615170000000  0.4074230000000 1.0
C      1  0.5189460000000  0.4386360000000  0.5870120000000 1.0
C      1  0.5189500000000  0.4432650000000  0.4134300000000 1.0
C      1  0.5209460000000  0.5614930000000  0.5873140000000 1.0
C      1  0.5492310000000  0.5803560000000  0.4377680000000 1.0
C      1  0.5510390000000  0.4208070000000  0.5557540000000 1.0
C      1  0.5513500000000  0.4261710000000  0.4467290000000 1.0
C      1  0.5505330000000  0.5745270000000  0.5477200000000 1.0
C      1  0.5755150000000  0.5159070000000  0.4143730000000 1.0
C      1  0.5756860000000  0.4855220000000  0.5788910000000 1.0
C      1  0.5765730000000  0.4893360000000  0.4163440000000 1.0
C      1  0.5766130000000  0.5121290000000  0.5780430000000 1.0
C      1  0.4644220000000  0.5432530000000  0.5020080000000 1.0
C      1  0.4673740000000  0.4590550000000  0.4934500000000 1.0
C      1  0.4575510000000  0.4493270000000  0.5238810000000 1.0
C      1  0.4628330000000  0.5422180000000  0.4688350000000 1.0
C      1  0.4935940000000  0.4703470000000  0.6049040000000 1.0
C      1  0.4929130000000  0.5287630000000  0.3855650000000 1.0
C      1  0.4925090000000  0.5246930000000  0.6037530000000 1.0
C      1  0.4921340000000  0.4758270000000  0.3988110000000 1.0
C      1  0.5487730000000  0.5770860000000  0.4677970000000 1.0
C      1  0.5482600000000  0.4233780000000  0.5266140000000 1.0
C      1  0.5503560000000  0.4242790000000  0.4768470000000 1.0
C      1  0.5507560000000  0.5757240000000  0.5177490000000 1.0
C      1  0.4752210000000  0.5818670000000  0.4839110000000 1.0
C      1  0.4739590000000  0.4086440000000  0.5175470000000 1.0
C      1  0.4750820000000  0.4164670000000  0.4893770000000 1.0
C      1  0.4775090000000  0.5835930000000  0.5128150000000 1.0
C      1  0.5535830000000  0.6022050000000  0.4809070000000 1.0
C      1  0.5542560000000  0.3986680000000  0.5132150000000 1.0
C      1  0.5550590000000  0.3973600000000  0.4863310000000 1.0
C      1  0.5549700000000  0.6025530000000  0.5078400000000 1.0
C      1  0.5924810000000  0.4847570000000  0.4720240000000 1.0
C      1  0.5905440000000  0.5145440000000  0.5257910000000 1.0
C      1  0.5902970000000  0.5113980000000  0.4700710000000 1.0
C      1  0.5810660000000  0.4893360000000  0.5235500000000 1.0
C      1  0.5672390000000  0.5629570000000  0.4250060000000 1.0
C      1  0.5684090000000  0.4389740000000  0.5680660000000 1.0
C      1  0.5687710000000  0.4440730000000  0.4333760000000 1.0
C      1  0.5676810000000  0.5576150000000  0.5619760000000 1.0
C      1  0.4414510000000  0.5133970000000  0.5537560000000 1.0
C      1  0.4594520000000  0.4846680000000  0.4684840000000 1.0
C      1  0.4508090000000  0.4908210000000  0.5366920000000 1.0
C      1  0.4455100000000  0.5169700000000  0.4603580000000 1.0
C      1  0.4940930000000  0.4756890000000  0.4947090000000 1.0
C      1  0.4873700000000  0.5228950000000  0.5107740000000 1.0
C      1  0.4931160000000  0.5045120000000  0.4880870000000 1.0
C      1  0.4824750000000  0.5021860000000  0.5341140000000 1.0
C      1  0.5171070000000  0.5168820000000  0.3952340000000 1.0
C      1  0.5195010000000  0.4839890000000  0.6002640000000 1.0
C      1  0.5187930000000  0.4875830000000  0.3978690000000 1.0
C      1  0.5179810000000  0.5133380000000  0.5963340000000 1.0
C      1  0.5231540000000  0.4227740000000  0.5638360000000 1.0
C      1  0.5233220000000  0.5835310000000  0.4242460000000 1.0
C      1  0.5220490000000  0.5728570000000  0.5560670000000 1.0
C      1  0.5246520000000  0.4297670000000  0.4380050000000 1.0
C      1  0.4914900000000  0.4409010000000  0.5976870000000 1.0
C      1  0.4894830000000  0.5563550000000  0.3946430000000 1.0
C      1  0.4926990000000  0.5523480000000  0.5921980000000 1.0
C      1  0.4909660000000  0.4473870000000  0.4063250000000 1.0
C      1  0.4344050000000  0.4340430000000  0.5759060000000 1.0
C      1  0.4483860000000  0.5807700000000  0.4168710000000 1.0
C      1  0.4409970000000  0.5635120000000  0.5744180000000 1.0
C      1  0.4395200000000  0.4317070000000  0.4261780000000 1.0
C      1  0.4251720000000  0.5324730000000  0.5370880000000 1.0
C      1  0.4334140000000  0.4670060000000  0.4663280000000 1.0
C      1  0.4271460000000  0.4847130000000  0.5214330000000 1.0
C      1  0.4190390000000  0.5188810000000  0.4732530000000 1.0
C      1  0.5121340000000  0.4636790000000  0.4513010000000 1.0
C      1  0.5088470000000  0.5472600000000  0.5472540000000 1.0
C      1  0.5129250000000  0.5404470000000  0.4630990000000 1.0
C      1  0.5086190000000  0.4562270000000  0.5480790000000 1.0
C      1  0.5418280000000  0.5097570000000  0.4877480000000 1.0
C      1  0.5351470000000  0.4934880000000  0.5325170000000 1.0
C      1  0.5465440000000  0.4797030000000  0.4895560000000 1.0
C      1  0.5383820000000  0.5187800000000  0.5169460000000 1.0
C      1  0.4833680000000  0.5477810000000  0.5635090000000 1.0
C      1  0.4842260000000  0.4369110000000  0.4487690000000 1.0
C      1  0.4793480000000  0.4286990000000  0.5621760000000 1.0
C      1  0.4908190000000  0.5745920000000  0.4413330000000 1.0
C      1  0.5563210000000  0.4752900000000  0.5191350000000 1.0
C      1  0.5669980000000  0.5262570000000  0.4768350000000 1.0
C      1  0.5681510000000  0.5303940000000  0.5167510000000 1.0
C      1  0.5696360000000  0.4688420000000  0.4737580000000 1.0
END
