TITL C-3578206-1180-705 1.11845378252843e-06 125000 -1096.10881570402 0 0 176 (C1) n - 1
REM
REM in /home/bkarasulu/work/CARBON/AIRSS/Generating-Clusters/EDIP-Nigel-Params/with-SteepDescent/Higher-Symm/SD-CG/HFTN-CG
REM
REM
REM
REM
REM
REM ./C.cell (12c818d87b63d06a65506943cc24bca4)
REM
REM compiler GCC version 9.2.1 20190827 (Red Hat 9.2.1-1)
REM options -cpp -mtune=generic -march=x86-64 -g -O0 -fpre-include=/usr/include/finclude/math-vector-fortran.h
REM seed 369066585 -31797551 -34225422 -1224155215 2141480060 -930578234 -2067143794 1758659358 926957734 740853045 -841089121 1579840609 -549271104 163387219 -1150946751 -513634036 1925623197 280420478 -780146656 -1051213492 -607741320 -1889556571 -994457873 1201138962 687841138 -120662231 -1970204493 411285987 -1355369968 -2054037560 1342894459 -1795977443 -270810416
REM
CELL 1.54180   50.00000   50.00000   50.00000   90.00000   90.00000   90.00000
LATT -1
SFAC C  
C      1  0.5869430000000  0.4911030000000  0.4630970000000 1.0
C      1  0.4817300000000  0.4987170000000  0.3695850000000 1.0
C      1  0.3863110000000  0.4999780000000  0.4547650000000 1.0
C      1  0.4587600000000  0.4984060000000  0.6013400000000 1.0
C      1  0.5677970000000  0.4939400000000  0.5746920000000 1.0
C      1  0.4030270000000  0.4756720000000  0.4457980000000 1.0
C      1  0.5025190000000  0.4781100000000  0.3739680000000 1.0
C      1  0.6084430000000  0.4792170000000  0.4776580000000 1.0
C      1  0.5439440000000  0.4964160000000  0.5874840000000 1.0
C      1  0.4398810000000  0.4915350000000  0.5802680000000 1.0
C      1  0.4865800000000  0.4160440000000  0.5750190000000 1.0
C      1  0.5578020000000  0.4209770000000  0.5505990000000 1.0
C      1  0.5571080000000  0.4240360000000  0.4439690000000 1.0
C      1  0.4719930000000  0.4281240000000  0.4255430000000 1.0
C      1  0.4354580000000  0.4200380000000  0.5050920000000 1.0
C      1  0.5134470000000  0.4252130000000  0.5840230000000 1.0
C      1  0.4315450000000  0.4246060000000  0.5333800000000 1.0
C      1  0.4422340000000  0.4247820000000  0.4486780000000 1.0
C      1  0.5310630000000  0.4320370000000  0.4310780000000 1.0
C      1  0.5850920000000  0.4177880000000  0.4897440000000 1.0
C      1  0.4799560000000  0.4237860000000  0.5157670000000 1.0
C      1  0.5157760000000  0.4352450000000  0.5463210000000 1.0
C      1  0.5372690000000  0.4169710000000  0.5018780000000 1.0
C      1  0.5138440000000  0.4237050000000  0.4557010000000 1.0
C      1  0.4644750000000  0.4209620000000  0.4687230000000 1.0
C      1  0.5431690000000  0.4340880000000  0.5260540000000 1.0
C      1  0.4872200000000  0.4429150000000  0.5359120000000 1.0
C      1  0.4609110000000  0.4355050000000  0.4960910000000 1.0
C      1  0.4856350000000  0.4325160000000  0.4513960000000 1.0
C      1  0.5237680000000  0.4355710000000  0.4827740000000 1.0
C      1  0.4634880000000  0.5255440000000  0.5278140000000 1.0
C      1  0.5188550000000  0.5242720000000  0.5409450000000 1.0
C      1  0.5368930000000  0.5153560000000  0.4982740000000 1.0
C      1  0.5102340000000  0.5255180000000  0.4545760000000 1.0
C      1  0.4695560000000  0.5211100000000  0.4793710000000 1.0
C      1  0.5430200000000  0.5121810000000  0.5286290000000 1.0
C      1  0.4769840000000  0.5139670000000  0.5516260000000 1.0
C      1  0.4530060000000  0.5100830000000  0.5012240000000 1.0
C      1  0.4829250000000  0.5124810000000  0.4540710000000 1.0
C      1  0.5350170000000  0.5090840000000  0.4685320000000 1.0
C      1  0.3893620000000  0.5159390000000  0.4793770000000 1.0
C      1  0.4718240000000  0.5263840000000  0.6005700000000 1.0
C      1  0.5823030000000  0.5171800000000  0.5643010000000 1.0
C      1  0.5945650000000  0.5119110000000  0.4445240000000 1.0
C      1  0.4812240000000  0.5196850000000  0.3897050000000 1.0
C      1  0.6166710000000  0.5032600000000  0.4936580000000 1.0
C      1  0.5322400000000  0.5222140000000  0.5939000000000 1.0
C      1  0.4221430000000  0.5141870000000  0.5763030000000 1.0
C      1  0.3922680000000  0.5231260000000  0.4357010000000 1.0
C      1  0.5198530000000  0.5019610000000  0.3770640000000 1.0
C      1  0.6022520000000  0.4697240000000  0.5226350000000 1.0
C      1  0.5445700000000  0.4778950000000  0.4083600000000 1.0
C      1  0.4260370000000  0.4906980000000  0.4291890000000 1.0
C      1  0.4116230000000  0.4828160000000  0.5417650000000 1.0
C      1  0.5047020000000  0.4852010000000  0.6046140000000 1.0
C      1  0.4009710000000  0.4795960000000  0.5149410000000 1.0
C      1  0.4475530000000  0.4902130000000  0.4093260000000 1.0
C      1  0.5675370000000  0.4832680000000  0.4237620000000 1.0
C      1  0.5969460000000  0.4699060000000  0.5517970000000 1.0
C      1  0.4772890000000  0.4760330000000  0.6014990000000 1.0
C      1  0.4314830000000  0.5582620000000  0.4600640000000 1.0
C      1  0.4480110000000  0.5612050000000  0.5480100000000 1.0
C      1  0.5325640000000  0.5621780000000  0.5651740000000 1.0
C      1  0.5524100000000  0.5586560000000  0.4924700000000 1.0
C      1  0.5126700000000  0.5652510000000  0.4353750000000 1.0
C      1  0.5591900000000  0.5534200000000  0.4622440000000 1.0
C      1  0.5594220000000  0.5572360000000  0.5516190000000 1.0
C      1  0.4732720000000  0.5616110000000  0.5653830000000 1.0
C      1  0.4226100000000  0.5525760000000  0.4914080000000 1.0
C      1  0.4822350000000  0.5577050000000  0.4302590000000 1.0
C      1  0.5178410000000  0.5824910000000  0.5476310000000 1.0
C      1  0.5417650000000  0.5862770000000  0.4980150000000 1.0
C      1  0.5078760000000  0.5870600000000  0.4552270000000 1.0
C      1  0.4529470000000  0.5785660000000  0.4717000000000 1.0
C      1  0.4541290000000  0.5808690000000  0.5266740000000 1.0
C      1  0.4888310000000  0.5781140000000  0.5442900000000 1.0
C      1  0.4459060000000  0.5716280000000  0.5003020000000 1.0
C      1  0.4790650000000  0.5812840000000  0.4593690000000 1.0
C      1  0.5249750000000  0.5934990000000  0.4768350000000 1.0
C      1  0.5314490000000  0.5899150000000  0.5239400000000 1.0
C      1  0.5797300000000  0.5403170000000  0.5873150000000 1.0
C      1  0.6037760000000  0.5376030000000  0.4563620000000 1.0
C      1  0.4904130000000  0.5481530000000  0.3872300000000 1.0
C      1  0.3815000000000  0.5444830000000  0.4765010000000 1.0
C      1  0.4515130000000  0.5489510000000  0.6021750000000 1.0
C      1  0.4276700000000  0.5431060000000  0.5845180000000 1.0
C      1  0.3867990000000  0.5511830000000  0.4472510000000 1.0
C      1  0.5191010000000  0.5502950000000  0.3939710000000 1.0
C      1  0.6132630000000  0.5323690000000  0.4846740000000 1.0
C      1  0.5528920000000  0.5436360000000  0.6022580000000 1.0
C      1  0.5286100000000  0.5705260000000  0.4116590000000 1.0
C      1  0.4106130000000  0.5700880000000  0.4419980000000 1.0
C      1  0.4222850000000  0.5636630000000  0.5630320000000 1.0
C      1  0.5388210000000  0.5694030000000  0.5939960000000 1.0
C      1  0.6033310000000  0.5517240000000  0.5059950000000 1.0
C      1  0.4731510000000  0.5676160000000  0.4037690000000 1.0
C      1  0.5854510000000  0.5620500000000  0.4521120000000 1.0
C      1  0.5832840000000  0.5629390000000  0.5685710000000 1.0
C      1  0.4666970000000  0.5733160000000  0.5927690000000 1.0
C      1  0.3950170000000  0.5633440000000  0.4956500000000 1.0
C      1  0.4377870000000  0.4699910000000  0.5516200000000 1.0
C      1  0.5236950000000  0.4754250000000  0.5823740000000 1.0
C      1  0.5790940000000  0.4616750000000  0.5054770000000 1.0
C      1  0.5229910000000  0.4599970000000  0.4203420000000 1.0
C      1  0.4389140000000  0.4710710000000  0.4603890000000 1.0
C      1  0.5676290000000  0.4704920000000  0.5578800000000 1.0
C      1  0.4759780000000  0.4665590000000  0.5735820000000 1.0
C      1  0.4193550000000  0.4650570000000  0.4987640000000 1.0
C      1  0.4656600000000  0.4718410000000  0.4210830000000 1.0
C      1  0.5651870000000  0.4742080000000  0.4515290000000 1.0
C      1  0.4216840000000  0.5712890000000  0.4158110000000 1.0
C      1  0.3989380000000  0.5596090000000  0.5471930000000 1.0
C      1  0.5161920000000  0.5765040000000  0.6084830000000 1.0
C      1  0.6171100000000  0.5521450000000  0.5305410000000 1.0
C      1  0.5562540000000  0.5736950000000  0.4138360000000 1.0
C      1  0.5802020000000  0.5698560000000  0.4256550000000 1.0
C      1  0.6070700000000  0.5607690000000  0.5540060000000 1.0
C      1  0.4895810000000  0.5792560000000  0.6074280000000 1.0
C      1  0.3880530000000  0.5629460000000  0.5225400000000 1.0
C      1  0.4448620000000  0.5687600000000  0.4018100000000 1.0
C      1  0.5512250000000  0.3992830000000  0.4606600000000 1.0
C      1  0.4937000000000  0.3828850000000  0.4738900000000 1.0
C      1  0.4497770000000  0.3915090000000  0.5001850000000 1.0
C      1  0.4897850000000  0.3945840000000  0.5535400000000 1.0
C      1  0.5422370000000  0.3980660000000  0.5593690000000 1.0
C      1  0.4671630000000  0.3920300000000  0.4759310000000 1.0
C      1  0.5153700000000  0.3937050000000  0.4593600000000 1.0
C      1  0.5606060000000  0.4031240000000  0.4885990000000 1.0
C      1  0.5174570000000  0.4034950000000  0.5455870000000 1.0
C      1  0.4716410000000  0.3997210000000  0.5300520000000 1.0
C      1  0.6064940000000  0.5009000000000  0.5535960000000 1.0
C      1  0.5767600000000  0.5106850000000  0.4223540000000 1.0
C      1  0.4597760000000  0.5171320000000  0.4081510000000 1.0
C      1  0.3911540000000  0.5046920000000  0.5052750000000 1.0
C      1  0.4908620000000  0.5288870000000  0.6223520000000 1.0
C      1  0.4098650000000  0.5111540000000  0.5504400000000 1.0
C      1  0.4212030000000  0.5194820000000  0.4303880000000 1.0
C      1  0.5352990000000  0.5047240000000  0.4010380000000 1.0
C      1  0.6101110000000  0.4990020000000  0.5215670000000 1.0
C      1  0.5118610000000  0.5126450000000  0.6139070000000 1.0
C      1  0.4163260000000  0.4379710000000  0.4886910000000 1.0
C      1  0.4701500000000  0.4386270000000  0.5622170000000 1.0
C      1  0.5586310000000  0.4436940000000  0.5702970000000 1.0
C      1  0.5724040000000  0.4465490000000  0.4567100000000 1.0
C      1  0.4734040000000  0.4490760000000  0.4053720000000 1.0
C      1  0.5894610000000  0.4452370000000  0.4813970000000 1.0
C      1  0.5330990000000  0.4469830000000  0.5850670000000 1.0
C      1  0.4396330000000  0.4393780000000  0.5555960000000 1.0
C      1  0.4225190000000  0.4446520000000  0.4596040000000 1.0
C      1  0.5009840000000  0.4583980000000  0.3978940000000 1.0
C      1  0.4405800000000  0.5329650000000  0.4476970000000 1.0
C      1  0.4256490000000  0.5308060000000  0.5339060000000 1.0
C      1  0.5173120000000  0.5347600000000  0.5688350000000 1.0
C      1  0.5744680000000  0.5470710000000  0.5112160000000 1.0
C      1  0.5317650000000  0.5282110000000  0.4223450000000 1.0
C      1  0.5532640000000  0.5264900000000  0.4479690000000 1.0
C      1  0.5667800000000  0.5311600000000  0.5374600000000 1.0
C      1  0.4856590000000  0.5336470000000  0.5721580000000 1.0
C      1  0.4247380000000  0.5240810000000  0.5041670000000 1.0
C      1  0.4667430000000  0.5297280000000  0.4347370000000 1.0
C      1  0.4861840000000  0.4855010000000  0.5504010000000 1.0
C      1  0.5438330000000  0.4816900000000  0.5371680000000 1.0
C      1  0.5360570000000  0.4795560000000  0.4639110000000 1.0
C      1  0.4847120000000  0.4817170000000  0.4506650000000 1.0
C      1  0.4543790000000  0.4790420000000  0.5013790000000 1.0
C      1  0.5166380000000  0.4779490000000  0.5525340000000 1.0
C      1  0.4630960000000  0.4719160000000  0.5310040000000 1.0
C      1  0.4670060000000  0.4664980000000  0.4730980000000 1.0
C      1  0.5134810000000  0.4734810000000  0.4453810000000 1.0
C      1  0.5495850000000  0.4617080000000  0.5140780000000 1.0
C      1  0.4804670000000  0.5495900000000  0.5173750000000 1.0
C      1  0.5265300000000  0.5428800000000  0.4978210000000 1.0
C      1  0.4799840000000  0.5469610000000  0.4868990000000 1.0
C      1  0.5107790000000  0.5462760000000  0.5234660000000 1.0
C      1  0.5073040000000  0.5476110000000  0.4751790000000 1.0
C      1  0.5316730000000  0.4633410000000  0.4892000000000 1.0
END
