TITL C-3578209-2550-591 2.40898134794632e-07 125000 -199.517740152097 0 0 34 (C1) n - 1
REM
REM in /home/bkarasulu/work/CARBON/AIRSS/Generating-Clusters/EDIP-Nigel-Params/with-SteepDescent/Higher-Symm/SD-CG/HFTN-CG
REM
REM
REM
REM
REM
REM ./C.cell (12c818d87b63d06a65506943cc24bca4)
REM
REM compiler GCC version 9.2.1 20190827 (Red Hat 9.2.1-1)
REM options -cpp -mtune=generic -march=x86-64 -g -O0 -fpre-include=/usr/include/finclude/math-vector-fortran.h
REM seed 317006305 -2007686538 562387078 825112987 2028079870 -1729607278 -1299172279 1917972175 -1897886001 -815397065 -140318776 576709481 -1949596596 1473004102 1260473121 -87278099 1312877935 -1002840382 -626483095 -1522138995 655050507 -282753150 -697952315 1613367240 -1691354554 687555473 -612600478 1143930559 -888425608 757627769 2036626650 2082387854 912608761
REM
CELL 1.54180   50.00000   50.00000   50.00000   90.00000   90.00000   90.00000
LATT -1
SFAC C  
C      1  0.4866010000000  0.4578650000000  0.4833690000000 1.0
C      1  0.5072640000000  0.4608260000000  0.4633960000000 1.0
C      1  0.5340200000000  0.4596790000000  0.4702760000000 1.0
C      1  0.5114680000000  0.4495040000000  0.5283250000000 1.0
C      1  0.4734700000000  0.4560940000000  0.5307390000000 1.0
C      1  0.5400870000000  0.5140740000000  0.5486130000000 1.0
C      1  0.4701880000000  0.5250660000000  0.5456980000000 1.0
C      1  0.4436260000000  0.5163100000000  0.4787110000000 1.0
C      1  0.4919040000000  0.5185830000000  0.4282710000000 1.0
C      1  0.5456330000000  0.5233690000000  0.4800620000000 1.0
C      1  0.4667220000000  0.5277980000000  0.4346260000000 1.0
C      1  0.5305390000000  0.5345400000000  0.4598330000000 1.0
C      1  0.5577770000000  0.5188770000000  0.5272730000000 1.0
C      1  0.4934290000000  0.5264820000000  0.5611690000000 1.0
C      1  0.4521520000000  0.5306290000000  0.5009640000000 1.0
C      1  0.4998880000000  0.4685280000000  0.4378850000000 1.0
C      1  0.5556410000000  0.4751660000000  0.4723990000000 1.0
C      1  0.5270550000000  0.4634130000000  0.5461060000000 1.0
C      1  0.4583760000000  0.4750020000000  0.5433910000000 1.0
C      1  0.4612980000000  0.4668670000000  0.4764320000000 1.0
C      1  0.5419570000000  0.5314840000000  0.5077020000000 1.0
C      1  0.5171490000000  0.5325330000000  0.5473200000000 1.0
C      1  0.4751430000000  0.5351610000000  0.5177000000000 1.0
C      1  0.4485460000000  0.5278130000000  0.4541570000000 1.0
C      1  0.5130810000000  0.5317600000000  0.4399440000000 1.0
C      1  0.4560500000000  0.5012500000000  0.5473400000000 1.0
C      1  0.4461830000000  0.4887750000000  0.4793280000000 1.0
C      1  0.4946850000000  0.4913190000000  0.4249430000000 1.0
C      1  0.5614120000000  0.5011590000000  0.4748550000000 1.0
C      1  0.5345840000000  0.4874730000000  0.5550980000000 1.0
C      1  0.4963310000000  0.5185910000000  0.5045990000000 1.0
C      1  0.4986480000000  0.4926050000000  0.5138640000000 1.0
C      1  0.5141210000000  0.5392220000000  0.5178800000000 1.0
C      1  0.4933690000000  0.4649100000000  0.5116980000000 1.0
END
