TITL C-3577088-510-396 -1.05564956080986e-06 125000 -1167.58600173601 0 0 187 (C1) n - 1
REM
REM in /home/bkarasulu/work/CARBON/AIRSS/Generating-Clusters/EDIP-Nigel-Params/with-SteepDescent/Higher-Symm/SD-CG/HFTN-CG
REM
REM
REM
REM
REM
REM ./C.cell (12c818d87b63d06a65506943cc24bca4)
REM
REM compiler GCC version 9.2.1 20190827 (Red Hat 9.2.1-1)
REM options -cpp -mtune=generic -march=x86-64 -g -O0 -fpre-include=/usr/include/finclude/math-vector-fortran.h
REM seed -712067308 -717651733 -636791848 -27945884 -1190304312 1876491163 -934582098 -1336644331 -1751120792 -1808642430 1322435084 -520720753 2098352404 1798755856 -1743625796 1205383844 1282787438 -260034826 -196909958 -1347038596 -520314692 620810153 -1349593039 1802092730 675678621 35074834 1082719237 2082682410 379920063 1559872401 2094920729 -395334506 -105650279
REM
CELL 1.54180   50.00000   50.00000   50.00000   90.00000   90.00000   90.00000
LATT -1
SFAC C  
C      1  0.5818460000000  0.4145030000000  0.4846040000000 1.0
C      1  0.4850500000000  0.5691650000000  0.4134160000000 1.0
C      1  0.4059930000000  0.4821490000000  0.5726870000000 1.0
C      1  0.4324510000000  0.5900060000000  0.4835060000000 1.0
C      1  0.4252750000000  0.4055670000000  0.5131880000000 1.0
C      1  0.5765650000000  0.5875630000000  0.5155750000000 1.0
C      1  0.5087870000000  0.4214130000000  0.4037480000000 1.0
C      1  0.5154230000000  0.5690890000000  0.5913250000000 1.0
C      1  0.4838700000000  0.4101840000000  0.5938910000000 1.0
C      1  0.5924690000000  0.5125180000000  0.5645010000000 1.0
C      1  0.5882070000000  0.4864690000000  0.4337050000000 1.0
C      1  0.4047360000000  0.5134740000000  0.4237320000000 1.0
C      1  0.5802250000000  0.4130860000000  0.5133420000000 1.0
C      1  0.4841530000000  0.5708880000000  0.5907220000000 1.0
C      1  0.4040540000000  0.4847090000000  0.4173070000000 1.0
C      1  0.4308460000000  0.5916770000000  0.5150080000000 1.0
C      1  0.4195120000000  0.4056130000000  0.4845850000000 1.0
C      1  0.5730880000000  0.5844480000000  0.4855730000000 1.0
C      1  0.5096050000000  0.4220870000000  0.5945350000000 1.0
C      1  0.5163730000000  0.5695370000000  0.4102620000000 1.0
C      1  0.4802870000000  0.4215690000000  0.4076380000000 1.0
C      1  0.5862900000000  0.5145790000000  0.4272190000000 1.0
C      1  0.5929570000000  0.4820830000000  0.5630710000000 1.0
C      1  0.4036620000000  0.5140310000000  0.5747530000000 1.0
C      1  0.5415380000000  0.5872380000000  0.4883600000000 1.0
C      1  0.4839800000000  0.5386780000000  0.5863630000000 1.0
C      1  0.5978120000000  0.4828110000000  0.5322690000000 1.0
C      1  0.4558100000000  0.4205180000000  0.4836290000000 1.0
C      1  0.4608540000000  0.5939230000000  0.5172190000000 1.0
C      1  0.5511020000000  0.4157730000000  0.5187920000000 1.0
C      1  0.5082550000000  0.4507020000000  0.5879240000000 1.0
C      1  0.5168000000000  0.5386390000000  0.4096930000000 1.0
C      1  0.4866160000000  0.4593400000000  0.4002240000000 1.0
C      1  0.4147890000000  0.5162020000000  0.5458530000000 1.0
C      1  0.4185480000000  0.4838320000000  0.4535720000000 1.0
C      1  0.5864360000000  0.5174150000000  0.4653970000000 1.0
C      1  0.5466240000000  0.5914660000000  0.5202470000000 1.0
C      1  0.4872370000000  0.5373240000000  0.4176780000000 1.0
C      1  0.5868770000000  0.4879440000000  0.4627170000000 1.0
C      1  0.4523080000000  0.4171640000000  0.5134070000000 1.0
C      1  0.4643940000000  0.5898020000000  0.4860870000000 1.0
C      1  0.5451270000000  0.4245160000000  0.4899050000000 1.0
C      1  0.5113870000000  0.4457960000000  0.3868710000000 1.0
C      1  0.5147940000000  0.5395350000000  0.5858900000000 1.0
C      1  0.4806820000000  0.4615320000000  0.5857910000000 1.0
C      1  0.4137830000000  0.5130310000000  0.4515910000000 1.0
C      1  0.4160370000000  0.4846880000000  0.5439280000000 1.0
C      1  0.5963180000000  0.5155010000000  0.5340810000000 1.0
C      1  0.4480650000000  0.5096620000000  0.5264730000000 1.0
C      1  0.5138630000000  0.4540450000000  0.5224640000000 1.0
C      1  0.5160460000000  0.5166880000000  0.4653900000000 1.0
C      1  0.5506700000000  0.4891410000000  0.5100350000000 1.0
C      1  0.5317200000000  0.5354950000000  0.4822790000000 1.0
C      1  0.4465120000000  0.4849290000000  0.4709280000000 1.0
C      1  0.4796920000000  0.5515390000000  0.5150750000000 1.0
C      1  0.4665710000000  0.4628630000000  0.4784120000000 1.0
C      1  0.5215910000000  0.5633940000000  0.4858170000000 1.0
C      1  0.4913870000000  0.4744990000000  0.4644050000000 1.0
C      1  0.4735920000000  0.5267740000000  0.5306670000000 1.0
C      1  0.5022290000000  0.4789590000000  0.5330320000000 1.0
C      1  0.4546110000000  0.5134910000000  0.4800940000000 1.0
C      1  0.5277100000000  0.4500880000000  0.4959580000000 1.0
C      1  0.4930600000000  0.5199530000000  0.5531940000000 1.0
C      1  0.5366290000000  0.4764210000000  0.4873300000000 1.0
C      1  0.5368090000000  0.5124250000000  0.5194260000000 1.0
C      1  0.4525190000000  0.4780090000000  0.5310080000000 1.0
C      1  0.4701820000000  0.5344820000000  0.4677460000000 1.0
C      1  0.4653370000000  0.4544890000000  0.5088050000000 1.0
C      1  0.5052910000000  0.5707430000000  0.5106540000000 1.0
C      1  0.4776660000000  0.4758420000000  0.5498960000000 1.0
C      1  0.4899540000000  0.5218540000000  0.4488150000000 1.0
C      1  0.5125810000000  0.4906410000000  0.4780060000000 1.0
C      1  0.5254590000000  0.4188220000000  0.4276400000000 1.0
C      1  0.4254170000000  0.5280280000000  0.4076700000000 1.0
C      1  0.4120260000000  0.4264780000000  0.5295410000000 1.0
C      1  0.4728650000000  0.5849120000000  0.4342700000000 1.0
C      1  0.4699040000000  0.4073520000000  0.5699930000000 1.0
C      1  0.5300200000000  0.5839920000000  0.5714380000000 1.0
C      1  0.5695120000000  0.4685590000000  0.4203380000000 1.0
C      1  0.5697130000000  0.5257400000000  0.5756280000000 1.0
C      1  0.4265770000000  0.4674610000000  0.5866840000000 1.0
C      1  0.5910080000000  0.5657070000000  0.5285370000000 1.0
C      1  0.5964010000000  0.4341730000000  0.4707410000000 1.0
C      1  0.4231400000000  0.5660560000000  0.4701420000000 1.0
C      1  0.5283670000000  0.4090590000000  0.5756800000000 1.0
C      1  0.4227620000000  0.5272930000000  0.5928910000000 1.0
C      1  0.4151560000000  0.4289940000000  0.4693880000000 1.0
C      1  0.4721900000000  0.5855050000000  0.5689300000000 1.0
C      1  0.4682350000000  0.4130090000000  0.4314270000000 1.0
C      1  0.5310290000000  0.5798880000000  0.4329760000000 1.0
C      1  0.5711030000000  0.4661330000000  0.5740520000000 1.0
C      1  0.5643500000000  0.5245890000000  0.4127440000000 1.0
C      1  0.4256190000000  0.4690730000000  0.4072520000000 1.0
C      1  0.5838790000000  0.5606170000000  0.4740330000000 1.0
C      1  0.5974190000000  0.4322180000000  0.5275190000000 1.0
C      1  0.4192430000000  0.5688100000000  0.5292160000000 1.0
C      1  0.4217450000000  0.4297650000000  0.4405580000000 1.0
C      1  0.4398700000000  0.4092260000000  0.4314640000000 1.0
C      1  0.4270690000000  0.4412200000000  0.4137320000000 1.0
C      1  0.5776130000000  0.5562710000000  0.4463560000000 1.0
C      1  0.5958460000000  0.4306240000000  0.5553470000000 1.0
C      1  0.4269280000000  0.5658140000000  0.5575530000000 1.0
C      1  0.5594590000000  0.5727790000000  0.4307860000000 1.0
C      1  0.5543430000000  0.4195750000000  0.5765420000000 1.0
C      1  0.4435830000000  0.5863130000000  0.5688880000000 1.0
C      1  0.5635210000000  0.5531300000000  0.4098790000000 1.0
C      1  0.5749290000000  0.4376710000000  0.5722680000000 1.0
C      1  0.4272920000000  0.5547720000000  0.5846660000000 1.0
C      1  0.4260440000000  0.4289910000000  0.5558990000000 1.0
C      1  0.4413410000000  0.4078250000000  0.5682490000000 1.0
C      1  0.4242690000000  0.4391070000000  0.5833020000000 1.0
C      1  0.5915040000000  0.5665330000000  0.5571650000000 1.0
C      1  0.5935720000000  0.4355040000000  0.4433620000000 1.0
C      1  0.4245210000000  0.5688380000000  0.4410430000000 1.0
C      1  0.5583460000000  0.5809870000000  0.5710940000000 1.0
C      1  0.5525290000000  0.4233380000000  0.4244530000000 1.0
C      1  0.4443000000000  0.5883240000000  0.4326760000000 1.0
C      1  0.5709110000000  0.5549810000000  0.5738260000000 1.0
C      1  0.5739530000000  0.4406420000000  0.4248100000000 1.0
C      1  0.4340020000000  0.5532160000000  0.4187590000000 1.0
C      1  0.5281680000000  0.6113960000000  0.5313190000000 1.0
C      1  0.5270030000000  0.5188230000000  0.6006370000000 1.0
C      1  0.6220150000000  0.5257040000000  0.5243240000000 1.0
C      1  0.4753970000000  0.3987870000000  0.5207390000000 1.0
C      1  0.4806050000000  0.6128890000000  0.4729770000000 1.0
C      1  0.5264260000000  0.4042520000000  0.4776990000000 1.0
C      1  0.4690750000000  0.4732570000000  0.6112630000000 1.0
C      1  0.4739040000000  0.5216890000000  0.3958820000000 1.0
C      1  0.5358220000000  0.4592190000000  0.3871510000000 1.0
C      1  0.3952030000000  0.4751290000000  0.5253300000000 1.0
C      1  0.4003360000000  0.5218260000000  0.4761000000000 1.0
C      1  0.6084350000000  0.4824250000000  0.4814520000000 1.0
C      1  0.5292280000000  0.6109710000000  0.4732600000000 1.0
C      1  0.5213380000000  0.5172630000000  0.3901230000000 1.0
C      1  0.6145460000000  0.5230810000000  0.4759230000000 1.0
C      1  0.4730110000000  0.3966610000000  0.4765230000000 1.0
C      1  0.4794980000000  0.6125270000000  0.5295230000000 1.0
C      1  0.5286140000000  0.3983090000000  0.5252270000000 1.0
C      1  0.4695320000000  0.4725090000000  0.3805200000000 1.0
C      1  0.4702190000000  0.5218380000000  0.6080160000000 1.0
C      1  0.5253140000000  0.4710510000000  0.5992520000000 1.0
C      1  0.3978120000000  0.4744200000000  0.4720600000000 1.0
C      1  0.3961420000000  0.5241890000000  0.5251200000000 1.0
C      1  0.6248630000000  0.4765100000000  0.5222550000000 1.0
C      1  0.5175400000000  0.6071470000000  0.5588740000000 1.0
C      1  0.5527380000000  0.5091920000000  0.5920010000000 1.0
C      1  0.6126950000000  0.5519900000000  0.5139030000000 1.0
C      1  0.4862630000000  0.4025620000000  0.5472230000000 1.0
C      1  0.4894520000000  0.6056990000000  0.4460270000000 1.0
C      1  0.5128660000000  0.4097580000000  0.4523970000000 1.0
C      1  0.4419610000000  0.4830730000000  0.6058030000000 1.0
C      1  0.4476760000000  0.5108480000000  0.3998010000000 1.0
C      1  0.5527610000000  0.4776670000000  0.3988940000000 1.0
C      1  0.4036390000000  0.4498800000000  0.5131340000000 1.0
C      1  0.4053700000000  0.5487360000000  0.4847990000000 1.0
C      1  0.6123030000000  0.4537010000000  0.4851660000000 1.0
C      1  0.5192280000000  0.6031160000000  0.4463040000000 1.0
C      1  0.5475730000000  0.5062190000000  0.3973880000000 1.0
C      1  0.6090380000000  0.5501470000000  0.4848740000000 1.0
C      1  0.4854300000000  0.4010130000000  0.4511630000000 1.0
C      1  0.4871240000000  0.6079990000000  0.5577500000000 1.0
C      1  0.5148210000000  0.4036900000000  0.5499350000000 1.0
C      1  0.4446120000000  0.4837070000000  0.3904790000000 1.0
C      1  0.4460520000000  0.5104010000000  0.5974610000000 1.0
C      1  0.5517660000000  0.4801820000000  0.5902060000000 1.0
C      1  0.4011890000000  0.4491810000000  0.4842840000000 1.0
C      1  0.4055490000000  0.5487930000000  0.5132920000000 1.0
C      1  0.6180130000000  0.4483780000000  0.5129550000000 1.0
C      1  0.5041760000000  0.6047400000000  0.5144540000000 1.0
C      1  0.5090130000000  0.4957770000000  0.5990380000000 1.0
C      1  0.5606730000000  0.5277260000000  0.4918900000000 1.0
C      1  0.4919790000000  0.4348300000000  0.5176160000000 1.0
C      1  0.4781510000000  0.5598030000000  0.4846420000000 1.0
C      1  0.4909570000000  0.4282670000000  0.4859240000000 1.0
C      1  0.4801390000000  0.4976890000000  0.5729880000000 1.0
C      1  0.4835750000000  0.4921790000000  0.4416930000000 1.0
C      1  0.4964410000000  0.4830350000000  0.4167420000000 1.0
C      1  0.4258620000000  0.4838900000000  0.4963280000000 1.0
C      1  0.4315060000000  0.5160820000000  0.4995610000000 1.0
C      1  0.5773170000000  0.5002110000000  0.5037770000000 1.0
C      1  0.3922250000000  0.5001530000000  0.5074770000000 1.0
C      1  0.5093290000000  0.3980740000000  0.5019680000000 1.0
C      1  0.4944420000000  0.5007070000000  0.3907450000000 1.0
C      1  0.6306890000000  0.5034660000000  0.5050300000000 1.0
C      1  0.5050850000000  0.6193040000000  0.4883890000000 1.0
C      1  0.4854830000000  0.4976670000000  0.6168110000000 1.0
C      1  0.5159950000000  0.5041370000000  0.5385270000000 1.0
END
