TITL C-3577090-796-653 -3.1697887379624e-06 125000 -1226.42987262107 0 0 197 (C1) n - 1
REM
REM in /home/bkarasulu/work/CARBON/AIRSS/Generating-Clusters/EDIP-Nigel-Params/with-SteepDescent/Higher-Symm/SD-CG/HFTN-CG
REM
REM
REM
REM
REM
REM ./C.cell (12c818d87b63d06a65506943cc24bca4)
REM
REM compiler GCC version 9.2.1 20190827 (Red Hat 9.2.1-1)
REM options -cpp -mtune=generic -march=x86-64 -g -O0 -fpre-include=/usr/include/finclude/math-vector-fortran.h
REM seed 1974678427 -444593150 -1970254789 1115993163 370877907 -416459002 246492846 800549226 323872106 -393021923 -2129508767 85018112 -716605347 -1773970109 -126507276 1380119869 1806464486 1784032215 479060683 2007982439 1665450705 -1062000334 -177499172 811185393 953095105 43910707 -715018838 -714447104 2133503516 666049536 493673901 -464511719 -973446154
REM
CELL 1.54180   50.00000   50.00000   50.00000   90.00000   90.00000   90.00000
LATT -1
SFAC C  
C      1  0.4783840000000  0.5969720000000  0.4688800000000 1.0
C      1  0.4634360000000  0.5904950000000  0.4996310000000 1.0
C      1  0.4750100000000  0.5948190000000  0.5312230000000 1.0
C      1  0.5072010000000  0.5953840000000  0.5385040000000 1.0
C      1  0.5337960000000  0.5973880000000  0.5166040000000 1.0
C      1  0.5341280000000  0.5992710000000  0.4814030000000 1.0
C      1  0.5094140000000  0.5876120000000  0.4624660000000 1.0
C      1  0.5259030000000  0.4948820000000  0.4847990000000 1.0
C      1  0.5081350000000  0.5110570000000  0.4660780000000 1.0
C      1  0.4786040000000  0.5034700000000  0.4750720000000 1.0
C      1  0.4706770000000  0.5041580000000  0.5112980000000 1.0
C      1  0.4993770000000  0.5019020000000  0.5222450000000 1.0
C      1  0.5182190000000  0.5075580000000  0.5456880000000 1.0
C      1  0.5499170000000  0.5033480000000  0.4997350000000 1.0
C      1  0.5070380000000  0.4416350000000  0.5842460000000 1.0
C      1  0.5681680000000  0.4459050000000  0.5419930000000 1.0
C      1  0.5764390000000  0.4446720000000  0.4701720000000 1.0
C      1  0.5224760000000  0.4456600000000  0.4204400000000 1.0
C      1  0.4509370000000  0.4478030000000  0.4354920000000 1.0
C      1  0.4192380000000  0.4461120000000  0.4910890000000 1.0
C      1  0.4466300000000  0.4444430000000  0.5633650000000 1.0
C      1  0.4139390000000  0.5244820000000  0.4561780000000 1.0
C      1  0.4215990000000  0.5219320000000  0.5366190000000 1.0
C      1  0.4762890000000  0.5225360000000  0.6001090000000 1.0
C      1  0.5586630000000  0.5226380000000  0.5707160000000 1.0
C      1  0.5922590000000  0.5265990000000  0.4953470000000 1.0
C      1  0.5617980000000  0.5248050000000  0.4188120000000 1.0
C      1  0.4789920000000  0.5225200000000  0.4070110000000 1.0
C      1  0.5307210000000  0.4017330000000  0.5067670000000 1.0
C      1  0.5220370000000  0.4147490000000  0.4804870000000 1.0
C      1  0.4969910000000  0.4003900000000  0.4698020000000 1.0
C      1  0.4717340000000  0.3992700000000  0.4884670000000 1.0
C      1  0.4710900000000  0.4126820000000  0.5163760000000 1.0
C      1  0.4895360000000  0.3975080000000  0.5352240000000 1.0
C      1  0.5150440000000  0.4133700000000  0.5318110000000 1.0
C      1  0.5433750000000  0.4097370000000  0.4600130000000 1.0
C      1  0.4902130000000  0.4134560000000  0.4443040000000 1.0
C      1  0.4502300000000  0.4120370000000  0.4739260000000 1.0
C      1  0.4424330000000  0.4132820000000  0.5234540000000 1.0
C      1  0.4814220000000  0.4038510000000  0.5626560000000 1.0
C      1  0.5308800000000  0.4087470000000  0.5566620000000 1.0
C      1  0.5581340000000  0.4119360000000  0.5075480000000 1.0
C      1  0.4118520000000  0.4642230000000  0.5794320000000 1.0
C      1  0.5105420000000  0.4617190000000  0.6221960000000 1.0
C      1  0.5996240000000  0.4644390000000  0.5650480000000 1.0
C      1  0.6124460000000  0.4669750000000  0.4618090000000 1.0
C      1  0.5391900000000  0.4626200000000  0.3841240000000 1.0
C      1  0.4391260000000  0.4618550000000  0.3966800000000 1.0
C      1  0.3801160000000  0.4621680000000  0.4815970000000 1.0
C      1  0.5080640000000  0.5336980000000  0.5574290000000 1.0
C      1  0.5517750000000  0.5378640000000  0.5273460000000 1.0
C      1  0.5537270000000  0.5405820000000  0.4712310000000 1.0
C      1  0.5175760000000  0.5390890000000  0.4459440000000 1.0
C      1  0.4679450000000  0.5392680000000  0.4510790000000 1.0
C      1  0.4429350000000  0.5350440000000  0.4956580000000 1.0
C      1  0.4653600000000  0.5371610000000  0.5469000000000 1.0
C      1  0.6033930000000  0.4604230000000  0.5354650000000 1.0
C      1  0.5924420000000  0.4611710000000  0.4391790000000 1.0
C      1  0.5097070000000  0.4558340000000  0.3855650000000 1.0
C      1  0.4180200000000  0.4583540000000  0.4178330000000 1.0
C      1  0.3883090000000  0.4563310000000  0.5109570000000 1.0
C      1  0.4375510000000  0.4617350000000  0.5967050000000 1.0
C      1  0.5354980000000  0.4564090000000  0.6052920000000 1.0
C      1  0.4145410000000  0.5391890000000  0.5591280000000 1.0
C      1  0.4967980000000  0.5395770000000  0.6112530000000 1.0
C      1  0.5818380000000  0.5402300000000  0.5675090000000 1.0
C      1  0.6069350000000  0.5449020000000  0.4777130000000 1.0
C      1  0.5475600000000  0.5405490000000  0.3994030000000 1.0
C      1  0.4582110000000  0.5402200000000  0.3968040000000 1.0
C      1  0.3948950000000  0.5417030000000  0.4695250000000 1.0
C      1  0.5066160000000  0.4597020000000  0.5609540000000 1.0
C      1  0.5500640000000  0.4661190000000  0.5298720000000 1.0
C      1  0.5539960000000  0.4640930000000  0.4704580000000 1.0
C      1  0.5098490000000  0.4688710000000  0.4358850000000 1.0
C      1  0.4571020000000  0.4719620000000  0.4515170000000 1.0
C      1  0.4329530000000  0.4707170000000  0.5046440000000 1.0
C      1  0.4639890000000  0.4635440000000  0.5499450000000 1.0
C      1  0.3950770000000  0.5336460000000  0.4963180000000 1.0
C      1  0.4318520000000  0.5328020000000  0.5800040000000 1.0
C      1  0.5219010000000  0.5312810000000  0.6032910000000 1.0
C      1  0.5941040000000  0.5329170000000  0.5432840000000 1.0
C      1  0.5968440000000  0.5380060000000  0.4524570000000 1.0
C      1  0.5208030000000  0.5338610000000  0.3971300000000 1.0
C      1  0.4366650000000  0.5352660000000  0.4137620000000 1.0
C      1  0.5700680000000  0.4709630000000  0.4220040000000 1.0
C      1  0.4882760000000  0.4676570000000  0.4034740000000 1.0
C      1  0.4134240000000  0.4695890000000  0.4446030000000 1.0
C      1  0.4110140000000  0.4679480000000  0.5290540000000 1.0
C      1  0.4657680000000  0.4699700000000  0.6019410000000 1.0
C      1  0.5549340000000  0.4691240000000  0.5865310000000 1.0
C      1  0.5989200000000  0.4730990000000  0.5092490000000 1.0
C      1  0.5361020000000  0.5719390000000  0.5741810000000 1.0
C      1  0.5807040000000  0.5748680000000  0.5153420000000 1.0
C      1  0.5646990000000  0.5786510000000  0.4440480000000 1.0
C      1  0.4989650000000  0.5753520000000  0.4159540000000 1.0
C      1  0.4352330000000  0.5757810000000  0.4480740000000 1.0
C      1  0.4204290000000  0.5714650000000  0.5190640000000 1.0
C      1  0.4637430000000  0.5744580000000  0.5776950000000 1.0
C      1  0.5103890000000  0.5582600000000  0.4683980000000 1.0
C      1  0.4838440000000  0.5472090000000  0.4746210000000 1.0
C      1  0.4691100000000  0.5466130000000  0.4988700000000 1.0
C      1  0.4792150000000  0.5514680000000  0.5257670000000 1.0
C      1  0.5071570000000  0.5517970000000  0.5325710000000 1.0
C      1  0.5277930000000  0.5447700000000  0.5130940000000 1.0
C      1  0.5325010000000  0.5542580000000  0.4865350000000 1.0
C      1  0.5813030000000  0.5845970000000  0.4892080000000 1.0
C      1  0.5437700000000  0.5863190000000  0.4275290000000 1.0
C      1  0.4731780000000  0.5843420000000  0.4208930000000 1.0
C      1  0.4232110000000  0.5823120000000  0.4722320000000 1.0
C      1  0.4297340000000  0.5796210000000  0.5440780000000 1.0
C      1  0.4898600000000  0.5820330000000  0.5833750000000 1.0
C      1  0.5567140000000  0.5799070000000  0.5571110000000 1.0
C      1  0.5048870000000  0.6368350000000  0.4753720000000 1.0
C      1  0.4796540000000  0.6254330000000  0.4772560000000 1.0
C      1  0.4683420000000  0.6277640000000  0.5036940000000 1.0
C      1  0.4840770000000  0.6317220000000  0.5277330000000 1.0
C      1  0.5126800000000  0.6317480000000  0.5329310000000 1.0
C      1  0.5330250000000  0.6356760000000  0.5129550000000 1.0
C      1  0.5294670000000  0.6285370000000  0.4853100000000 1.0
C      1  0.5638770000000  0.4942300000000  0.4588480000000 1.0
C      1  0.5161350000000  0.4984920000000  0.4297410000000 1.0
C      1  0.4505540000000  0.4994990000000  0.4422350000000 1.0
C      1  0.4231620000000  0.4953780000000  0.4914200000000 1.0
C      1  0.4583160000000  0.4944300000000  0.5599500000000 1.0
C      1  0.5108260000000  0.4894640000000  0.5696610000000 1.0
C      1  0.5624840000000  0.4923980000000  0.5253990000000 1.0
C      1  0.3816970000000  0.4917660000000  0.4749870000000 1.0
C      1  0.4078870000000  0.4924030000000  0.5708520000000 1.0
C      1  0.5045770000000  0.4906500000000  0.6221700000000 1.0
C      1  0.5937850000000  0.4928330000000  0.5685540000000 1.0
C      1  0.6143220000000  0.4955020000000  0.4692220000000 1.0
C      1  0.5439710000000  0.4921560000000  0.3872000000000 1.0
C      1  0.4459130000000  0.4910310000000  0.3936090000000 1.0
C      1  0.4934090000000  0.3680160000000  0.5308810000000 1.0
C      1  0.5201590000000  0.3601660000000  0.5296410000000 1.0
C      1  0.5302950000000  0.3716630000000  0.5063350000000 1.0
C      1  0.5210250000000  0.3600160000000  0.4827850000000 1.0
C      1  0.4982660000000  0.3691060000000  0.4695120000000 1.0
C      1  0.4723590000000  0.3677800000000  0.4872180000000 1.0
C      1  0.4765980000000  0.3561460000000  0.5121650000000 1.0
C      1  0.5310890000000  0.5415910000000  0.5772740000000 1.0
C      1  0.5804860000000  0.5441620000000  0.5195650000000 1.0
C      1  0.5690390000000  0.5481900000000  0.4464340000000 1.0
C      1  0.5041970000000  0.5453780000000  0.4185990000000 1.0
C      1  0.4387750000000  0.5457680000000  0.4422620000000 1.0
C      1  0.4192520000000  0.5414570000000  0.5121980000000 1.0
C      1  0.4592320000000  0.5440640000000  0.5759480000000 1.0
C      1  0.4862050000000  0.4490350000000  0.6069070000000 1.0
C      1  0.5731390000000  0.4502540000000  0.5727750000000 1.0
C      1  0.6014150000000  0.4534430000000  0.4870440000000 1.0
C      1  0.5519850000000  0.4507980000000  0.4098080000000 1.0
C      1  0.4647400000000  0.4491580000000  0.4074730000000 1.0
C      1  0.4030390000000  0.4498730000000  0.4643410000000 1.0
C      1  0.4176320000000  0.4493160000000  0.5529400000000 1.0
C      1  0.3955230000000  0.5039870000000  0.4984650000000 1.0
C      1  0.4342010000000  0.5028240000000  0.5801570000000 1.0
C      1  0.5226580000000  0.5024370000000  0.6025270000000 1.0
C      1  0.5935030000000  0.5034830000000  0.5406800000000 1.0
C      1  0.5968530000000  0.5088760000000  0.4502210000000 1.0
C      1  0.5185870000000  0.5044400000000  0.3988050000000 1.0
C      1  0.4334100000000  0.5056450000000  0.4169720000000 1.0
C      1  0.4373590000000  0.5151910000000  0.4745310000000 1.0
C      1  0.4523280000000  0.5133050000000  0.5366800000000 1.0
C      1  0.4838080000000  0.5073970000000  0.5734640000000 1.0
C      1  0.5482760000000  0.5135930000000  0.5431440000000 1.0
C      1  0.5667320000000  0.5170220000000  0.4817890000000 1.0
C      1  0.5437770000000  0.5108090000000  0.4403550000000 1.0
C      1  0.4766540000000  0.5152050000000  0.4369720000000 1.0
C      1  0.5060050000000  0.4457080000000  0.5328130000000 1.0
C      1  0.5249270000000  0.4595010000000  0.5142700000000 1.0
C      1  0.5273980000000  0.4496090000000  0.4809820000000 1.0
C      1  0.5041160000000  0.4619850000000  0.4645620000000 1.0
C      1  0.4768000000000  0.4726000000000  0.4737230000000 1.0
C      1  0.4646590000000  0.4719010000000  0.5040480000000 1.0
C      1  0.4761170000000  0.4504400000000  0.5247030000000 1.0
C      1  0.4329820000000  0.5874960000000  0.4977630000000 1.0
C      1  0.4542340000000  0.5890410000000  0.5536640000000 1.0
C      1  0.5123040000000  0.5880750000000  0.5681130000000 1.0
C      1  0.5598070000000  0.5889770000000  0.5308110000000 1.0
C      1  0.5626210000000  0.5929520000000  0.4701340000000 1.0
C      1  0.5169260000000  0.5905130000000  0.4332110000000 1.0
C      1  0.4599050000000  0.5916240000000  0.4442740000000 1.0
C      1  0.4319710000000  0.4199750000000  0.4961300000000 1.0
C      1  0.4546570000000  0.4162650000000  0.5593870000000 1.0
C      1  0.5078290000000  0.4130490000000  0.5758260000000 1.0
C      1  0.5611130000000  0.4182170000000  0.5361140000000 1.0
C      1  0.5663680000000  0.4171960000000  0.4778430000000 1.0
C      1  0.5178610000000  0.4199770000000  0.4344810000000 1.0
C      1  0.4628280000000  0.4246460000000  0.4503110000000 1.0
C      1  0.3991620000000  0.4961480000000  0.4500010000000 1.0
C      1  0.4051790000000  0.4957300000000  0.5408190000000 1.0
C      1  0.4756960000000  0.4950990000000  0.6150290000000 1.0
C      1  0.5680580000000  0.4962370000000  0.5841970000000 1.0
C      1  0.6083090000000  0.4998530000000  0.4990290000000 1.0
C      1  0.5674690000000  0.4964270000000  0.4060670000000 1.0
C      1  0.4759310000000  0.4944370000000  0.3938310000000 1.0
C      1  0.5084740000000  0.4822040000000  0.5038060000000 1.0
END
