TITL C-3578200-9634-804 -2.05220558803037e-06 125000 -361.352348600517 0 0 61 (Cs) n - 1
REM
REM in /home/bkarasulu/work/CARBON/AIRSS/Generating-Clusters/EDIP-Nigel-Params/with-SteepDescent/Higher-Symm/SD-CG/HFTN-CG
REM
REM
REM
REM
REM
REM ./C.cell (12c818d87b63d06a65506943cc24bca4)
REM
REM compiler GCC version 9.2.1 20190827 (Red Hat 9.2.1-1)
REM options -cpp -mtune=generic -march=x86-64 -g -O0 -fpre-include=/usr/include/finclude/math-vector-fortran.h
REM seed -111380676 -1773533780 -470684874 -496615424 -1786204098 207031056 486060944 -1463160190 293822743 -353922552 -1152656638 1788789578 836970480 -312825138 -1140141090 1024733756 -2035640612 -1101035679 -70386116 27801180 -909116622 -841987985 -395932396 1363154870 1424002886 1489121274 728215834 -1104689092 506447928 404199689 294139677 147326214 981207931
REM
CELL 1.54180   50.00000   50.00000   50.00000   90.00000   90.00000   90.00000
LATT -1
SFAC C  
C      1  0.5221270000000  0.5649610000000  0.4742880000000 1.0
C      1  0.4767130000000  0.5651090000000  0.5286440000000 1.0
C      1  0.5222850000000  0.4344890000000  0.4740490000000 1.0
C      1  0.4769520000000  0.4338670000000  0.5283740000000 1.0
C      1  0.4533320000000  0.4434860000000  0.5174310000000 1.0
C      1  0.5460470000000  0.4439460000000  0.4848110000000 1.0
C      1  0.4531400000000  0.5554380000000  0.5176450000000 1.0
C      1  0.5459290000000  0.5555070000000  0.4849650000000 1.0
C      1  0.4671610000000  0.4845590000000  0.4322070000000 1.0
C      1  0.5309390000000  0.4848730000000  0.5713200000000 1.0
C      1  0.4675470000000  0.5151810000000  0.4322930000000 1.0
C      1  0.5308860000000  0.5141260000000  0.5713800000000 1.0
C      1  0.5538390000000  0.5284790000000  0.4859510000000 1.0
C      1  0.4464150000000  0.5281660000000  0.5166940000000 1.0
C      1  0.5538800000000  0.4709890000000  0.4858720000000 1.0
C      1  0.4465150000000  0.4707390000000  0.5165890000000 1.0
C      1  0.4240440000000  0.4707700000000  0.4735680000000 1.0
C      1  0.5791280000000  0.4718710000000  0.5279340000000 1.0
C      1  0.4239820000000  0.5281980000000  0.4736430000000 1.0
C      1  0.5790420000000  0.5275020000000  0.5280450000000 1.0
C      1  0.4993530000000  0.5511140000000  0.4787970000000 1.0
C      1  0.4990950000000  0.5506630000000  0.5229880000000 1.0
C      1  0.4994460000000  0.4482520000000  0.4785660000000 1.0
C      1  0.4992790000000  0.4484190000000  0.5227610000000 1.0
C      1  0.5496320000000  0.5154470000000  0.4604920000000 1.0
C      1  0.4504370000000  0.5150940000000  0.5422110000000 1.0
C      1  0.5496330000000  0.4840680000000  0.4604460000000 1.0
C      1  0.4504970000000  0.4837280000000  0.5421530000000 1.0
C      1  0.4837330000000  0.4348440000000  0.4611630000000 1.0
C      1  0.5156460000000  0.4336220000000  0.5385520000000 1.0
C      1  0.4835390000000  0.5644950000000  0.4614640000000 1.0
C      1  0.5154010000000  0.5654550000000  0.5388420000000 1.0
C      1  0.4801000000000  0.4840310000000  0.5516720000000 1.0
C      1  0.5200500000000  0.4842610000000  0.4511730000000 1.0
C      1  0.4800400000000  0.5148650000000  0.5517400000000 1.0
C      1  0.5200670000000  0.5152950000000  0.4512330000000 1.0
C      1  0.4350240000000  0.4598170000000  0.4501340000000 1.0
C      1  0.5650870000000  0.4613500000000  0.5497730000000 1.0
C      1  0.4349820000000  0.5392820000000  0.4502800000000 1.0
C      1  0.5649460000000  0.5378660000000  0.5499250000000 1.0
C      1  0.4580490000000  0.5557760000000  0.4543230000000 1.0
C      1  0.5411060000000  0.5531260000000  0.5420700000000 1.0
C      1  0.4582510000000  0.4435460000000  0.4540290000000 1.0
C      1  0.5413030000000  0.4460330000000  0.5418590000000 1.0
C      1  0.4998440000000  0.4770360000000  0.5294880000000 1.0
C      1  0.5001420000000  0.4771660000000  0.4733620000000 1.0
C      1  0.4997590000000  0.5220230000000  0.5295910000000 1.0
C      1  0.5002030000000  0.5222260000000  0.4735010000000 1.0
C      1  0.4390730000000  0.5189590000000  0.4294520000000 1.0
C      1  0.5596090000000  0.5188030000000  0.5715140000000 1.0
C      1  0.4388110000000  0.4801820000000  0.4293560000000 1.0
C      1  0.5596780000000  0.4803000000000  0.5714420000000 1.0
C      1  0.4734180000000  0.5151700000000  0.4629530000000 1.0
C      1  0.5276290000000  0.5164250000000  0.5404660000000 1.0
C      1  0.4733030000000  0.4842500000000  0.4628510000000 1.0
C      1  0.5276920000000  0.4826900000000  0.5403950000000 1.0
C      1  0.5713110000000  0.5143820000000  0.5046880000000 1.0
C      1  0.4300520000000  0.5142090000000  0.4970290000000 1.0
C      1  0.5713460000000  0.4850600000000  0.5046330000000 1.0
C      1  0.4300940000000  0.4847120000000  0.4969860000000 1.0
C      1  0.5002540000000  0.4995830000000  0.5015530000000 1.0
END
