TITL C-3577084-3642-172 -7.50456831555409e-08 125000 -1010.47164732526 0 0 160 (C1) n - 1
REM
REM in /home/bkarasulu/work/CARBON/AIRSS/Generating-Clusters/EDIP-Nigel-Params/with-SteepDescent/Higher-Symm/SD-CG/HFTN-CG
REM
REM
REM
REM
REM
REM ./C.cell (12c818d87b63d06a65506943cc24bca4)
REM
REM compiler GCC version 9.2.1 20190827 (Red Hat 9.2.1-1)
REM options -cpp -mtune=generic -march=x86-64 -g -O0 -fpre-include=/usr/include/finclude/math-vector-fortran.h
REM seed -1092317598 -1330796334 1652679223 -2009814019 -1644299153 -590765016 363478948 343203808 1992387733 -854285859 1109829651 737166529 -1343166912 1154525655 -486412953 649886143 -1647647447 570765164 -246494952 610650192 29152641 -850324064 1027798909 1791063907 -1660686448 -1361762962 11723780 -1041850321 1663506852 1389703293 610349222 477568979 1589213388
REM
CELL 1.54180   50.00000   50.00000   50.00000   90.00000   90.00000   90.00000
LATT -1
SFAC C  
C      1  0.5295440000000  0.4065270000000  0.5265050000000 1.0
C      1  0.5310550000000  0.4675930000000  0.5831640000000 1.0
C      1  0.5300460000000  0.5403410000000  0.5788720000000 1.0
C      1  0.5318590000000  0.5882620000000  0.5170400000000 1.0
C      1  0.5278370000000  0.5734900000000  0.4369710000000 1.0
C      1  0.5283740000000  0.4954540000000  0.4028310000000 1.0
C      1  0.5290200000000  0.4157440000000  0.4414990000000 1.0
C      1  0.5077910000000  0.4567520000000  0.4567680000000 1.0
C      1  0.5054100000000  0.4370810000000  0.5030760000000 1.0
C      1  0.5011830000000  0.4688310000000  0.5454250000000 1.0
C      1  0.4951180000000  0.5174420000000  0.5549810000000 1.0
C      1  0.5008750000000  0.5538120000000  0.5224390000000 1.0
C      1  0.5004150000000  0.5519440000000  0.4690110000000 1.0
C      1  0.4972450000000  0.5105630000000  0.4397980000000 1.0
C      1  0.5577250000000  0.4510330000000  0.4237160000000 1.0
C      1  0.5600040000000  0.4115600000000  0.4903810000000 1.0
C      1  0.5605770000000  0.4393680000000  0.5625250000000 1.0
C      1  0.5646120000000  0.5100770000000  0.5894120000000 1.0
C      1  0.5639520000000  0.5742410000000  0.5500930000000 1.0
C      1  0.5679740000000  0.5891650000000  0.4768260000000 1.0
C      1  0.5580780000000  0.5295870000000  0.4174150000000 1.0
C      1  0.4625210000000  0.5751670000000  0.5639290000000 1.0
C      1  0.4618770000000  0.5986620000000  0.4803470000000 1.0
C      1  0.4604700000000  0.5445290000000  0.4150130000000 1.0
C      1  0.4607020000000  0.4582840000000  0.4086360000000 1.0
C      1  0.4607150000000  0.4017630000000  0.4757880000000 1.0
C      1  0.4614460000000  0.4218050000000  0.5609190000000 1.0
C      1  0.4622600000000  0.4977410000000  0.6015920000000 1.0
C      1  0.4808770000000  0.5335110000000  0.4531110000000 1.0
C      1  0.4941420000000  0.4857260000000  0.4596020000000 1.0
C      1  0.4903100000000  0.4408390000000  0.4770520000000 1.0
C      1  0.4879580000000  0.4493770000000  0.5258070000000 1.0
C      1  0.4808730000000  0.4914420000000  0.5493940000000 1.0
C      1  0.4801210000000  0.5417610000000  0.5419330000000 1.0
C      1  0.4867090000000  0.5595680000000  0.4954260000000 1.0
C      1  0.5602590000000  0.4737480000000  0.4712390000000 1.0
C      1  0.5612370000000  0.4670030000000  0.5107590000000 1.0
C      1  0.5519480000000  0.4831360000000  0.5376800000000 1.0
C      1  0.5628690000000  0.5143540000000  0.5357890000000 1.0
C      1  0.5508480000000  0.5383220000000  0.5149890000000 1.0
C      1  0.5567820000000  0.5335550000000  0.4845140000000 1.0
C      1  0.5587460000000  0.5052640000000  0.4613650000000 1.0
C      1  0.4589390000000  0.4392240000000  0.4304110000000 1.0
C      1  0.4587130000000  0.4084250000000  0.5040170000000 1.0
C      1  0.4608410000000  0.4480660000000  0.5729320000000 1.0
C      1  0.4593340000000  0.5241210000000  0.5897770000000 1.0
C      1  0.4609780000000  0.5815070000000  0.5360970000000 1.0
C      1  0.4584610000000  0.5821280000000  0.4565740000000 1.0
C      1  0.4588300000000  0.5157040000000  0.4110790000000 1.0
C      1  0.5396560000000  0.3952270000000  0.4796360000000 1.0
C      1  0.5356700000000  0.4254430000000  0.5701490000000 1.0
C      1  0.5407650000000  0.5058630000000  0.6046540000000 1.0
C      1  0.5409520000000  0.5829010000000  0.5642290000000 1.0
C      1  0.5411660000000  0.5977800000000  0.4717710000000 1.0
C      1  0.5374230000000  0.5435730000000  0.4035770000000 1.0
C      1  0.5342770000000  0.4484980000000  0.4061920000000 1.0
C      1  0.5259200000000  0.5337920000000  0.4745920000000 1.0
C      1  0.5281000000000  0.5132260000000  0.4521840000000 1.0
C      1  0.5345280000000  0.4569760000000  0.4700530000000 1.0
C      1  0.5309960000000  0.4549960000000  0.4988780000000 1.0
C      1  0.5229960000000  0.4865080000000  0.5320540000000 1.0
C      1  0.5188930000000  0.5141600000000  0.5389730000000 1.0
C      1  0.5221990000000  0.5335650000000  0.5186830000000 1.0
C      1  0.5564360000000  0.5700670000000  0.5210280000000 1.0
C      1  0.5502700000000  0.5642290000000  0.4539730000000 1.0
C      1  0.5527650000000  0.5007470000000  0.4177950000000 1.0
C      1  0.5565390000000  0.4288150000000  0.4439660000000 1.0
C      1  0.5530690000000  0.4206440000000  0.5169850000000 1.0
C      1  0.5561610000000  0.4691660000000  0.5665160000000 1.0
C      1  0.5575480000000  0.5287580000000  0.5666540000000 1.0
C      1  0.4104730000000  0.5447640000000  0.5389190000000 1.0
C      1  0.4098840000000  0.5588720000000  0.4912380000000 1.0
C      1  0.4198020000000  0.5245810000000  0.4553240000000 1.0
C      1  0.4099370000000  0.4759130000000  0.4473360000000 1.0
C      1  0.4097730000000  0.4438580000000  0.4850010000000 1.0
C      1  0.4113740000000  0.4553290000000  0.5336210000000 1.0
C      1  0.4114110000000  0.4987620000000  0.5574330000000 1.0
C      1  0.4373420000000  0.5582620000000  0.4227710000000 1.0
C      1  0.4378830000000  0.4737850000000  0.4045000000000 1.0
C      1  0.4386410000000  0.4088910000000  0.4604630000000 1.0
C      1  0.4388620000000  0.4146880000000  0.5463310000000 1.0
C      1  0.4401670000000  0.4813980000000  0.5971890000000 1.0
C      1  0.4396780000000  0.5642920000000  0.5753900000000 1.0
C      1  0.4400910000000  0.5990010000000  0.4977190000000 1.0
C      1  0.5168730000000  0.4145620000000  0.5512630000000 1.0
C      1  0.5204430000000  0.4863250000000  0.6017740000000 1.0
C      1  0.5198880000000  0.5668660000000  0.5739040000000 1.0
C      1  0.5203790000000  0.5965510000000  0.4916990000000 1.0
C      1  0.5160340000000  0.5551460000000  0.4181980000000 1.0
C      1  0.5155400000000  0.4700330000000  0.4045030000000 1.0
C      1  0.5167790000000  0.4004600000000  0.4637410000000 1.0
C      1  0.5921260000000  0.4840080000000  0.4443110000000 1.0
C      1  0.5922180000000  0.4470270000000  0.4773680000000 1.0
C      1  0.5942660000000  0.4475780000000  0.5286370000000 1.0
C      1  0.5990490000000  0.4901380000000  0.5626740000000 1.0
C      1  0.5998770000000  0.5418000000000  0.5482520000000 1.0
C      1  0.5992630000000  0.5616820000000  0.5005830000000 1.0
C      1  0.5896200000000  0.5350380000000  0.4551040000000 1.0
C      1  0.4858040000000  0.5601790000000  0.4183170000000 1.0
C      1  0.4856960000000  0.4732840000000  0.4038780000000 1.0
C      1  0.4862780000000  0.4129410000000  0.4636610000000 1.0
C      1  0.4863450000000  0.4157330000000  0.5453250000000 1.0
C      1  0.4890510000000  0.4843260000000  0.5978280000000 1.0
C      1  0.4882510000000  0.5628350000000  0.5737020000000 1.0
C      1  0.4874900000000  0.5910750000000  0.4953500000000 1.0
C      1  0.4342260000000  0.4315900000000  0.4447840000000 1.0
C      1  0.4341100000000  0.4154420000000  0.5187820000000 1.0
C      1  0.4356430000000  0.4621250000000  0.5776270000000 1.0
C      1  0.4348340000000  0.5372520000000  0.5798830000000 1.0
C      1  0.4356780000000  0.5852480000000  0.5217080000000 1.0
C      1  0.4328960000000  0.5709610000000  0.4473670000000 1.0
C      1  0.4345670000000  0.4998490000000  0.4139470000000 1.0
C      1  0.4612380000000  0.5430130000000  0.4967650000000 1.0
C      1  0.4550430000000  0.5288620000000  0.4708200000000 1.0
C      1  0.4658310000000  0.4814220000000  0.4675490000000 1.0
C      1  0.4662930000000  0.4579270000000  0.4840950000000 1.0
C      1  0.4670940000000  0.4664020000000  0.5127220000000 1.0
C      1  0.4673780000000  0.4955290000000  0.5235360000000 1.0
C      1  0.4624150000000  0.5262320000000  0.5218240000000 1.0
C      1  0.5053460000000  0.5793640000000  0.4541150000000 1.0
C      1  0.5068230000000  0.5146840000000  0.4029480000000 1.0
C      1  0.5089260000000  0.4364140000000  0.4319900000000 1.0
C      1  0.5077400000000  0.4062170000000  0.5066480000000 1.0
C      1  0.5090350000000  0.4528960000000  0.5709870000000 1.0
C      1  0.5057190000000  0.5231670000000  0.5837120000000 1.0
C      1  0.5091720000000  0.5811680000000  0.5337590000000 1.0
C      1  0.6031430000000  0.5341890000000  0.5012790000000 1.0
C      1  0.5981630000000  0.5202420000000  0.4764320000000 1.0
C      1  0.6002050000000  0.4924360000000  0.4704030000000 1.0
C      1  0.5997850000000  0.4713080000000  0.4896370000000 1.0
C      1  0.6040370000000  0.4717630000000  0.5182120000000 1.0
C      1  0.6022110000000  0.4951900000000  0.5354800000000 1.0
C      1  0.6047210000000  0.5231310000000  0.5279560000000 1.0
C      1  0.4163670000000  0.5632370000000  0.5182910000000 1.0
C      1  0.4187270000000  0.5520620000000  0.4651200000000 1.0
C      1  0.4177790000000  0.5012620000000  0.4377130000000 1.0
C      1  0.4163190000000  0.4507240000000  0.4583960000000 1.0
C      1  0.4169790000000  0.4382540000000  0.5117760000000 1.0
C      1  0.4192720000000  0.4718900000000  0.5551740000000 1.0
C      1  0.4177940000000  0.5261360000000  0.5587430000000 1.0
C      1  0.4840150000000  0.5955020000000  0.5251310000000 1.0
C      1  0.4810730000000  0.5826270000000  0.4376110000000 1.0
C      1  0.4814830000000  0.5017550000000  0.4000830000000 1.0
C      1  0.4819750000000  0.4223790000000  0.4348440000000 1.0
C      1  0.4815710000000  0.4001820000000  0.5201440000000 1.0
C      1  0.4847900000000  0.4562620000000  0.5881740000000 1.0
C      1  0.4832170000000  0.5403040000000  0.5929410000000 1.0
C      1  0.5700480000000  0.4305390000000  0.4708190000000 1.0
C      1  0.5715730000000  0.4325370000000  0.5361350000000 1.0
C      1  0.5776380000000  0.4853270000000  0.5799740000000 1.0
C      1  0.5775480000000  0.5511100000000  0.5625850000000 1.0
C      1  0.5775380000000  0.5788940000000  0.5018800000000 1.0
C      1  0.5675050000000  0.5437790000000  0.4413070000000 1.0
C      1  0.5691540000000  0.4784800000000  0.4281980000000 1.0
C      1  0.5669350000000  0.4995270000000  0.4992150000000 1.0
C      1  0.4525560000000  0.5018710000000  0.4823020000000 1.0
C      1  0.4039870000000  0.4965210000000  0.5040670000000 1.0
C      1  0.5087700000000  0.5000600000000  0.4832390000000 1.0
C      1  0.5201100000000  0.4820790000000  0.5036920000000 1.0
C      1  0.4275210000000  0.4956490000000  0.4934810000000 1.0
END
