TITL C-3577085-527-306 -7.24351269952467e-07 125000 -222.215705177131 0 0 36 (Cs) n - 1
REM
REM in /home/bkarasulu/work/CARBON/AIRSS/Generating-Clusters/EDIP-Nigel-Params/with-SteepDescent/Higher-Symm/SD-CG/HFTN-CG
REM
REM
REM
REM
REM
REM ./C.cell (12c818d87b63d06a65506943cc24bca4)
REM
REM compiler GCC version 9.2.1 20190827 (Red Hat 9.2.1-1)
REM options -cpp -mtune=generic -march=x86-64 -g -O0 -fpre-include=/usr/include/finclude/math-vector-fortran.h
REM seed -1295123544 -996270880 -2075405067 203479299 -1845846513 1034366739 -837835322 -1757242062 -921806000 -862312234 -1097900498 -618305101 -1428353274 343483161 1711196196 286562333 1508474425 865987266 114336438 1144123508 -123409607 -1587985283 -1176043419 242378634 -763915742 -1509209466 1360708257 406479737 -2141717868 -1763158672 -1507977065 2049816152 -1006778936
REM
CELL 1.54180   50.00000   50.00000   50.00000   90.00000   90.00000   90.00000
LATT -1
SFAC C  
C      1  0.4540000000000  0.4922230000000  0.4677800000000 1.0
C      1  0.4628980000000  0.5175850000000  0.4603560000000 1.0
C      1  0.4626790000000  0.5396090000000  0.4828020000000 1.0
C      1  0.4536090000000  0.5316170000000  0.5079300000000 1.0
C      1  0.4647640000000  0.5206310000000  0.5308850000000 1.0
C      1  0.4552840000000  0.4951730000000  0.5371150000000 1.0
C      1  0.4648410000000  0.4703610000000  0.5287390000000 1.0
C      1  0.4556090000000  0.4623670000000  0.5036790000000 1.0
C      1  0.4652750000000  0.4691720000000  0.4784400000000 1.0
C      1  0.4956940000000  0.4681890000000  0.4773810000000 1.0
C      1  0.5076370000000  0.4932490000000  0.4671910000000 1.0
C      1  0.4945380000000  0.5186930000000  0.4599280000000 1.0
C      1  0.4943230000000  0.5403660000000  0.4820160000000 1.0
C      1  0.5072450000000  0.5327470000000  0.5074470000000 1.0
C      1  0.4951600000000  0.5219670000000  0.5321900000000 1.0
C      1  0.5057350000000  0.4955170000000  0.5375040000000 1.0
C      1  0.4950050000000  0.4697260000000  0.5296560000000 1.0
C      1  0.5060630000000  0.4624750000000  0.5038290000000 1.0
C      1  0.5230220000000  0.4663030000000  0.5681480000000 1.0
C      1  0.5233680000000  0.4314500000000  0.5326270000000 1.0
C      1  0.5234440000000  0.4277890000000  0.4793870000000 1.0
C      1  0.5262560000000  0.4589090000000  0.4418430000000 1.0
C      1  0.5281710000000  0.5093580000000  0.4285080000000 1.0
C      1  0.5205570000000  0.5550590000000  0.4461770000000 1.0
C      1  0.5275510000000  0.5719280000000  0.4922780000000 1.0
C      1  0.5252770000000  0.5576170000000  0.5424430000000 1.0
C      1  0.5225340000000  0.5194620000000  0.5728170000000 1.0
C      1  0.5194700000000  0.4380810000000  0.5053070000000 1.0
C      1  0.5106950000000  0.4466330000000  0.4622040000000 1.0
C      1  0.5251580000000  0.4869010000000  0.4456400000000 1.0
C      1  0.5109010000000  0.5300240000000  0.4376370000000 1.0
C      1  0.5105740000000  0.5630270000000  0.4712730000000 1.0
C      1  0.5244890000000  0.5543430000000  0.5143750000000 1.0
C      1  0.5097990000000  0.5368760000000  0.5541770000000 1.0
C      1  0.5189180000000  0.4937050000000  0.5619970000000 1.0
C      1  0.5094570000000  0.4508730000000  0.5482950000000 1.0
END
