TITL C-3577082-504-426 1.43238105006095e-06 125000 -915.620817670421 0 0 146 (C1) n - 1
REM
REM in /home/bkarasulu/work/CARBON/AIRSS/Generating-Clusters/EDIP-Nigel-Params/with-SteepDescent/Higher-Symm/SD-CG/HFTN-CG
REM
REM
REM
REM
REM
REM ./C.cell (12c818d87b63d06a65506943cc24bca4)
REM
REM compiler GCC version 9.2.1 20190827 (Red Hat 9.2.1-1)
REM options -cpp -mtune=generic -march=x86-64 -g -O0 -fpre-include=/usr/include/finclude/math-vector-fortran.h
REM seed -1552741213 -1385364706 68859890 -47704486 -1616600315 291092672 -1338439108 -1873407 1874840419 -1735507722 -1567077067 -758151867 1472755915 1905687277 475554437 -2055210649 1559834820 -1295678729 1997122648 25010363 -1431191362 -708287630 -1389462968 321961470 1243951933 -110469797 797275036 -1091808451 -944395142 1721143760 1712749713 -717458621 -706187971
REM
CELL 1.54180   50.00000   50.00000   50.00000   90.00000   90.00000   90.00000
LATT -1
SFAC C  
C      1  0.5766370000000  0.4875150000000  0.4044890000000 1.0
C      1  0.5774120000000  0.5130580000000  0.5966470000000 1.0
C      1  0.5771320000000  0.4864910000000  0.5952360000000 1.0
C      1  0.5796100000000  0.5137640000000  0.4070880000000 1.0
C      1  0.5610310000000  0.4676990000000  0.5125590000000 1.0
C      1  0.5629600000000  0.5348120000000  0.4890470000000 1.0
C      1  0.5509670000000  0.4754080000000  0.4848730000000 1.0
C      1  0.5533720000000  0.5280960000000  0.5176230000000 1.0
C      1  0.4446940000000  0.4495110000000  0.5566090000000 1.0
C      1  0.4451920000000  0.5499610000000  0.4463210000000 1.0
C      1  0.4432020000000  0.4472520000000  0.4451110000000 1.0
C      1  0.4453510000000  0.5517000000000  0.5568180000000 1.0
C      1  0.5148550000000  0.5475270000000  0.4884200000000 1.0
C      1  0.5103330000000  0.4573740000000  0.5100570000000 1.0
C      1  0.5168010000000  0.5606620000000  0.5132240000000 1.0
C      1  0.5139420000000  0.4403060000000  0.4872570000000 1.0
C      1  0.4422500000000  0.5257670000000  0.4834960000000 1.0
C      1  0.4498260000000  0.4727900000000  0.5109320000000 1.0
C      1  0.4489660000000  0.5273430000000  0.5140830000000 1.0
C      1  0.4411280000000  0.4707040000000  0.4826670000000 1.0
C      1  0.5395380000000  0.4101570000000  0.5155400000000 1.0
C      1  0.5409180000000  0.5922230000000  0.4853180000000 1.0
C      1  0.5414020000000  0.4058820000000  0.4861170000000 1.0
C      1  0.5426930000000  0.5964300000000  0.5153010000000 1.0
C      1  0.4882940000000  0.5948490000000  0.4864780000000 1.0
C      1  0.4869920000000  0.4051270000000  0.5147410000000 1.0
C      1  0.4884110000000  0.5983810000000  0.5172020000000 1.0
C      1  0.4870450000000  0.4015320000000  0.4838420000000 1.0
C      1  0.5439160000000  0.4526200000000  0.5783550000000 1.0
C      1  0.5451850000000  0.5465190000000  0.4228550000000 1.0
C      1  0.5416600000000  0.4561350000000  0.4216750000000 1.0
C      1  0.5424170000000  0.5430780000000  0.5784830000000 1.0
C      1  0.4185600000000  0.4457400000000  0.5418910000000 1.0
C      1  0.4188900000000  0.5536270000000  0.4586560000000 1.0
C      1  0.4165480000000  0.4438580000000  0.4581600000000 1.0
C      1  0.4198120000000  0.5549600000000  0.5419150000000 1.0
C      1  0.5356250000000  0.4616670000000  0.5281750000000 1.0
C      1  0.5381530000000  0.5408120000000  0.4720730000000 1.0
C      1  0.5390230000000  0.4477680000000  0.4729180000000 1.0
C      1  0.5418140000000  0.5546400000000  0.5282450000000 1.0
C      1  0.4639060000000  0.4269080000000  0.5566450000000 1.0
C      1  0.4645850000000  0.5728110000000  0.4447980000000 1.0
C      1  0.4614460000000  0.4230010000000  0.4425800000000 1.0
C      1  0.4643950000000  0.5748440000000  0.5575450000000 1.0
C      1  0.4104210000000  0.5269700000000  0.5468860000000 1.0
C      1  0.4052520000000  0.4710860000000  0.4531890000000 1.0
C      1  0.4077800000000  0.5264880000000  0.4525610000000 1.0
C      1  0.4099680000000  0.4740560000000  0.5459190000000 1.0
C      1  0.4981350000000  0.5322840000000  0.4280750000000 1.0
C      1  0.4978100000000  0.4679650000000  0.5719260000000 1.0
C      1  0.4947320000000  0.5367760000000  0.5763880000000 1.0
C      1  0.4947170000000  0.4621270000000  0.4245140000000 1.0
C      1  0.4635490000000  0.5581210000000  0.5169210000000 1.0
C      1  0.4606630000000  0.4370810000000  0.4843110000000 1.0
C      1  0.4629610000000  0.5585260000000  0.4860600000000 1.0
C      1  0.4596680000000  0.4431240000000  0.5153410000000 1.0
C      1  0.4185820000000  0.5617880000000  0.4864470000000 1.0
C      1  0.4168410000000  0.4374360000000  0.5141270000000 1.0
C      1  0.4193140000000  0.5622270000000  0.5140970000000 1.0
C      1  0.4164620000000  0.4357250000000  0.4862420000000 1.0
C      1  0.5380200000000  0.4359870000000  0.4432690000000 1.0
C      1  0.5395490000000  0.5642860000000  0.5578460000000 1.0
C      1  0.5382740000000  0.4394360000000  0.5516000000000 1.0
C      1  0.5402830000000  0.5618650000000  0.4485820000000 1.0
C      1  0.4919010000000  0.5594960000000  0.4458150000000 1.0
C      1  0.4909860000000  0.4408130000000  0.5542070000000 1.0
C      1  0.4920030000000  0.5630440000000  0.5579650000000 1.0
C      1  0.4897750000000  0.4346860000000  0.4416110000000 1.0
C      1  0.5302060000000  0.5139750000000  0.4638030000000 1.0
C      1  0.5298580000000  0.4883660000000  0.5371420000000 1.0
C      1  0.5286550000000  0.5102280000000  0.5164020000000 1.0
C      1  0.5279570000000  0.4963590000000  0.4886210000000 1.0
C      1  0.5727580000000  0.5153580000000  0.5365670000000 1.0
C      1  0.5708580000000  0.4875040000000  0.4654480000000 1.0
C      1  0.5809850000000  0.5162810000000  0.4722110000000 1.0
C      1  0.5803390000000  0.4855220000000  0.5294000000000 1.0
C      1  0.5153380000000  0.5823830000000  0.5585670000000 1.0
C      1  0.5143290000000  0.4167650000000  0.4425060000000 1.0
C      1  0.5150170000000  0.5782610000000  0.4472060000000 1.0
C      1  0.5138770000000  0.4222090000000  0.5534910000000 1.0
C      1  0.4465880000000  0.4745070000000  0.5742230000000 1.0
C      1  0.4464550000000  0.5248370000000  0.4281550000000 1.0
C      1  0.4440910000000  0.4714260000000  0.4259910000000 1.0
C      1  0.4448360000000  0.5269550000000  0.5748740000000 1.0
C      1  0.5637210000000  0.5858160000000  0.4672300000000 1.0
C      1  0.5626090000000  0.4163370000000  0.5332580000000 1.0
C      1  0.5668690000000  0.5842980000000  0.5290390000000 1.0
C      1  0.5652210000000  0.4188130000000  0.4736200000000 1.0
C      1  0.4630460000000  0.4090920000000  0.5325330000000 1.0
C      1  0.4638900000000  0.5914500000000  0.4689320000000 1.0
C      1  0.4624550000000  0.4040890000000  0.4662670000000 1.0
C      1  0.4641540000000  0.5925140000000  0.5335780000000 1.0
C      1  0.5184140000000  0.4618100000000  0.5922220000000 1.0
C      1  0.5212620000000  0.5337030000000  0.4098400000000 1.0
C      1  0.5173820000000  0.4610520000000  0.4050950000000 1.0
C      1  0.5182810000000  0.5371330000000  0.5948660000000 1.0
C      1  0.4733610000000  0.5129500000000  0.5200730000000 1.0
C      1  0.4603940000000  0.4829080000000  0.4649270000000 1.0
C      1  0.4597490000000  0.5119630000000  0.4634200000000 1.0
C      1  0.4751900000000  0.4878960000000  0.5108860000000 1.0
C      1  0.4738340000000  0.4826280000000  0.5854610000000 1.0
C      1  0.4742460000000  0.5181820000000  0.4147410000000 1.0
C      1  0.4716950000000  0.4791180000000  0.4136500000000 1.0
C      1  0.4711400000000  0.5212370000000  0.5895350000000 1.0
C      1  0.4863500000000  0.5194750000000  0.4690800000000 1.0
C      1  0.5001300000000  0.4819010000000  0.4949340000000 1.0
C      1  0.4983540000000  0.5235800000000  0.5287960000000 1.0
C      1  0.4878210000000  0.4731430000000  0.4687590000000 1.0
C      1  0.5857300000000  0.5381350000000  0.4509040000000 1.0
C      1  0.5838560000000  0.4640570000000  0.5507280000000 1.0
C      1  0.5844690000000  0.5374460000000  0.5544720000000 1.0
C      1  0.5824830000000  0.4652400000000  0.4479070000000 1.0
C      1  0.4991600000000  0.5158520000000  0.5560770000000 1.0
C      1  0.5026320000000  0.4814250000000  0.4454200000000 1.0
C      1  0.5055070000000  0.5110210000000  0.4492800000000 1.0
C      1  0.5119390000000  0.4907110000000  0.5589110000000 1.0
C      1  0.5135530000000  0.4061600000000  0.5288580000000 1.0
C      1  0.5144800000000  0.5947910000000  0.4717410000000 1.0
C      1  0.5145410000000  0.4005200000000  0.4688610000000 1.0
C      1  0.5154570000000  0.5999660000000  0.5326900000000 1.0
C      1  0.4152630000000  0.5134150000000  0.4769380000000 1.0
C      1  0.4273920000000  0.4861910000000  0.5265340000000 1.0
C      1  0.4257900000000  0.5139670000000  0.5265050000000 1.0
C      1  0.4143540000000  0.4839400000000  0.4772350000000 1.0
C      1  0.4821690000000  0.4863510000000  0.3852490000000 1.0
C      1  0.4834980000000  0.5122750000000  0.6166640000000 1.0
C      1  0.4831190000000  0.4834570000000  0.6150300000000 1.0
C      1  0.4837270000000  0.5154140000000  0.3856410000000 1.0
C      1  0.5126060000000  0.5167860000000  0.6152140000000 1.0
C      1  0.5113600000000  0.4809340000000  0.3845640000000 1.0
C      1  0.5131930000000  0.5192060000000  0.3855580000000 1.0
C      1  0.5122440000000  0.4783780000000  0.6157170000000 1.0
C      1  0.4928970000000  0.5528640000000  0.5288580000000 1.0
C      1  0.4884910000000  0.4442250000000  0.4708330000000 1.0
C      1  0.4892530000000  0.5474040000000  0.4739120000000 1.0
C      1  0.4876470000000  0.4481510000000  0.5259510000000 1.0
C      1  0.5709220000000  0.5355240000000  0.5815770000000 1.0
C      1  0.5697680000000  0.4658340000000  0.4204220000000 1.0
C      1  0.5712500000000  0.5332750000000  0.4249920000000 1.0
C      1  0.5678430000000  0.4693860000000  0.5754520000000 1.0
C      1  0.5796900000000  0.4379300000000  0.5395410000000 1.0
C      1  0.5812530000000  0.5644310000000  0.4616860000000 1.0
C      1  0.5791340000000  0.4391420000000  0.4595670000000 1.0
C      1  0.5813200000000  0.5639840000000  0.5431850000000 1.0
C      1  0.4290910000000  0.5000810000000  0.5681070000000 1.0
C      1  0.4288080000000  0.4974080000000  0.4379060000000 1.0
END
