TITL C-3578202-4305-501 -3.60532795148185e-07 125000 -333.737531608766 0 0 55 (C1) n - 1
REM
REM in /home/bkarasulu/work/CARBON/AIRSS/Generating-Clusters/EDIP-Nigel-Params/with-SteepDescent/Higher-Symm/SD-CG/HFTN-CG
REM
REM
REM
REM
REM
REM ./C.cell (12c818d87b63d06a65506943cc24bca4)
REM
REM compiler GCC version 9.2.1 20190827 (Red Hat 9.2.1-1)
REM options -cpp -mtune=generic -march=x86-64 -g -O0 -fpre-include=/usr/include/finclude/math-vector-fortran.h
REM seed -1840489389 66930109 1446636021 -954529373 -1559734086 -414044830 984923277 -1717376901 -665527263 -788690735 -1012326992 -2049583414 138415898 1984710583 426602399 1702712740 -1671072558 -541686911 1722436628 1402123848 -159229223 -1647515840 2012889891 -485393482 -417525217 672625009 584418602 -1319653156 1726209251 -1681853930 119312478 1236619581 -58049571
REM
CELL 1.54180   50.00000   50.00000   50.00000   90.00000   90.00000   90.00000
LATT -1
SFAC C  
C      1  0.4537490000000  0.5099220000000  0.5178910000000 1.0
C      1  0.5317040000000  0.4785820000000  0.5112830000000 1.0
C      1  0.4780850000000  0.4819130000000  0.4809750000000 1.0
C      1  0.5509220000000  0.5005320000000  0.4674920000000 1.0
C      1  0.5122880000000  0.4560770000000  0.5255710000000 1.0
C      1  0.4756660000000  0.5311390000000  0.5158380000000 1.0
C      1  0.4917420000000  0.4538980000000  0.4746020000000 1.0
C      1  0.5022690000000  0.5431900000000  0.4765810000000 1.0
C      1  0.4658200000000  0.4927700000000  0.4387180000000 1.0
C      1  0.5242840000000  0.5092190000000  0.4321740000000 1.0
C      1  0.4689250000000  0.5065510000000  0.5628950000000 1.0
C      1  0.5267050000000  0.4972950000000  0.5578410000000 1.0
C      1  0.4891380000000  0.4743100000000  0.4351020000000 1.0
C      1  0.5030080000000  0.5300780000000  0.4346970000000 1.0
C      1  0.5099490000000  0.4749190000000  0.5656710000000 1.0
C      1  0.4875950000000  0.5303600000000  0.5605490000000 1.0
C      1  0.4422080000000  0.4655890000000  0.5057660000000 1.0
C      1  0.5659310000000  0.5287530000000  0.5059920000000 1.0
C      1  0.4351500000000  0.5275190000000  0.4749140000000 1.0
C      1  0.5632570000000  0.4584610000000  0.4909030000000 1.0
C      1  0.4661870000000  0.4391520000000  0.5174350000000 1.0
C      1  0.5374430000000  0.5536170000000  0.5132070000000 1.0
C      1  0.5337310000000  0.4338770000000  0.4913340000000 1.0
C      1  0.4669360000000  0.5660600000000  0.5017260000000 1.0
C      1  0.5591960000000  0.5209210000000  0.5333320000000 1.0
C      1  0.4669280000000  0.4827090000000  0.5094580000000 1.0
C      1  0.5464790000000  0.4709830000000  0.4702020000000 1.0
C      1  0.4575620000000  0.5372440000000  0.4611640000000 1.0
C      1  0.5373300000000  0.5403740000000  0.5395440000000 1.0
C      1  0.4819090000000  0.4634880000000  0.5290790000000 1.0
C      1  0.4746940000000  0.5529410000000  0.4776750000000 1.0
C      1  0.5222610000000  0.4547360000000  0.4750730000000 1.0
C      1  0.5494950000000  0.5155420000000  0.4433820000000 1.0
C      1  0.4535130000000  0.4835490000000  0.4634960000000 1.0
C      1  0.5486940000000  0.4920320000000  0.5372030000000 1.0
C      1  0.4460880000000  0.5086720000000  0.5459350000000 1.0
C      1  0.5130230000000  0.5514550000000  0.4506950000000 1.0
C      1  0.4839170000000  0.4484480000000  0.4468630000000 1.0
C      1  0.4745490000000  0.5483860000000  0.5412920000000 1.0
C      1  0.5205250000000  0.4517050000000  0.5532770000000 1.0
C      1  0.4912380000000  0.5715080000000  0.5162220000000 1.0
C      1  0.5122430000000  0.4299420000000  0.5103260000000 1.0
C      1  0.4855720000000  0.4318410000000  0.4963430000000 1.0
C      1  0.5129580000000  0.5605920000000  0.4997190000000 1.0
C      1  0.5701540000000  0.4822350000000  0.5062570000000 1.0
C      1  0.4308360000000  0.5115050000000  0.4974630000000 1.0
C      1  0.4259350000000  0.4838060000000  0.4899630000000 1.0
C      1  0.5703660000000  0.5060930000000  0.4888500000000 1.0
C      1  0.4813160000000  0.4800370000000  0.5631820000000 1.0
C      1  0.4749590000000  0.5206650000000  0.4433250000000 1.0
C      1  0.5119110000000  0.4890190000000  0.4494160000000 1.0
C      1  0.5135240000000  0.5216610000000  0.5464980000000 1.0
C      1  0.5006230000000  0.5151040000000  0.5208030000000 1.0
C      1  0.4999170000000  0.5046950000000  0.4754370000000 1.0
C      1  0.5150710000000  0.5014970000000  0.5007450000000 1.0
END
