TITL C-3578198-8939-624 2.25815770044992e-07 125000 -394.377528419401 0 0 65 (C1) n - 1
REM
REM in /home/bkarasulu/work/CARBON/AIRSS/Generating-Clusters/EDIP-Nigel-Params/with-SteepDescent/Higher-Symm/SD-CG/HFTN-CG
REM
REM
REM
REM
REM
REM ./C.cell (12c818d87b63d06a65506943cc24bca4)
REM
REM compiler GCC version 9.2.1 20190827 (Red Hat 9.2.1-1)
REM options -cpp -mtune=generic -march=x86-64 -g -O0 -fpre-include=/usr/include/finclude/math-vector-fortran.h
REM seed -28918263 1218899040 587443705 1358552913 411112330 118350205 314614339 1860782249 -881025208 -823194996 1536605772 -1097949660 946388693 912110623 -393641494 -147956842 1186388707 -1804830868 694410642 -1997657313 1130555852 -178227554 -2056978774 -1067226606 1634593480 455523895 -395632301 -2022110495 969611330 29551947 1900508809 288295463 -1713397891
REM
CELL 1.54180   50.00000   50.00000   50.00000   90.00000   90.00000   90.00000
LATT -1
SFAC C  
C      1  0.5051960000000  0.5650640000000  0.4645420000000 1.0
C      1  0.4360530000000  0.5274920000000  0.4633050000000 1.0
C      1  0.4526830000000  0.4484180000000  0.4628550000000 1.0
C      1  0.5334810000000  0.4415930000000  0.4628300000000 1.0
C      1  0.5658190000000  0.5139170000000  0.4643110000000 1.0
C      1  0.5051700000000  0.4349890000000  0.4641110000000 1.0
C      1  0.4360250000000  0.4723310000000  0.4633970000000 1.0
C      1  0.4526300000000  0.5514590000000  0.4628140000000 1.0
C      1  0.5334500000000  0.5581960000000  0.4635660000000 1.0
C      1  0.5669320000000  0.4848560000000  0.4633320000000 1.0
C      1  0.5376170000000  0.5737740000000  0.5322130000000 1.0
C      1  0.4385240000000  0.5580610000000  0.5310370000000 1.0
C      1  0.4350330000000  0.4697430000000  0.5322910000000 1.0
C      1  0.5114840000000  0.4336350000000  0.5354390000000 1.0
C      1  0.5782750000000  0.4843300000000  0.5348090000000 1.0
C      1  0.5383990000000  0.4271430000000  0.5321710000000 1.0
C      1  0.4394710000000  0.4422690000000  0.5313810000000 1.0
C      1  0.4344950000000  0.5305190000000  0.5321100000000 1.0
C      1  0.5106910000000  0.5674930000000  0.5356540000000 1.0
C      1  0.5762160000000  0.5128630000000  0.5357740000000 1.0
C      1  0.5352240000000  0.4538970000000  0.4904160000000 1.0
C      1  0.5532820000000  0.5189370000000  0.4914280000000 1.0
C      1  0.4966260000000  0.5542320000000  0.4912980000000 1.0
C      1  0.4424020000000  0.5162140000000  0.4906670000000 1.0
C      1  0.4649630000000  0.4524830000000  0.4905350000000 1.0
C      1  0.5347390000000  0.5456890000000  0.4911420000000 1.0
C      1  0.5544300000000  0.4801060000000  0.4906190000000 1.0
C      1  0.4969470000000  0.4460100000000  0.4909210000000 1.0
C      1  0.4425350000000  0.4837450000000  0.4906810000000 1.0
C      1  0.4646550000000  0.5475900000000  0.4906100000000 1.0
C      1  0.4962950000000  0.5508030000000  0.4408500000000 1.0
C      1  0.4469540000000  0.5140100000000  0.4399780000000 1.0
C      1  0.4684910000000  0.4548200000000  0.4390740000000 1.0
C      1  0.5327320000000  0.4590330000000  0.4394370000000 1.0
C      1  0.5499850000000  0.5185570000000  0.4403010000000 1.0
C      1  0.4961790000000  0.4493730000000  0.4405220000000 1.0
C      1  0.4466710000000  0.4857500000000  0.4399000000000 1.0
C      1  0.4686900000000  0.5450240000000  0.4392390000000 1.0
C      1  0.5328250000000  0.5409770000000  0.4399810000000 1.0
C      1  0.5509350000000  0.4806800000000  0.4392640000000 1.0
C      1  0.5061780000000  0.5397350000000  0.5435600000000 1.0
C      1  0.4587890000000  0.5148810000000  0.5369170000000 1.0
C      1  0.4815000000000  0.4719550000000  0.5455390000000 1.0
C      1  0.5271550000000  0.4730630000000  0.5576150000000 1.0
C      1  0.5499430000000  0.5156100000000  0.5625140000000 1.0
C      1  0.5069910000000  0.4615800000000  0.5427720000000 1.0
C      1  0.4591080000000  0.4858020000000  0.5368540000000 1.0
C      1  0.4807530000000  0.5291640000000  0.5459250000000 1.0
C      1  0.5260900000000  0.5287950000000  0.5590910000000 1.0
C      1  0.5506860000000  0.4869940000000  0.5604550000000 1.0
C      1  0.5503170000000  0.5641310000000  0.5093390000000 1.0
C      1  0.4529970000000  0.5679630000000  0.5094920000000 1.0
C      1  0.4193840000000  0.4777630000000  0.5091600000000 1.0
C      1  0.4971660000000  0.4240250000000  0.5116520000000 1.0
C      1  0.5760910000000  0.4711580000000  0.5094410000000 1.0
C      1  0.5505820000000  0.4350060000000  0.5083320000000 1.0
C      1  0.4536480000000  0.4322050000000  0.5097290000000 1.0
C      1  0.4190880000000  0.5220580000000  0.5089830000000 1.0
C      1  0.4964280000000  0.5765440000000  0.5116700000000 1.0
C      1  0.5746570000000  0.5271480000000  0.5108540000000 1.0
C      1  0.5772240000000  0.4431990000000  0.5106380000000 1.0
C      1  0.4719820000000  0.4124110000000  0.5163000000000 1.0
C      1  0.4711080000000  0.5879590000000  0.5160450000000 1.0
C      1  0.4025460000000  0.4998170000000  0.5134210000000 1.0
C      1  0.5763850000000  0.5549620000000  0.5131430000000 1.0
END
