TITL C-3578198-8939-354 -2.28741447252069e-06 125000 -742.880944592544 0 0 119 (C1) n - 1
REM
REM in /home/bkarasulu/work/CARBON/AIRSS/Generating-Clusters/EDIP-Nigel-Params/with-SteepDescent/Higher-Symm/SD-CG/HFTN-CG
REM
REM
REM
REM
REM
REM ./C.cell (12c818d87b63d06a65506943cc24bca4)
REM
REM compiler GCC version 9.2.1 20190827 (Red Hat 9.2.1-1)
REM options -cpp -mtune=generic -march=x86-64 -g -O0 -fpre-include=/usr/include/finclude/math-vector-fortran.h
REM seed 399968023 816466860 1826974098 -1595630311 1231047709 -1599538389 -867160665 -1485766652 -357866131 612413901 -1354881820 -1432813604 1409950324 -1300874299 -915966334 1163129936 540659244 811539206 -100391306 -54470173 -857072378 -229939838 276026489 1164312990 389181204 1778861628 155380965 1888705242 943362682 731971761 -329534622 -1443264783 454096419
REM
CELL 1.54180   50.00000   50.00000   50.00000   90.00000   90.00000   90.00000
LATT -1
SFAC C  
C      1  0.5392560000000  0.5066880000000  0.4814060000000 1.0
C      1  0.4631040000000  0.4926820000000  0.5218160000000 1.0
C      1  0.4285620000000  0.4689560000000  0.5357540000000 1.0
C      1  0.5733090000000  0.5286370000000  0.4636280000000 1.0
C      1  0.4336890000000  0.4917670000000  0.4292930000000 1.0
C      1  0.5642720000000  0.5084050000000  0.5686700000000 1.0
C      1  0.4702780000000  0.5157570000000  0.4659390000000 1.0
C      1  0.5229810000000  0.4852550000000  0.5347850000000 1.0
C      1  0.4709350000000  0.4287410000000  0.4391190000000 1.0
C      1  0.5303000000000  0.5679240000000  0.5569930000000 1.0
C      1  0.5361210000000  0.5866590000000  0.4822080000000 1.0
C      1  0.4676220000000  0.4128470000000  0.5144620000000 1.0
C      1  0.4759170000000  0.4260540000000  0.5600530000000 1.0
C      1  0.5241180000000  0.5720250000000  0.4380680000000 1.0
C      1  0.4256140000000  0.4822450000000  0.4870040000000 1.0
C      1  0.5785160000000  0.5205550000000  0.5134450000000 1.0
C      1  0.4686320000000  0.5110120000000  0.5735650000000 1.0
C      1  0.5326930000000  0.4897180000000  0.4329310000000 1.0
C      1  0.4603530000000  0.5598110000000  0.5622490000000 1.0
C      1  0.5361740000000  0.4421020000000  0.4467320000000 1.0
C      1  0.4978610000000  0.5477920000000  0.5883480000000 1.0
C      1  0.5034550000000  0.4537990000000  0.4160730000000 1.0
C      1  0.4530500000000  0.5620140000000  0.4493530000000 1.0
C      1  0.5469130000000  0.4379490000000  0.5515820000000 1.0
C      1  0.4795120000000  0.4490520000000  0.5780040000000 1.0
C      1  0.5173030000000  0.5478670000000  0.4233270000000 1.0
C      1  0.5056870000000  0.5725480000000  0.5744180000000 1.0
C      1  0.4965160000000  0.4260140000000  0.4236570000000 1.0
C      1  0.5003180000000  0.5847510000000  0.4501650000000 1.0
C      1  0.5012170000000  0.4155190000000  0.5495350000000 1.0
C      1  0.4892770000000  0.5568490000000  0.5293890000000 1.0
C      1  0.5141880000000  0.4465580000000  0.4697270000000 1.0
C      1  0.5522580000000  0.5084640000000  0.4196150000000 1.0
C      1  0.4464540000000  0.4910650000000  0.5780870000000 1.0
C      1  0.5761320000000  0.4753020000000  0.4920820000000 1.0
C      1  0.4250930000000  0.5245970000000  0.5141800000000 1.0
C      1  0.5177560000000  0.4969290000000  0.4590650000000 1.0
C      1  0.4799340000000  0.5081700000000  0.5438110000000 1.0
C      1  0.5667360000000  0.5022730000000  0.4472900000000 1.0
C      1  0.4275190000000  0.4922640000000  0.5549750000000 1.0
C      1  0.4095790000000  0.5405590000000  0.4824140000000 1.0
C      1  0.5889040000000  0.4544460000000  0.5223890000000 1.0
C      1  0.4440400000000  0.5773030000000  0.4746380000000 1.0
C      1  0.5516740000000  0.4213700000000  0.5273300000000 1.0
C      1  0.4585040000000  0.4285060000000  0.5374360000000 1.0
C      1  0.5434160000000  0.5697840000000  0.4595740000000 1.0
C      1  0.5091820000000  0.4532580000000  0.5801580000000 1.0
C      1  0.4886000000000  0.5445380000000  0.4160800000000 1.0
C      1  0.5679960000000  0.5662010000000  0.5142430000000 1.0
C      1  0.4399120000000  0.4382020000000  0.4824390000000 1.0
C      1  0.5247210000000  0.4255310000000  0.5140770000000 1.0
C      1  0.4723980000000  0.5728120000000  0.4865180000000 1.0
C      1  0.5850530000000  0.4970740000000  0.5506000000000 1.0
C      1  0.4135140000000  0.5016970000000  0.4488390000000 1.0
C      1  0.4236280000000  0.5638490000000  0.4934060000000 1.0
C      1  0.5731700000000  0.4331700000000  0.5097610000000 1.0
C      1  0.5272240000000  0.4505060000000  0.4967540000000 1.0
C      1  0.4691100000000  0.5517770000000  0.5071550000000 1.0
C      1  0.4364450000000  0.5543510000000  0.5463340000000 1.0
C      1  0.5631890000000  0.4472030000000  0.4602710000000 1.0
C      1  0.4466120000000  0.4651340000000  0.4700100000000 1.0
C      1  0.5633210000000  0.5416300000000  0.5289320000000 1.0
C      1  0.5198370000000  0.4139780000000  0.4401410000000 1.0
C      1  0.4813960000000  0.5818350000000  0.5585290000000 1.0
C      1  0.4993880000000  0.4873170000000  0.5535150000000 1.0
C      1  0.4959080000000  0.5191610000000  0.4485310000000 1.0
C      1  0.5269580000000  0.5846000000000  0.5324990000000 1.0
C      1  0.4769210000000  0.4154530000000  0.4643830000000 1.0
C      1  0.4981410000000  0.5873900000000  0.5272680000000 1.0
C      1  0.5056750000000  0.4154380000000  0.4685500000000 1.0
C      1  0.5120800000000  0.4720870000000  0.5107730000000 1.0
C      1  0.4768930000000  0.5287970000000  0.4913220000000 1.0
C      1  0.4735690000000  0.4802340000000  0.4768700000000 1.0
C      1  0.5275130000000  0.5164650000000  0.5275490000000 1.0
C      1  0.5604160000000  0.4984900000000  0.5015130000000 1.0
C      1  0.4421460000000  0.5037290000000  0.5024900000000 1.0
C      1  0.5150670000000  0.5291320000000  0.5726070000000 1.0
C      1  0.4854870000000  0.4719100000000  0.4321820000000 1.0
C      1  0.4838120000000  0.5590570000000  0.4515160000000 1.0
C      1  0.5214980000000  0.4319810000000  0.5638850000000 1.0
C      1  0.4475410000000  0.5321810000000  0.4498460000000 1.0
C      1  0.5484720000000  0.4682890000000  0.5487230000000 1.0
C      1  0.4632660000000  0.4235280000000  0.4878890000000 1.0
C      1  0.5431480000000  0.5792940000000  0.5094140000000 1.0
C      1  0.4466510000000  0.5179960000000  0.4233200000000 1.0
C      1  0.5508850000000  0.4822660000000  0.5748700000000 1.0
C      1  0.5234940000000  0.5228770000000  0.4984350000000 1.0
C      1  0.4820740000000  0.4760150000000  0.5053550000000 1.0
C      1  0.4209130000000  0.4386960000000  0.5043120000000 1.0
C      1  0.5847020000000  0.5619100000000  0.4907400000000 1.0
C      1  0.5245480000000  0.4787850000000  0.5890140000000 1.0
C      1  0.4736180000000  0.5192960000000  0.4101100000000 1.0
C      1  0.5688010000000  0.5566670000000  0.4563990000000 1.0
C      1  0.4326490000000  0.4403190000000  0.5408000000000 1.0
C      1  0.5150000000000  0.4032920000000  0.4955710000000 1.0
C      1  0.4884800000000  0.5949920000000  0.4985970000000 1.0
C      1  0.5087830000000  0.5967240000000  0.4768560000000 1.0
C      1  0.4947770000000  0.4017500000000  0.5209900000000 1.0
C      1  0.4977040000000  0.4722260000000  0.4606010000000 1.0
C      1  0.5038600000000  0.5307490000000  0.5425120000000 1.0
C      1  0.5893530000000  0.5333760000000  0.4881990000000 1.0
C      1  0.4147130000000  0.4662330000000  0.5098470000000 1.0
C      1  0.5775270000000  0.4755260000000  0.4595580000000 1.0
C      1  0.4226570000000  0.5195700000000  0.5440980000000 1.0
C      1  0.5739780000000  0.4747180000000  0.5362680000000 1.0
C      1  0.4204080000000  0.5277300000000  0.4591560000000 1.0
C      1  0.5580740000000  0.4500880000000  0.4903330000000 1.0
C      1  0.4396150000000  0.5516150000000  0.5162180000000 1.0
C      1  0.5388880000000  0.5323260000000  0.4145400000000 1.0
C      1  0.4575550000000  0.4658540000000  0.5838210000000 1.0
C      1  0.4915660000000  0.5008170000000  0.4234440000000 1.0
C      1  0.5051210000000  0.5002700000000  0.5805560000000 1.0
C      1  0.4026130000000  0.4871960000000  0.4696240000000 1.0
C      1  0.5997310000000  0.5119550000000  0.5319040000000 1.0
C      1  0.4545140000000  0.4618920000000  0.4379400000000 1.0
C      1  0.5485310000000  0.5411690000000  0.5559850000000 1.0
C      1  0.4690670000000  0.5403440000000  0.5823740000000 1.0
C      1  0.5310940000000  0.4609040000000  0.4243430000000 1.0
C      1  0.4966630000000  0.5122910000000  0.5028480000000 1.0
END
