TITL C-3578204-4308-248 -1.04189003995837e-06 125000 -768.201471617825 0 0 122 (C1) n - 1
REM
REM in /home/bkarasulu/work/CARBON/AIRSS/Generating-Clusters/EDIP-Nigel-Params/with-SteepDescent/Higher-Symm/SD-CG/HFTN-CG
REM
REM
REM
REM
REM
REM ./C.cell (12c818d87b63d06a65506943cc24bca4)
REM
REM compiler GCC version 9.2.1 20190827 (Red Hat 9.2.1-1)
REM options -cpp -mtune=generic -march=x86-64 -g -O0 -fpre-include=/usr/include/finclude/math-vector-fortran.h
REM seed -1254909187 1819734647 1723175191 -1378096065 796208 568308198 1663288269 -715174027 -1002113120 333877769 -464797865 -1799588038 734117539 486879241 -636506900 159034946 -1199912333 438117057 1978907744 -564343546 -1424185815 1499210190 898159333 -1069453813 -629778869 1344568513 -1664257502 -1706525110 -1294031612 -344817491 -1336996088 -658677836 1317658591
REM
CELL 1.54180   50.00000   50.00000   50.00000   90.00000   90.00000   90.00000
LATT -1
SFAC C  
C      1  0.4787930000000  0.4376390000000  0.4223780000000 1.0
C      1  0.5469890000000  0.4918900000000  0.5197660000000 1.0
C      1  0.5373370000000  0.4891960000000  0.4922190000000 1.0
C      1  0.4166940000000  0.4932870000000  0.5145940000000 1.0
C      1  0.5013180000000  0.4815210000000  0.5905340000000 1.0
C      1  0.5216950000000  0.4534960000000  0.4352450000000 1.0
C      1  0.5201030000000  0.4938760000000  0.4517750000000 1.0
C      1  0.4723120000000  0.5919840000000  0.4946550000000 1.0
C      1  0.4424130000000  0.4336320000000  0.5437150000000 1.0
C      1  0.4734150000000  0.4672990000000  0.4774120000000 1.0
C      1  0.5290520000000  0.4813570000000  0.5428270000000 1.0
C      1  0.5688730000000  0.5396740000000  0.5646420000000 1.0
C      1  0.4705630000000  0.5845240000000  0.5260070000000 1.0
C      1  0.4758010000000  0.4315050000000  0.5086860000000 1.0
C      1  0.5761340000000  0.4425930000000  0.4918470000000 1.0
C      1  0.5118760000000  0.4402470000000  0.5606130000000 1.0
C      1  0.4894660000000  0.5083030000000  0.4936890000000 1.0
C      1  0.5309510000000  0.5294960000000  0.4642900000000 1.0
C      1  0.4985740000000  0.5758660000000  0.4829460000000 1.0
C      1  0.4002560000000  0.5033400000000  0.4711990000000 1.0
C      1  0.4861790000000  0.5733690000000  0.5593770000000 1.0
C      1  0.5214040000000  0.4606810000000  0.5812030000000 1.0
C      1  0.4498380000000  0.5374430000000  0.4536700000000 1.0
C      1  0.5479700000000  0.5040150000000  0.4688370000000 1.0
C      1  0.4508750000000  0.5566700000000  0.5298430000000 1.0
C      1  0.4658350000000  0.4437500000000  0.5566520000000 1.0
C      1  0.5026590000000  0.4948510000000  0.4072110000000 1.0
C      1  0.4798810000000  0.5490630000000  0.4130370000000 1.0
C      1  0.4176500000000  0.4470220000000  0.4933570000000 1.0
C      1  0.5507710000000  0.4628590000000  0.5694270000000 1.0
C      1  0.4718090000000  0.5754540000000  0.4361520000000 1.0
C      1  0.4728060000000  0.4754690000000  0.5911630000000 1.0
C      1  0.5144470000000  0.4564020000000  0.5341330000000 1.0
C      1  0.4593540000000  0.5100100000000  0.5329510000000 1.0
C      1  0.5335000000000  0.4410580000000  0.5149600000000 1.0
C      1  0.4181430000000  0.4858210000000  0.4586950000000 1.0
C      1  0.4786540000000  0.4877970000000  0.5430500000000 1.0
C      1  0.5710080000000  0.5608520000000  0.4829940000000 1.0
C      1  0.4047450000000  0.5124070000000  0.4970860000000 1.0
C      1  0.5418460000000  0.5945130000000  0.4648600000000 1.0
C      1  0.5196390000000  0.5165080000000  0.4147680000000 1.0
C      1  0.4102430000000  0.5389470000000  0.5042760000000 1.0
C      1  0.4165570000000  0.5292250000000  0.5497570000000 1.0
C      1  0.4223710000000  0.4558680000000  0.5428990000000 1.0
C      1  0.4918140000000  0.5537930000000  0.5026870000000 1.0
C      1  0.5606290000000  0.4840780000000  0.4379220000000 1.0
C      1  0.5175310000000  0.4711050000000  0.4812490000000 1.0
C      1  0.5327190000000  0.5374180000000  0.4929880000000 1.0
C      1  0.4614360000000  0.5245440000000  0.4104760000000 1.0
C      1  0.4321080000000  0.4945680000000  0.4346140000000 1.0
C      1  0.5440640000000  0.5501810000000  0.4455540000000 1.0
C      1  0.4385740000000  0.5073910000000  0.5862390000000 1.0
C      1  0.4604800000000  0.5360050000000  0.5515430000000 1.0
C      1  0.4797670000000  0.5344460000000  0.4493490000000 1.0
C      1  0.4730540000000  0.4970360000000  0.4088880000000 1.0
C      1  0.5537920000000  0.4418000000000  0.4713550000000 1.0
C      1  0.5070860000000  0.5019010000000  0.5516110000000 1.0
C      1  0.4547400000000  0.4508570000000  0.4278310000000 1.0
C      1  0.5834140000000  0.5232640000000  0.4507790000000 1.0
C      1  0.4320890000000  0.4799120000000  0.5603830000000 1.0
C      1  0.4852150000000  0.5451260000000  0.5663980000000 1.0
C      1  0.4584030000000  0.4807680000000  0.4303040000000 1.0
C      1  0.5098350000000  0.5440420000000  0.4114800000000 1.0
C      1  0.4226280000000  0.4576080000000  0.4664990000000 1.0
C      1  0.4923790000000  0.4773430000000  0.4963390000000 1.0
C      1  0.4507350000000  0.5768950000000  0.4812510000000 1.0
C      1  0.5100050000000  0.4089840000000  0.4825140000000 1.0
C      1  0.5969670000000  0.4604860000000  0.4867850000000 1.0
C      1  0.5330770000000  0.4200270000000  0.5539820000000 1.0
C      1  0.5145680000000  0.4712830000000  0.4154590000000 1.0
C      1  0.5800490000000  0.5324340000000  0.4788120000000 1.0
C      1  0.5478000000000  0.5086390000000  0.4212830000000 1.0
C      1  0.4742220000000  0.4849940000000  0.4550320000000 1.0
C      1  0.4934080000000  0.4237530000000  0.4644630000000 1.0
C      1  0.5915510000000  0.4870660000000  0.4802400000000 1.0
C      1  0.5188300000000  0.5302300000000  0.5347730000000 1.0
C      1  0.5544820000000  0.5153710000000  0.5679520000000 1.0
C      1  0.4629610000000  0.5173090000000  0.5039940000000 1.0
C      1  0.5578570000000  0.4380420000000  0.5522010000000 1.0
C      1  0.5667620000000  0.4886410000000  0.5647620000000 1.0
C      1  0.5274750000000  0.5854350000000  0.4871950000000 1.0
C      1  0.4627290000000  0.5475250000000  0.5028510000000 1.0
C      1  0.5199110000000  0.5616700000000  0.4324370000000 1.0
C      1  0.5505420000000  0.5667280000000  0.5292230000000 1.0
C      1  0.5639810000000  0.4454820000000  0.5210760000000 1.0
C      1  0.5018250000000  0.4320140000000  0.4375780000000 1.0
C      1  0.4984020000000  0.5093780000000  0.6017670000000 1.0
C      1  0.4425420000000  0.4409480000000  0.4527100000000 1.0
C      1  0.4700240000000  0.4378540000000  0.4772550000000 1.0
C      1  0.4488650000000  0.4205240000000  0.5183440000000 1.0
C      1  0.5068340000000  0.5238950000000  0.5774190000000 1.0
C      1  0.5880580000000  0.4863660000000  0.5439270000000 1.0
C      1  0.5275930000000  0.4421270000000  0.4852780000000 1.0
C      1  0.5076180000000  0.5308210000000  0.5064430000000 1.0
C      1  0.5938100000000  0.5095390000000  0.5261570000000 1.0
C      1  0.5592100000000  0.5730110000000  0.4584210000000 1.0
C      1  0.4488060000000  0.5673600000000  0.4536170000000 1.0
C      1  0.4136130000000  0.4647840000000  0.5159950000000 1.0
C      1  0.4623730000000  0.4717290000000  0.5640460000000 1.0
C      1  0.4371980000000  0.5321960000000  0.5714070000000 1.0
C      1  0.5493230000000  0.4558090000000  0.4448890000000 1.0
C      1  0.5237800000000  0.4067560000000  0.5288550000000 1.0
C      1  0.4297210000000  0.5027160000000  0.5390360000000 1.0
C      1  0.5451240000000  0.5643920000000  0.4995740000000 1.0
C      1  0.5008350000000  0.4114630000000  0.5099290000000 1.0
C      1  0.4956070000000  0.5637080000000  0.4518930000000 1.0
C      1  0.4380230000000  0.5238110000000  0.4298550000000 1.0
C      1  0.4918520000000  0.5083890000000  0.4615920000000 1.0
C      1  0.5909780000000  0.5110630000000  0.4970520000000 1.0
C      1  0.5863590000000  0.4935610000000  0.4517580000000 1.0
C      1  0.5731750000000  0.4770570000000  0.5190560000000 1.0
C      1  0.4617460000000  0.5000430000000  0.6014670000000 1.0
C      1  0.5350890000000  0.5318640000000  0.5818750000000 1.0
C      1  0.4864340000000  0.4279590000000  0.5659070000000 1.0
C      1  0.4273300000000  0.4215800000000  0.5001320000000 1.0
C      1  0.5055510000000  0.5810600000000  0.5409070000000 1.0
C      1  0.5680670000000  0.5438900000000  0.5364660000000 1.0
C      1  0.5628060000000  0.5320660000000  0.4306410000000 1.0
C      1  0.5481600000000  0.5222840000000  0.5246540000000 1.0
C      1  0.5253330000000  0.5601300000000  0.5429810000000 1.0
C      1  0.4870710000000  0.4631470000000  0.5225900000000 1.0
C      1  0.4204000000000  0.5497510000000  0.5283590000000 1.0
END
