TITL C-3577076-40-102 -3.07171400534414e-06 125000 -1158.62138355753 0 0 185 (C1) n - 1
REM
REM in /home/bkarasulu/work/CARBON/AIRSS/Generating-Clusters/EDIP-Nigel-Params/with-SteepDescent/Higher-Symm/SD-CG/HFTN-CG
REM
REM
REM
REM
REM
REM ./C.cell (12c818d87b63d06a65506943cc24bca4)
REM
REM compiler GCC version 9.2.1 20190827 (Red Hat 9.2.1-1)
REM options -cpp -mtune=generic -march=x86-64 -g -O0 -fpre-include=/usr/include/finclude/math-vector-fortran.h
REM seed 856473614 1371868059 78369049 806433366 -139362947 -1854930234 1804030223 -1720427435 1967469864 1409704069 -2049162805 358147904 391875638 -433878697 1170542492 674041611 1574722832 1032788220 -727248909 -1179359411 -1950645264 -295994235 1107736769 -1908844890 795052985 833342942 -786483489 -961402985 -1669324301 940129938 1800593487 1127757805 -1939611075
REM
CELL 1.54180   50.00000   50.00000   50.00000   90.00000   90.00000   90.00000
LATT -1
SFAC C  
C      1  0.5718800000000  0.5396900000000  0.5819890000000 1.0
C      1  0.6021750000000  0.5450200000000  0.4498580000000 1.0
C      1  0.4849600000000  0.5443770000000  0.3965280000000 1.0
C      1  0.3905110000000  0.5451150000000  0.4846210000000 1.0
C      1  0.4436770000000  0.5559920000000  0.5950920000000 1.0
C      1  0.4243590000000  0.5423270000000  0.5801860000000 1.0
C      1  0.4054420000000  0.5440560000000  0.4566030000000 1.0
C      1  0.5112370000000  0.5330700000000  0.3994490000000 1.0
C      1  0.6109560000000  0.5435940000000  0.4797280000000 1.0
C      1  0.5540020000000  0.5539970000000  0.5978690000000 1.0
C      1  0.4255110000000  0.4661860000000  0.4945570000000 1.0
C      1  0.4721160000000  0.4685560000000  0.5594520000000 1.0
C      1  0.5511980000000  0.4671090000000  0.5479990000000 1.0
C      1  0.5569020000000  0.4709200000000  0.4668150000000 1.0
C      1  0.4859990000000  0.4698890000000  0.4327890000000 1.0
C      1  0.5782460000000  0.4730960000000  0.4857060000000 1.0
C      1  0.5233490000000  0.4682310000000  0.5589560000000 1.0
C      1  0.4501340000000  0.4658120000000  0.5405040000000 1.0
C      1  0.4447790000000  0.4676430000000  0.4739310000000 1.0
C      1  0.5145120000000  0.4696940000000  0.4354100000000 1.0
C      1  0.4269410000000  0.5735670000000  0.5399890000000 1.0
C      1  0.5148400000000  0.5652760000000  0.5749330000000 1.0
C      1  0.5879580000000  0.5836710000000  0.5219430000000 1.0
C      1  0.5368490000000  0.5723770000000  0.4188470000000 1.0
C      1  0.4356640000000  0.5805880000000  0.4382640000000 1.0
C      1  0.5756670000000  0.5753040000000  0.5460280000000 1.0
C      1  0.4843630000000  0.5639380000000  0.5718880000000 1.0
C      1  0.4215050000000  0.5695790000000  0.5115390000000 1.0
C      1  0.4589220000000  0.5775070000000  0.4196990000000 1.0
C      1  0.5603060000000  0.5732520000000  0.4370510000000 1.0
C      1  0.4747450000000  0.4785630000000  0.6198390000000 1.0
C      1  0.5992830000000  0.4810060000000  0.5600060000000 1.0
C      1  0.5801570000000  0.4853970000000  0.4228030000000 1.0
C      1  0.4494730000000  0.4828950000000  0.3935800000000 1.0
C      1  0.3788610000000  0.4854460000000  0.5180610000000 1.0
C      1  0.5199520000000  0.4781200000000  0.6164340000000 1.0
C      1  0.4010860000000  0.4840530000000  0.5584300000000 1.0
C      1  0.4233760000000  0.4863060000000  0.4292870000000 1.0
C      1  0.5462440000000  0.4799040000000  0.3904320000000 1.0
C      1  0.6183390000000  0.4844860000000  0.5176830000000 1.0
C      1  0.4861700000000  0.4211810000000  0.4360670000000 1.0
C      1  0.4213280000000  0.4184990000000  0.4904740000000 1.0
C      1  0.4705490000000  0.4205690000000  0.5587340000000 1.0
C      1  0.5561960000000  0.4191000000000  0.5599120000000 1.0
C      1  0.5645130000000  0.4234400000000  0.4635180000000 1.0
C      1  0.5150710000000  0.4214150000000  0.4366250000000 1.0
C      1  0.5827850000000  0.4237370000000  0.4860590000000 1.0
C      1  0.5275070000000  0.4204110000000  0.5642710000000 1.0
C      1  0.4422510000000  0.4190740000000  0.5529990000000 1.0
C      1  0.4368520000000  0.4207310000000  0.4655650000000 1.0
C      1  0.5159100000000  0.5421410000000  0.5440730000000 1.0
C      1  0.5533280000000  0.5529210000000  0.5010500000000 1.0
C      1  0.5058040000000  0.5602400000000  0.4542380000000 1.0
C      1  0.4605710000000  0.5534770000000  0.4723090000000 1.0
C      1  0.4702870000000  0.5584660000000  0.5237140000000 1.0
C      1  0.4847560000000  0.5449580000000  0.5472190000000 1.0
C      1  0.4538540000000  0.5428510000000  0.5002850000000 1.0
C      1  0.4802800000000  0.5440940000000  0.4504590000000 1.0
C      1  0.5293950000000  0.5534640000000  0.4705240000000 1.0
C      1  0.5347430000000  0.5582620000000  0.5259700000000 1.0
C      1  0.4016510000000  0.4555230000000  0.5481300000000 1.0
C      1  0.5107180000000  0.4514850000000  0.6053280000000 1.0
C      1  0.6087090000000  0.4553910000000  0.5200510000000 1.0
C      1  0.5533720000000  0.4536940000000  0.4008380000000 1.0
C      1  0.4274810000000  0.4570860000000  0.4274370000000 1.0
C      1  0.5973640000000  0.4522800000000  0.5484780000000 1.0
C      1  0.4821990000000  0.4520650000000  0.6102490000000 1.0
C      1  0.3852530000000  0.4570160000000  0.5236300000000 1.0
C      1  0.4455110000000  0.4555750000000  0.4037950000000 1.0
C      1  0.5731750000000  0.4561720000000  0.4225830000000 1.0
C      1  0.3860110000000  0.4949160000000  0.4923660000000 1.0
C      1  0.4616420000000  0.4942340000000  0.5992020000000 1.0
C      1  0.5737410000000  0.4914250000000  0.5685900000000 1.0
C      1  0.5883770000000  0.4963550000000  0.4493050000000 1.0
C      1  0.4661340000000  0.4912210000000  0.3732220000000 1.0
C      1  0.6161120000000  0.4949110000000  0.4910490000000 1.0
C      1  0.5330780000000  0.4943430000000  0.5968380000000 1.0
C      1  0.4242760000000  0.4942210000000  0.5706370000000 1.0
C      1  0.4117580000000  0.4961320000000  0.4527590000000 1.0
C      1  0.5184350000000  0.4860870000000  0.3886670000000 1.0
C      1  0.4672130000000  0.5485570000000  0.4198860000000 1.0
C      1  0.4348660000000  0.5142020000000  0.4929270000000 1.0
C      1  0.4714000000000  0.5527330000000  0.5961330000000 1.0
C      1  0.5816380000000  0.5476720000000  0.5561400000000 1.0
C      1  0.5804580000000  0.5523840000000  0.4318540000000 1.0
C      1  0.5359100000000  0.5465580000000  0.4036760000000 1.0
C      1  0.5791580000000  0.5315720000000  0.4987620000000 1.0
C      1  0.5262600000000  0.5532820000000  0.5992730000000 1.0
C      1  0.4190190000000  0.5475730000000  0.5520050000000 1.0
C      1  0.4152520000000  0.5592280000000  0.4333950000000 1.0
C      1  0.5151360000000  0.3751110000000  0.4566290000000 1.0
C      1  0.4546540000000  0.3748030000000  0.4756690000000 1.0
C      1  0.4527730000000  0.3778440000000  0.5272400000000 1.0
C      1  0.5197810000000  0.3779980000000  0.5356200000000 1.0
C      1  0.5592750000000  0.3849600000000  0.5030480000000 1.0
C      1  0.4868140000000  0.3742460000000  0.4552970000000 1.0
C      1  0.5462370000000  0.3783350000000  0.4782680000000 1.0
C      1  0.5482820000000  0.3803720000000  0.5296960000000 1.0
C      1  0.4811100000000  0.3772780000000  0.5341170000000 1.0
C      1  0.4413360000000  0.3801200000000  0.5006390000000 1.0
C      1  0.4209430000000  0.4916740000000  0.5083050000000 1.0
C      1  0.4809130000000  0.4952250000000  0.5714800000000 1.0
C      1  0.5621520000000  0.4924800000000  0.5310360000000 1.0
C      1  0.5649330000000  0.5088290000000  0.4637980000000 1.0
C      1  0.4734920000000  0.4961100000000  0.4338830000000 1.0
C      1  0.5795890000000  0.4986370000000  0.5035440000000 1.0
C      1  0.5151750000000  0.4946970000000  0.5700110000000 1.0
C      1  0.4375940000000  0.4914680000000  0.5347820000000 1.0
C      1  0.4470100000000  0.4970830000000  0.4690770000000 1.0
C      1  0.5250610000000  0.4954090000000  0.4257590000000 1.0
C      1  0.6124230000000  0.5152300000000  0.4468810000000 1.0
C      1  0.4809270000000  0.5145260000000  0.3733760000000 1.0
C      1  0.3767620000000  0.5177580000000  0.4774870000000 1.0
C      1  0.4417140000000  0.5112140000000  0.6106440000000 1.0
C      1  0.5729910000000  0.5121270000000  0.5892090000000 1.0
C      1  0.3926640000000  0.5171900000000  0.4510850000000 1.0
C      1  0.5091800000000  0.5114630000000  0.3802500000000 1.0
C      1  0.6254630000000  0.5168230000000  0.4749770000000 1.0
C      1  0.5554110000000  0.5063130000000  0.6096910000000 1.0
C      1  0.4236740000000  0.5151740000000  0.5897590000000 1.0
C      1  0.5110080000000  0.5822020000000  0.4344100000000 1.0
C      1  0.4473510000000  0.5793310000000  0.4663440000000 1.0
C      1  0.4561610000000  0.5817040000000  0.5369870000000 1.0
C      1  0.5293420000000  0.5889840000000  0.5642740000000 1.0
C      1  0.5703910000000  0.5808150000000  0.4988440000000 1.0
C      1  0.4828550000000  0.5953580000000  0.4253260000000 1.0
C      1  0.5490510000000  0.5751730000000  0.4652870000000 1.0
C      1  0.5461750000000  0.5817510000000  0.5407420000000 1.0
C      1  0.4703880000000  0.5885330000000  0.5624020000000 1.0
C      1  0.4295610000000  0.5892450000000  0.4904970000000 1.0
C      1  0.4161630000000  0.3926160000000  0.4995660000000 1.0
C      1  0.4849710000000  0.3956500000000  0.5564320000000 1.0
C      1  0.5627480000000  0.3938580000000  0.5497430000000 1.0
C      1  0.5534720000000  0.3972650000000  0.4568390000000 1.0
C      1  0.4731580000000  0.3958700000000  0.4413890000000 1.0
C      1  0.5829690000000  0.3999390000000  0.5007560000000 1.0
C      1  0.5134550000000  0.3958440000000  0.5578450000000 1.0
C      1  0.4367620000000  0.3930500000000  0.5446120000000 1.0
C      1  0.4478360000000  0.3953960000000  0.4557300000000 1.0
C      1  0.5285500000000  0.3963920000000  0.4419330000000 1.0
C      1  0.6010980000000  0.5422750000000  0.5166080000000 1.0
C      1  0.5590620000000  0.5286900000000  0.4012660000000 1.0
C      1  0.4192780000000  0.5434940000000  0.4103550000000 1.0
C      1  0.4024880000000  0.5311720000000  0.5334700000000 1.0
C      1  0.5123410000000  0.5309560000000  0.6112220000000 1.0
C      1  0.4108680000000  0.5421030000000  0.5061620000000 1.0
C      1  0.4437030000000  0.5306410000000  0.4147090000000 1.0
C      1  0.5829860000000  0.5422390000000  0.4059100000000 1.0
C      1  0.6009670000000  0.5298740000000  0.5419280000000 1.0
C      1  0.4843570000000  0.5307740000000  0.6099780000000 1.0
C      1  0.5875380000000  0.4493190000000  0.4991410000000 1.0
C      1  0.5309960000000  0.4459440000000  0.4312150000000 1.0
C      1  0.4437600000000  0.4471260000000  0.4518980000000 1.0
C      1  0.4300510000000  0.4437650000000  0.5398320000000 1.0
C      1  0.5136040000000  0.4452550000000  0.5747440000000 1.0
C      1  0.4171010000000  0.4422760000000  0.5090010000000 1.0
C      1  0.4695240000000  0.4456530000000  0.4319900000000 1.0
C      1  0.5576560000000  0.4484110000000  0.4477230000000 1.0
C      1  0.5681040000000  0.4428600000000  0.5476640000000 1.0
C      1  0.4822030000000  0.4443020000000  0.5723130000000 1.0
C      1  0.4858180000000  0.6113790000000  0.5527650000000 1.0
C      1  0.5406120000000  0.6065530000000  0.5247940000000 1.0
C      1  0.5344520000000  0.6004620000000  0.4728540000000 1.0
C      1  0.4802030000000  0.6138510000000  0.4487830000000 1.0
C      1  0.4512550000000  0.6114080000000  0.4966100000000 1.0
C      1  0.5141940000000  0.6107830000000  0.5522260000000 1.0
C      1  0.4616570000000  0.6075920000000  0.5232730000000 1.0
C      1  0.4677810000000  0.6017050000000  0.4719820000000 1.0
C      1  0.5172320000000  0.6075330000000  0.4504610000000 1.0
C      1  0.5512920000000  0.6045730000000  0.4978310000000 1.0
C      1  0.4774640000000  0.5128490000000  0.5047490000000 1.0
C      1  0.4723160000000  0.5183020000000  0.5532190000000 1.0
C      1  0.5360750000000  0.5039690000000  0.5249750000000 1.0
C      1  0.5369850000000  0.5097580000000  0.4723830000000 1.0
C      1  0.4876120000000  0.5144680000000  0.4534720000000 1.0
C      1  0.5309910000000  0.5148730000000  0.4994740000000 1.0
C      1  0.5248860000000  0.5147090000000  0.5490270000000 1.0
C      1  0.4604580000000  0.5096990000000  0.5287150000000 1.0
C      1  0.4750640000000  0.5034120000000  0.4777640000000 1.0
C      1  0.5177830000000  0.5115830000000  0.4502880000000 1.0
C      1  0.6050980000000  0.4998600000000  0.5388090000000 1.0
C      1  0.5554700000000  0.4995840000000  0.4112050000000 1.0
C      1  0.4476630000000  0.5005440000000  0.4180290000000 1.0
C      1  0.3912950000000  0.5028060000000  0.5382940000000 1.0
C      1  0.4980260000000  0.4972470000000  0.6236250000000 1.0
END
