TITL C-3578195-8548-620 3.63773974247356e-07 125000 -750.274579499163 0 0 120 (C1) n - 1
REM
REM in /home/bkarasulu/work/CARBON/AIRSS/Generating-Clusters/EDIP-Nigel-Params/with-SteepDescent/Higher-Symm/SD-CG/HFTN-CG
REM
REM
REM
REM
REM
REM ./C.cell (12c818d87b63d06a65506943cc24bca4)
REM
REM compiler GCC version 9.2.1 20190827 (Red Hat 9.2.1-1)
REM options -cpp -mtune=generic -march=x86-64 -g -O0 -fpre-include=/usr/include/finclude/math-vector-fortran.h
REM seed 1791385443 615270523 -1913315368 -566733788 -1216885727 -787862048 -943013194 1906956217 -1558067482 -1713609049 1033785800 -757815639 -1374669736 1442038275 -372564890 -1423350448 513469577 1612801535 488056116 -1793883810 1290293729 -1202859741 269281395 -1735442562 -930397544 -268462109 1936000995 131108055 1570038764 1208075667 1630054761 -586066778 601709597
REM
CELL 1.54180   50.00000   50.00000   50.00000   90.00000   90.00000   90.00000
LATT -1
SFAC C  
C      1  0.4644940000000  0.5231310000000  0.5808130000000 1.0
C      1  0.5362240000000  0.5670620000000  0.4627620000000 1.0
C      1  0.5170030000000  0.5915330000000  0.5421140000000 1.0
C      1  0.4986000000000  0.4473310000000  0.4919830000000 1.0
C      1  0.4617860000000  0.4288410000000  0.5068440000000 1.0
C      1  0.5172240000000  0.5347220000000  0.4342910000000 1.0
C      1  0.4922600000000  0.4196810000000  0.5605580000000 1.0
C      1  0.5421630000000  0.5965210000000  0.5005630000000 1.0
C      1  0.5440500000000  0.4932040000000  0.4488740000000 1.0
C      1  0.4942090000000  0.5909930000000  0.5005370000000 1.0
C      1  0.4228850000000  0.5278130000000  0.5075560000000 1.0
C      1  0.4085730000000  0.4870840000000  0.5267260000000 1.0
C      1  0.5636610000000  0.4458040000000  0.5559430000000 1.0
C      1  0.5821410000000  0.4727400000000  0.4761250000000 1.0
C      1  0.4496200000000  0.5382220000000  0.4511600000000 1.0
C      1  0.4307130000000  0.4698370000000  0.5363100000000 1.0
C      1  0.5644090000000  0.4693590000000  0.4525460000000 1.0
C      1  0.5178130000000  0.4360970000000  0.5629890000000 1.0
C      1  0.5872760000000  0.4901130000000  0.5264070000000 1.0
C      1  0.4678810000000  0.4702720000000  0.4283600000000 1.0
C      1  0.4950330000000  0.4830640000000  0.5831430000000 1.0
C      1  0.4471190000000  0.5559110000000  0.5508070000000 1.0
C      1  0.5209130000000  0.4794830000000  0.5941530000000 1.0
C      1  0.5195540000000  0.4604850000000  0.5448750000000 1.0
C      1  0.4539920000000  0.5690260000000  0.5238570000000 1.0
C      1  0.5566010000000  0.5193100000000  0.4570360000000 1.0
C      1  0.4509110000000  0.4371870000000  0.4571090000000 1.0
C      1  0.4079620000000  0.4830780000000  0.4974470000000 1.0
C      1  0.5574310000000  0.4820590000000  0.5197810000000 1.0
C      1  0.5002250000000  0.5033080000000  0.5359440000000 1.0
C      1  0.4461830000000  0.5897590000000  0.4811890000000 1.0
C      1  0.4345470000000  0.5760050000000  0.5025630000000 1.0
C      1  0.5140800000000  0.4010480000000  0.4582280000000 1.0
C      1  0.5241850000000  0.4129040000000  0.4813290000000 1.0
C      1  0.5510970000000  0.4424350000000  0.4516550000000 1.0
C      1  0.5435680000000  0.5072840000000  0.5118650000000 1.0
C      1  0.4831120000000  0.4679410000000  0.5077890000000 1.0
C      1  0.5233110000000  0.4451170000000  0.4412340000000 1.0
C      1  0.4348990000000  0.4608570000000  0.4632040000000 1.0
C      1  0.5233850000000  0.4595060000000  0.4163100000000 1.0
C      1  0.5194770000000  0.5048520000000  0.4935620000000 1.0
C      1  0.5845730000000  0.5214700000000  0.4658030000000 1.0
C      1  0.4211780000000  0.5463040000000  0.4632220000000 1.0
C      1  0.5415670000000  0.5426310000000  0.4478350000000 1.0
C      1  0.4583930000000  0.5082060000000  0.4572460000000 1.0
C      1  0.4832760000000  0.5428120000000  0.4889340000000 1.0
C      1  0.4086590000000  0.5171920000000  0.5316260000000 1.0
C      1  0.4737720000000  0.5545780000000  0.4600990000000 1.0
C      1  0.4949080000000  0.4935460000000  0.4139570000000 1.0
C      1  0.4838980000000  0.5164310000000  0.4003100000000 1.0
C      1  0.5175800000000  0.4035210000000  0.5093940000000 1.0
C      1  0.5344250000000  0.5031620000000  0.5853710000000 1.0
C      1  0.4848010000000  0.5271880000000  0.5418040000000 1.0
C      1  0.5841400000000  0.5319150000000  0.5559520000000 1.0
C      1  0.5595720000000  0.5424450000000  0.5475010000000 1.0
C      1  0.5091620000000  0.4611290000000  0.4648400000000 1.0
C      1  0.5906580000000  0.5407360000000  0.4873450000000 1.0
C      1  0.5126310000000  0.4770270000000  0.3988420000000 1.0
C      1  0.5116760000000  0.5060160000000  0.4369040000000 1.0
C      1  0.5544320000000  0.4952880000000  0.5641770000000 1.0
C      1  0.4435810000000  0.5073570000000  0.5666620000000 1.0
C      1  0.5230450000000  0.4473630000000  0.5151830000000 1.0
C      1  0.5482100000000  0.4710260000000  0.5479800000000 1.0
C      1  0.4243940000000  0.4597650000000  0.4910670000000 1.0
C      1  0.4600410000000  0.4581010000000  0.5733820000000 1.0
C      1  0.5270090000000  0.4842810000000  0.4719690000000 1.0
C      1  0.4942560000000  0.5538300000000  0.4343030000000 1.0
C      1  0.5504810000000  0.5368400000000  0.5193030000000 1.0
C      1  0.5684930000000  0.5547330000000  0.4999710000000 1.0
C      1  0.5122660000000  0.5805940000000  0.4525910000000 1.0
C      1  0.4698790000000  0.5168160000000  0.5011360000000 1.0
C      1  0.4561920000000  0.5254220000000  0.5282390000000 1.0
C      1  0.4480640000000  0.5400810000000  0.4218840000000 1.0
C      1  0.5884870000000  0.4439200000000  0.5431550000000 1.0
C      1  0.4507240000000  0.5030480000000  0.4837730000000 1.0
C      1  0.5966210000000  0.4611170000000  0.5228040000000 1.0
C      1  0.4681200000000  0.4278920000000  0.4786320000000 1.0
C      1  0.4662800000000  0.5836720000000  0.4629800000000 1.0
C      1  0.5542610000000  0.5768680000000  0.4842370000000 1.0
C      1  0.5013420000000  0.5538140000000  0.5720510000000 1.0
C      1  0.4927520000000  0.5944370000000  0.4702540000000 1.0
C      1  0.5222200000000  0.5742970000000  0.5634850000000 1.0
C      1  0.4796490000000  0.4071020000000  0.5164880000000 1.0
C      1  0.4931760000000  0.4967870000000  0.5082960000000 1.0
C      1  0.5477590000000  0.4571220000000  0.4987660000000 1.0
C      1  0.4896060000000  0.5111770000000  0.5907140000000 1.0
C      1  0.5810980000000  0.5042870000000  0.5540440000000 1.0
C      1  0.4859960000000  0.4737220000000  0.4528040000000 1.0
C      1  0.4999390000000  0.5530520000000  0.5327980000000 1.0
C      1  0.4241820000000  0.5255180000000  0.5549660000000 1.0
C      1  0.5228410000000  0.5464860000000  0.5140140000000 1.0
C      1  0.4105560000000  0.5182070000000  0.4591200000000 1.0
C      1  0.4217820000000  0.5070470000000  0.4861480000000 1.0
C      1  0.4426470000000  0.4849490000000  0.4428950000000 1.0
C      1  0.4889090000000  0.5021870000000  0.4571970000000 1.0
C      1  0.5122840000000  0.5345980000000  0.4889510000000 1.0
C      1  0.5370270000000  0.4216320000000  0.5228370000000 1.0
C      1  0.4183010000000  0.5532690000000  0.4928680000000 1.0
C      1  0.4293660000000  0.5211710000000  0.4127420000000 1.0
C      1  0.5433270000000  0.4229970000000  0.5525290000000 1.0
C      1  0.4939880000000  0.3996390000000  0.5397870000000 1.0
C      1  0.4757310000000  0.5409490000000  0.4119520000000 1.0
C      1  0.5962210000000  0.4977490000000  0.4787700000000 1.0
C      1  0.5863220000000  0.4531430000000  0.4970480000000 1.0
C      1  0.5472720000000  0.5626540000000  0.5618880000000 1.0
C      1  0.5099730000000  0.4190160000000  0.4374310000000 1.0
C      1  0.4965890000000  0.4792900000000  0.5520750000000 1.0
C      1  0.4204460000000  0.5041240000000  0.4337290000000 1.0
C      1  0.4631560000000  0.4399340000000  0.4301950000000 1.0
C      1  0.5994120000000  0.5085720000000  0.5055950000000 1.0
C      1  0.5183070000000  0.5995080000000  0.5150860000000 1.0
C      1  0.5470370000000  0.4319320000000  0.4787960000000 1.0
C      1  0.4393750000000  0.4490150000000  0.5148630000000 1.0
C      1  0.4415050000000  0.4777630000000  0.5626340000000 1.0
C      1  0.4812400000000  0.5655900000000  0.5115850000000 1.0
C      1  0.4678290000000  0.4360870000000  0.5553800000000 1.0
C      1  0.4741180000000  0.4641910000000  0.5377420000000 1.0
C      1  0.4846060000000  0.4222730000000  0.4269450000000 1.0
C      1  0.5137680000000  0.5270550000000  0.5840600000000 1.0
C      1  0.4680660000000  0.5523600000000  0.5735180000000 1.0
END
