TITL C-3578206-1180-416 -5.0634486745407e-07 125000 -217.74871091383 0 0 37 (C1) n - 1
REM
REM in /home/bkarasulu/work/CARBON/AIRSS/Generating-Clusters/EDIP-Nigel-Params/with-SteepDescent/Higher-Symm/SD-CG/HFTN-CG
REM
REM
REM
REM
REM
REM ./C.cell (12c818d87b63d06a65506943cc24bca4)
REM
REM compiler GCC version 9.2.1 20190827 (Red Hat 9.2.1-1)
REM options -cpp -mtune=generic -march=x86-64 -g -O0 -fpre-include=/usr/include/finclude/math-vector-fortran.h
REM seed 1459340082 -1095332767 518924476 910960469 712653308 -48103679 277073724 -2115023157 -1377666218 -557670602 1119680635 -518289281 1644358173 128723862 -489057751 -895851962 1725516084 1141806055 968977902 -1987234244 -276240948 -1977707925 294923773 1764167323 -185912607 -1100999488 1040092988 -2088725906 -64249412 1551400067 -123999476 1019984233 1199624199
REM
CELL 1.54180   50.00000   50.00000   50.00000   90.00000   90.00000   90.00000
LATT -1
SFAC C  
C      1  0.5232800000000  0.5220580000000  0.5592480000000 1.0
C      1  0.4462570000000  0.5033900000000  0.5247510000000 1.0
C      1  0.4781790000000  0.5155660000000  0.4436330000000 1.0
C      1  0.5578120000000  0.5060410000000  0.4791680000000 1.0
C      1  0.5218540000000  0.5169260000000  0.4416530000000 1.0
C      1  0.4441550000000  0.5039190000000  0.4806420000000 1.0
C      1  0.4794590000000  0.5209020000000  0.5600670000000 1.0
C      1  0.5543550000000  0.5053030000000  0.5231600000000 1.0
C      1  0.4583340000000  0.5300940000000  0.4858050000000 1.0
C      1  0.5194340000000  0.5333020000000  0.4659910000000 1.0
C      1  0.5415290000000  0.5312550000000  0.5154370000000 1.0
C      1  0.4817160000000  0.5358380000000  0.5346970000000 1.0
C      1  0.4595740000000  0.5291670000000  0.5166450000000 1.0
C      1  0.5199490000000  0.5375040000000  0.5342190000000 1.0
C      1  0.5424660000000  0.5313740000000  0.4844460000000 1.0
C      1  0.4812230000000  0.5326630000000  0.4673240000000 1.0
C      1  0.5319880000000  0.4860390000000  0.5271010000000 1.0
C      1  0.4865640000000  0.4923510000000  0.5524260000000 1.0
C      1  0.4698370000000  0.4872770000000  0.4809540000000 1.0
C      1  0.5217080000000  0.4867230000000  0.4494130000000 1.0
C      1  0.5373620000000  0.4860710000000  0.4738950000000 1.0
C      1  0.4829850000000  0.4865010000000  0.4536170000000 1.0
C      1  0.4723020000000  0.4866260000000  0.5257310000000 1.0
C      1  0.5172910000000  0.4930090000000  0.5519440000000 1.0
C      1  0.5352790000000  0.4594750000000  0.4850270000000 1.0
C      1  0.5138720000000  0.4410850000000  0.5242800000000 1.0
C      1  0.4681070000000  0.4574200000000  0.5170280000000 1.0
C      1  0.4841760000000  0.4540020000000  0.4552490000000 1.0
C      1  0.5323020000000  0.4592530000000  0.5141620000000 1.0
C      1  0.5130050000000  0.4552270000000  0.4545430000000 1.0
C      1  0.4652510000000  0.4583670000000  0.4876940000000 1.0
C      1  0.4872370000000  0.4395970000000  0.5263270000000 1.0
C      1  0.4990350000000  0.5215200000000  0.4251880000000 1.0
C      1  0.5726630000000  0.4985270000000  0.5023100000000 1.0
C      1  0.5014750000000  0.5288920000000  0.5769780000000 1.0
C      1  0.4284560000000  0.4971380000000  0.5034040000000 1.0
C      1  0.4877020000000  0.4973540000000  0.5025440000000 1.0
END
