TITL C-3578203-1966-323 9.03768364000652e-07 125000 -783.007192556535 0 0 124 (C1) n - 1
REM
REM in /home/bkarasulu/work/CARBON/AIRSS/Generating-Clusters/EDIP-Nigel-Params/with-SteepDescent/Higher-Symm/SD-CG/HFTN-CG
REM
REM
REM
REM
REM
REM ./C.cell (12c818d87b63d06a65506943cc24bca4)
REM
REM compiler GCC version 9.2.1 20190827 (Red Hat 9.2.1-1)
REM options -cpp -mtune=generic -march=x86-64 -g -O0 -fpre-include=/usr/include/finclude/math-vector-fortran.h
REM seed 1876066479 -141765558 402606965 556663069 407588816 117221553 1144408370 2008842482 1554331464 -1913506314 1926938711 -871949217 -1193054903 -871891899 -170048715 -644200084 1270656714 -49341219 504816350 -168908843 -993147809 -1501886344 -1830772337 467066269 -1110739471 348848504 1974833810 1074094908 -860797492 -1685773700 -2032493344 1432905591 -1989540596
REM
CELL 1.54180   50.00000   50.00000   50.00000   90.00000   90.00000   90.00000
LATT -1
SFAC C  
C      1  0.5142370000000  0.4324010000000  0.5367010000000 1.0
C      1  0.4851040000000  0.4316470000000  0.4633870000000 1.0
C      1  0.4851160000000  0.4318950000000  0.5368170000000 1.0
C      1  0.5142310000000  0.4322680000000  0.4633480000000 1.0
C      1  0.4222960000000  0.4625440000000  0.5604640000000 1.0
C      1  0.5775580000000  0.4616830000000  0.4392550000000 1.0
C      1  0.5774550000000  0.4616230000000  0.5604200000000 1.0
C      1  0.4224120000000  0.4623460000000  0.4395970000000 1.0
C      1  0.5338000000000  0.4756600000000  0.5258720000000 1.0
C      1  0.4662240000000  0.4754300000000  0.4736270000000 1.0
C      1  0.4660150000000  0.4754190000000  0.5264510000000 1.0
C      1  0.5331710000000  0.4762420000000  0.4737940000000 1.0
C      1  0.4407910000000  0.4888510000000  0.4837380000000 1.0
C      1  0.5588890000000  0.4895150000000  0.5155310000000 1.0
C      1  0.5585520000000  0.4899310000000  0.4831820000000 1.0
C      1  0.4406060000000  0.4887200000000  0.5163480000000 1.0
C      1  0.5291370000000  0.4346890000000  0.5619450000000 1.0
C      1  0.4703850000000  0.4344910000000  0.4379870000000 1.0
C      1  0.4704570000000  0.4350430000000  0.5622100000000 1.0
C      1  0.5290570000000  0.4343540000000  0.4380280000000 1.0
C      1  0.5324330000000  0.4463990000000  0.4829660000000 1.0
C      1  0.4667940000000  0.4457730000000  0.5171000000000 1.0
C      1  0.4668680000000  0.4457600000000  0.4830500000000 1.0
C      1  0.5325970000000  0.4460490000000  0.5168050000000 1.0
C      1  0.5849170000000  0.4726020000000  0.4144350000000 1.0
C      1  0.4158790000000  0.4751310000000  0.5846750000000 1.0
C      1  0.4160380000000  0.4749040000000  0.4153520000000 1.0
C      1  0.5849360000000  0.4724170000000  0.5852460000000 1.0
C      1  0.5759960000000  0.4980810000000  0.4141620000000 1.0
C      1  0.4250240000000  0.5004410000000  0.5832170000000 1.0
C      1  0.4250530000000  0.5002690000000  0.4168740000000 1.0
C      1  0.5760550000000  0.4978950000000  0.5857120000000 1.0
C      1  0.5608070000000  0.5384050000000  0.5588850000000 1.0
C      1  0.4436100000000  0.5408300000000  0.4427550000000 1.0
C      1  0.4435200000000  0.5408300000000  0.5570760000000 1.0
C      1  0.5608560000000  0.5385620000000  0.4411930000000 1.0
C      1  0.4045890000000  0.5233730000000  0.4845080000000 1.0
C      1  0.5944360000000  0.5237030000000  0.5152380000000 1.0
C      1  0.5944110000000  0.5239980000000  0.4844640000000 1.0
C      1  0.4042330000000  0.5232430000000  0.5151870000000 1.0
C      1  0.4407480000000  0.4392990000000  0.5563390000000 1.0
C      1  0.5587550000000  0.4388210000000  0.4438310000000 1.0
C      1  0.5588780000000  0.4385700000000  0.5559440000000 1.0
C      1  0.4407430000000  0.4390470000000  0.4438880000000 1.0
C      1  0.4871760000000  0.5324280000000  0.4250930000000 1.0
C      1  0.5159710000000  0.5313910000000  0.5756670000000 1.0
C      1  0.5160150000000  0.5309590000000  0.4235240000000 1.0
C      1  0.4872000000000  0.5326210000000  0.5741190000000 1.0
C      1  0.4730860000000  0.5523530000000  0.5580310000000 1.0
C      1  0.5335970000000  0.5512660000000  0.4340610000000 1.0
C      1  0.5339420000000  0.5522390000000  0.5662860000000 1.0
C      1  0.4730390000000  0.5527860000000  0.4404350000000 1.0
C      1  0.5499790000000  0.5195270000000  0.5151790000000 1.0
C      1  0.4489510000000  0.5190420000000  0.4849090000000 1.0
C      1  0.4485940000000  0.5190740000000  0.5154790000000 1.0
C      1  0.5499540000000  0.5204670000000  0.4846740000000 1.0
C      1  0.4352930000000  0.5655820000000  0.5150000000000 1.0
C      1  0.5628370000000  0.5665330000000  0.4851270000000 1.0
C      1  0.5617810000000  0.5649420000000  0.5147060000000 1.0
C      1  0.4362820000000  0.5656520000000  0.4853150000000 1.0
C      1  0.4074560000000  0.4685870000000  0.5356560000000 1.0
C      1  0.5915910000000  0.4690850000000  0.4642350000000 1.0
C      1  0.5915240000000  0.4688500000000  0.5354130000000 1.0
C      1  0.4076810000000  0.4686320000000  0.4643750000000 1.0
C      1  0.4851340000000  0.4440630000000  0.5860040000000 1.0
C      1  0.5146370000000  0.4426360000000  0.4137720000000 1.0
C      1  0.5147880000000  0.4432660000000  0.5861390000000 1.0
C      1  0.4849380000000  0.4435370000000  0.4141030000000 1.0
C      1  0.4757500000000  0.5209600000000  0.4755550000000 1.0
C      1  0.5236160000000  0.5207090000000  0.5253480000000 1.0
C      1  0.5235960000000  0.5229200000000  0.4741630000000 1.0
C      1  0.4750620000000  0.5215500000000  0.5258780000000 1.0
C      1  0.5153220000000  0.4869540000000  0.5929410000000 1.0
C      1  0.4858380000000  0.4872710000000  0.4074480000000 1.0
C      1  0.4859860000000  0.4877450000000  0.5929980000000 1.0
C      1  0.5151330000000  0.4863900000000  0.4074690000000 1.0
C      1  0.5277660000000  0.5754290000000  0.4867120000000 1.0
C      1  0.4657720000000  0.5712390000000  0.5183190000000 1.0
C      1  0.4668150000000  0.5714160000000  0.4819690000000 1.0
C      1  0.5326170000000  0.5712120000000  0.5170380000000 1.0
C      1  0.5196830000000  0.5749590000000  0.4429110000000 1.0
C      1  0.4897760000000  0.5779890000000  0.5547090000000 1.0
C      1  0.4907100000000  0.5773740000000  0.4451200000000 1.0
C      1  0.5201860000000  0.5761360000000  0.5537780000000 1.0
C      1  0.5271730000000  0.5044280000000  0.4287140000000 1.0
C      1  0.4747080000000  0.5059450000000  0.5712700000000 1.0
C      1  0.4746970000000  0.5059000000000  0.4288600000000 1.0
C      1  0.5271720000000  0.5045720000000  0.5712670000000 1.0
C      1  0.5137020000000  0.5481880000000  0.5274200000000 1.0
C      1  0.4860150000000  0.5469780000000  0.4850410000000 1.0
C      1  0.4862490000000  0.5468560000000  0.5156360000000 1.0
C      1  0.5129550000000  0.5512610000000  0.4728820000000 1.0
C      1  0.5163330000000  0.4967250000000  0.5415330000000 1.0
C      1  0.4841120000000  0.4972310000000  0.4586340000000 1.0
C      1  0.4839020000000  0.4969110000000  0.5415790000000 1.0
C      1  0.5162840000000  0.4978950000000  0.4585890000000 1.0
C      1  0.4184050000000  0.4506230000000  0.5149310000000 1.0
C      1  0.5803640000000  0.4516470000000  0.4851140000000 1.0
C      1  0.5806740000000  0.4511160000000  0.5146540000000 1.0
C      1  0.4185640000000  0.4507900000000  0.4852430000000 1.0
C      1  0.4292260000000  0.5395070000000  0.5282620000000 1.0
C      1  0.5696770000000  0.5402110000000  0.4720410000000 1.0
C      1  0.5694110000000  0.5391120000000  0.5279150000000 1.0
C      1  0.4299690000000  0.5397030000000  0.4718310000000 1.0
C      1  0.4399480000000  0.4346440000000  0.4735250000000 1.0
C      1  0.5594310000000  0.4347100000000  0.5262190000000 1.0
C      1  0.5592420000000  0.4352210000000  0.4735000000000 1.0
C      1  0.4398950000000  0.4346350000000  0.5267200000000 1.0
C      1  0.5271310000000  0.4624940000000  0.3979500000000 1.0
C      1  0.4731170000000  0.4640990000000  0.6019610000000 1.0
C      1  0.4728380000000  0.4637430000000  0.3983890000000 1.0
C      1  0.5273310000000  0.4629260000000  0.6021340000000 1.0
C      1  0.5957660000000  0.4963940000000  0.5265300000000 1.0
C      1  0.4038690000000  0.4962530000000  0.4729670000000 1.0
C      1  0.4035180000000  0.4960710000000  0.5266230000000 1.0
C      1  0.5955390000000  0.4969050000000  0.4725090000000 1.0
C      1  0.4456110000000  0.5139590000000  0.4297710000000 1.0
C      1  0.5570300000000  0.5107030000000  0.5698270000000 1.0
C      1  0.5571210000000  0.5107090000000  0.4303670000000 1.0
C      1  0.4456330000000  0.5141590000000  0.5704630000000 1.0
C      1  0.5070190000000  0.5988720000000  0.4873290000000 1.0
C      1  0.4796880000000  0.5943980000000  0.5316900000000 1.0
C      1  0.4834310000000  0.5936430000000  0.4692140000000 1.0
C      1  0.4985040000000  0.6049370000000  0.5136370000000 1.0
END
