TITL C-3578198-8939-311 -6.86648513349453e-07 125000 -634.507457717898 0 0 103 (C1) n - 1
REM
REM in /home/bkarasulu/work/CARBON/AIRSS/Generating-Clusters/EDIP-Nigel-Params/with-SteepDescent/Higher-Symm/SD-CG/HFTN-CG
REM
REM
REM
REM
REM
REM ./C.cell (12c818d87b63d06a65506943cc24bca4)
REM
REM compiler GCC version 9.2.1 20190827 (Red Hat 9.2.1-1)
REM options -cpp -mtune=generic -march=x86-64 -g -O0 -fpre-include=/usr/include/finclude/math-vector-fortran.h
REM seed -2094868700 -1806719825 -68243347 1726355195 908561126 -484076043 -1939403304 -1493573786 271584413 1426580574 -636244348 -799904253 183555983 1764954887 -2092381384 324564759 -1101156385 1525404226 1127128862 -2108045605 -364726416 1358889368 -593645983 -1321021712 -372226654 -737289187 -357645069 748897841 967947728 -995693423 -2112528838 371826005 810493660
REM
CELL 1.54180   50.00000   50.00000   50.00000   90.00000   90.00000   90.00000
LATT -1
SFAC C  
C      1  0.5768250000000  0.5527380000000  0.5167720000000 1.0
C      1  0.4197170000000  0.5565800000000  0.4817610000000 1.0
C      1  0.5757180000000  0.4510640000000  0.5169480000000 1.0
C      1  0.4281060000000  0.4608880000000  0.4878990000000 1.0
C      1  0.5791220000000  0.5549250000000  0.4868600000000 1.0
C      1  0.4228940000000  0.5521440000000  0.5120300000000 1.0
C      1  0.5684670000000  0.4545270000000  0.4882880000000 1.0
C      1  0.4327740000000  0.4599940000000  0.5174890000000 1.0
C      1  0.5890870000000  0.5150360000000  0.5697740000000 1.0
C      1  0.4088870000000  0.5129750000000  0.4215090000000 1.0
C      1  0.5849350000000  0.4886680000000  0.5709380000000 1.0
C      1  0.4129590000000  0.4891640000000  0.4328600000000 1.0
C      1  0.5853890000000  0.5131140000000  0.4268570000000 1.0
C      1  0.4079990000000  0.5073350000000  0.5640470000000 1.0
C      1  0.5695940000000  0.4912690000000  0.4282680000000 1.0
C      1  0.4186190000000  0.4830930000000  0.5683120000000 1.0
C      1  0.5317860000000  0.5465360000000  0.4297410000000 1.0
C      1  0.4672060000000  0.5376320000000  0.5678750000000 1.0
C      1  0.5249200000000  0.4526460000000  0.4304710000000 1.0
C      1  0.4703050000000  0.4409360000000  0.5743630000000 1.0
C      1  0.5288430000000  0.5476770000000  0.5715230000000 1.0
C      1  0.4679870000000  0.5358890000000  0.4334360000000 1.0
C      1  0.5275070000000  0.4539930000000  0.5725370000000 1.0
C      1  0.4640530000000  0.4461300000000  0.4290560000000 1.0
C      1  0.5124050000000  0.5466260000000  0.5480430000000 1.0
C      1  0.4858390000000  0.5534480000000  0.4495710000000 1.0
C      1  0.5115420000000  0.4468770000000  0.5498320000000 1.0
C      1  0.4811780000000  0.4366270000000  0.4498800000000 1.0
C      1  0.5139250000000  0.5470410000000  0.4524620000000 1.0
C      1  0.4845430000000  0.5529470000000  0.5497340000000 1.0
C      1  0.5079500000000  0.4450340000000  0.4522710000000 1.0
C      1  0.4874670000000  0.4318220000000  0.5532850000000 1.0
C      1  0.4775870000000  0.5084280000000  0.4223400000000 1.0
C      1  0.5233990000000  0.5248380000000  0.5868080000000 1.0
C      1  0.4607550000000  0.4841840000000  0.4252790000000 1.0
C      1  0.5188940000000  0.4778020000000  0.5849250000000 1.0
C      1  0.4779100000000  0.5057910000000  0.5808760000000 1.0
C      1  0.5259300000000  0.5236550000000  0.4140940000000 1.0
C      1  0.4656440000000  0.4789960000000  0.5791780000000 1.0
C      1  0.5171040000000  0.4762360000000  0.4167710000000 1.0
C      1  0.5210360000000  0.4423470000000  0.4783680000000 1.0
C      1  0.4751100000000  0.4351670000000  0.5263670000000 1.0
C      1  0.5296530000000  0.5492620000000  0.4774830000000 1.0
C      1  0.4698450000000  0.5570110000000  0.5242070000000 1.0
C      1  0.5263500000000  0.4422870000000  0.5247090000000 1.0
C      1  0.4706320000000  0.4410320000000  0.4766660000000 1.0
C      1  0.5292020000000  0.5505260000000  0.5241740000000 1.0
C      1  0.4697090000000  0.5578860000000  0.4746150000000 1.0
C      1  0.5505030000000  0.4377080000000  0.4715460000000 1.0
C      1  0.4440650000000  0.4348840000000  0.5307340000000 1.0
C      1  0.5552430000000  0.5644700000000  0.4701750000000 1.0
C      1  0.4415540000000  0.5651190000000  0.5322070000000 1.0
C      1  0.5556580000000  0.4367130000000  0.5348260000000 1.0
C      1  0.4400030000000  0.4379930000000  0.4722980000000 1.0
C      1  0.5545000000000  0.5657210000000  0.5325240000000 1.0
C      1  0.4425080000000  0.5667730000000  0.4644610000000 1.0
C      1  0.5780050000000  0.4792340000000  0.4754600000000 1.0
C      1  0.4541560000000  0.4797550000000  0.5301360000000 1.0
C      1  0.5880500000000  0.5285220000000  0.4753360000000 1.0
C      1  0.4230970000000  0.5231110000000  0.5184720000000 1.0
C      1  0.5731670000000  0.4810430000000  0.5233670000000 1.0
C      1  0.4425910000000  0.4836930000000  0.4736120000000 1.0
C      1  0.5715460000000  0.5239490000000  0.5227910000000 1.0
C      1  0.4123950000000  0.5299360000000  0.4689820000000 1.0
C      1  0.5218590000000  0.4708890000000  0.4890740000000 1.0
C      1  0.4800680000000  0.4641730000000  0.5238030000000 1.0
C      1  0.5378890000000  0.5204270000000  0.4862830000000 1.0
C      1  0.4611070000000  0.5296160000000  0.5145520000000 1.0
C      1  0.5366720000000  0.4706510000000  0.5145300000000 1.0
C      1  0.4729560000000  0.4720130000000  0.4758110000000 1.0
C      1  0.5418210000000  0.5220900000000  0.5158480000000 1.0
C      1  0.4623320000000  0.5292960000000  0.4835460000000 1.0
C      1  0.4163540000000  0.5330520000000  0.4398520000000 1.0
C      1  0.5698170000000  0.5261190000000  0.5530540000000 1.0
C      1  0.4371120000000  0.4782680000000  0.4433960000000 1.0
C      1  0.5632840000000  0.4821440000000  0.5530290000000 1.0
C      1  0.4259580000000  0.5213540000000  0.5477080000000 1.0
C      1  0.5769810000000  0.5297470000000  0.4479550000000 1.0
C      1  0.4442490000000  0.4734740000000  0.5596370000000 1.0
C      1  0.5581020000000  0.4811510000000  0.4527110000000 1.0
C      1  0.5544590000000  0.4540640000000  0.5601190000000 1.0
C      1  0.4378290000000  0.4474350000000  0.4430310000000 1.0
C      1  0.5566250000000  0.5517920000000  0.5602360000000 1.0
C      1  0.4411150000000  0.5493840000000  0.4386490000000 1.0
C      1  0.5510380000000  0.4529800000000  0.4452510000000 1.0
C      1  0.4440470000000  0.4429470000000  0.5603930000000 1.0
C      1  0.5592400000000  0.5525640000000  0.4424670000000 1.0
C      1  0.4399520000000  0.5451940000000  0.5574860000000 1.0
C      1  0.4845270000000  0.5103870000000  0.4735330000000 1.0
C      1  0.4801740000000  0.5078990000000  0.5265860000000 1.0
C      1  0.5317930000000  0.4947140000000  0.4699260000000 1.0
C      1  0.5336360000000  0.4971170000000  0.5322100000000 1.0
C      1  0.5078870000000  0.5027990000000  0.4247280000000 1.0
C      1  0.5074370000000  0.5029250000000  0.5757080000000 1.0
C      1  0.4928370000000  0.4748300000000  0.4985770000000 1.0
C      1  0.5145180000000  0.5624240000000  0.5002640000000 1.0
C      1  0.4849980000000  0.5680810000000  0.4997540000000 1.0
C      1  0.4980080000000  0.4303060000000  0.5012120000000 1.0
C      1  0.5080860000000  0.5032730000000  0.4544990000000 1.0
C      1  0.5069690000000  0.5028370000000  0.5453780000000 1.0
C      1  0.5853690000000  0.5029260000000  0.4929830000000 1.0
C      1  0.4351380000000  0.5138740000000  0.4829940000000 1.0
C      1  0.4937310000000  0.5030910000000  0.5009600000000 1.0
END
