TITL C-3577076-40-649 -1.99588410915717e-06 125000 -931.724748727808 0 0 148 (C1) n - 1
REM
REM in /home/bkarasulu/work/CARBON/AIRSS/Generating-Clusters/EDIP-Nigel-Params/with-SteepDescent/Higher-Symm/SD-CG/HFTN-CG
REM
REM
REM
REM
REM
REM ./C.cell (12c818d87b63d06a65506943cc24bca4)
REM
REM compiler GCC version 9.2.1 20190827 (Red Hat 9.2.1-1)
REM options -cpp -mtune=generic -march=x86-64 -g -O0 -fpre-include=/usr/include/finclude/math-vector-fortran.h
REM seed -1917230693 -1767649115 -751538259 1186766824 -481847909 118970059 810643697 -250337918 1554066516 1049280652 2102569949 1823946428 -962199259 -1056729762 1430812066 1967359497 500445111 -373167829 -1900958572 -451981731 -169180738 -500757056 620505991 216736869 -1918465589 -738130592 828581380 2000397873 475883930 221968775 1042398267 -70890665 -637052818
REM
CELL 1.54180   50.00000   50.00000   50.00000   90.00000   90.00000   90.00000
LATT -1
SFAC C  
C      1  0.4353910000000  0.4829960000000  0.5403390000000 1.0
C      1  0.5634720000000  0.5169840000000  0.5373970000000 1.0
C      1  0.5629110000000  0.4866980000000  0.5349420000000 1.0
C      1  0.4374460000000  0.5130670000000  0.5360080000000 1.0
C      1  0.4737400000000  0.4796390000000  0.4628960000000 1.0
C      1  0.5240060000000  0.5119820000000  0.4620830000000 1.0
C      1  0.5396900000000  0.4882930000000  0.4639250000000 1.0
C      1  0.4642430000000  0.5059530000000  0.4647430000000 1.0
C      1  0.4366470000000  0.4749110000000  0.4912730000000 1.0
C      1  0.5637300000000  0.5241740000000  0.4872500000000 1.0
C      1  0.5613730000000  0.4935150000000  0.4832280000000 1.0
C      1  0.4405980000000  0.5048450000000  0.4839370000000 1.0
C      1  0.4325260000000  0.4681820000000  0.4336630000000 1.0
C      1  0.5683700000000  0.5307490000000  0.4337170000000 1.0
C      1  0.5635790000000  0.4676000000000  0.4329980000000 1.0
C      1  0.4369140000000  0.5324100000000  0.4329540000000 1.0
C      1  0.4422720000000  0.5684320000000  0.4858800000000 1.0
C      1  0.5572080000000  0.4349380000000  0.4841920000000 1.0
C      1  0.5605740000000  0.5704540000000  0.4853140000000 1.0
C      1  0.4390870000000  0.4235530000000  0.4892050000000 1.0
C      1  0.4697160000000  0.4259630000000  0.5525530000000 1.0
C      1  0.5311880000000  0.5737460000000  0.5560710000000 1.0
C      1  0.5296120000000  0.4272550000000  0.5540910000000 1.0
C      1  0.4711360000000  0.5725480000000  0.5534400000000 1.0
C      1  0.4869110000000  0.5577500000000  0.5722700000000 1.0
C      1  0.5135430000000  0.4421080000000  0.5729610000000 1.0
C      1  0.5159360000000  0.5576260000000  0.5744070000000 1.0
C      1  0.4844410000000  0.4436590000000  0.5706010000000 1.0
C      1  0.5583580000000  0.5667280000000  0.5521510000000 1.0
C      1  0.4414900000000  0.4303830000000  0.5499370000000 1.0
C      1  0.4435020000000  0.5659480000000  0.5507430000000 1.0
C      1  0.5569860000000  0.4337220000000  0.5511350000000 1.0
C      1  0.4184200000000  0.4407820000000  0.5363750000000 1.0
C      1  0.5801140000000  0.5585910000000  0.5357050000000 1.0
C      1  0.5781680000000  0.4427880000000  0.5346580000000 1.0
C      1  0.4214790000000  0.5570400000000  0.5350230000000 1.0
C      1  0.4475360000000  0.5205640000000  0.5090080000000 1.0
C      1  0.5532040000000  0.4789850000000  0.5084350000000 1.0
C      1  0.5530010000000  0.5306760000000  0.5140530000000 1.0
C      1  0.4476020000000  0.4689040000000  0.5183580000000 1.0
C      1  0.5141130000000  0.5483420000000  0.5004680000000 1.0
C      1  0.4864250000000  0.4510430000000  0.5059710000000 1.0
C      1  0.4860250000000  0.5477650000000  0.5017340000000 1.0
C      1  0.5141720000000  0.4536560000000  0.5026210000000 1.0
C      1  0.4790490000000  0.5240180000000  0.4448510000000 1.0
C      1  0.5089250000000  0.4811790000000  0.4327920000000 1.0
C      1  0.5080650000000  0.5119540000000  0.4382260000000 1.0
C      1  0.4811120000000  0.4721810000000  0.4364170000000 1.0
C      1  0.5531210000000  0.5141310000000  0.4138160000000 1.0
C      1  0.4466280000000  0.4841580000000  0.4121760000000 1.0
C      1  0.4499360000000  0.5142930000000  0.4140690000000 1.0
C      1  0.5514070000000  0.4841210000000  0.4113540000000 1.0
C      1  0.5185710000000  0.4858880000000  0.5415990000000 1.0
C      1  0.4823030000000  0.5165460000000  0.5428880000000 1.0
C      1  0.4867790000000  0.4849770000000  0.5447830000000 1.0
C      1  0.5172280000000  0.5175540000000  0.5430040000000 1.0
C      1  0.4220540000000  0.4337370000000  0.5094320000000 1.0
C      1  0.5759570000000  0.5679140000000  0.5091950000000 1.0
C      1  0.5721960000000  0.4355660000000  0.5081710000000 1.0
C      1  0.4264710000000  0.5658230000000  0.5089840000000 1.0
C      1  0.4456160000000  0.4747670000000  0.5674090000000 1.0
C      1  0.5460210000000  0.5271070000000  0.5632220000000 1.0
C      1  0.5437310000000  0.4728530000000  0.5624090000000 1.0
C      1  0.4507910000000  0.5261640000000  0.5641170000000 1.0
C      1  0.4748460000000  0.5248010000000  0.5147390000000 1.0
C      1  0.5252900000000  0.4770300000000  0.5136010000000 1.0
C      1  0.5255840000000  0.5282460000000  0.5161680000000 1.0
C      1  0.4751980000000  0.4723360000000  0.5201170000000 1.0
C      1  0.4015010000000  0.5180440000000  0.5654250000000 1.0
C      1  0.5948490000000  0.4830230000000  0.5665540000000 1.0
C      1  0.5960930000000  0.5148700000000  0.5680000000000 1.0
C      1  0.3993640000000  0.4868800000000  0.5677920000000 1.0
C      1  0.5260240000000  0.6038020000000  0.5153140000000 1.0
C      1  0.4772070000000  0.3947610000000  0.5130660000000 1.0
C      1  0.4756810000000  0.6035510000000  0.5146800000000 1.0
C      1  0.5259830000000  0.3996920000000  0.5117980000000 1.0
C      1  0.5152630000000  0.4095870000000  0.4870460000000 1.0
C      1  0.4856460000000  0.5938030000000  0.4898040000000 1.0
C      1  0.4853500000000  0.4070220000000  0.4884590000000 1.0
C      1  0.5158470000000  0.5948330000000  0.4901960000000 1.0
C      1  0.3966550000000  0.4861470000000  0.4664160000000 1.0
C      1  0.6026510000000  0.5149200000000  0.4677180000000 1.0
C      1  0.5893010000000  0.4886030000000  0.4708130000000 1.0
C      1  0.4122830000000  0.5110800000000  0.4703430000000 1.0
C      1  0.5955770000000  0.5332740000000  0.4458270000000 1.0
C      1  0.4050880000000  0.4666620000000  0.4457310000000 1.0
C      1  0.4117700000000  0.5287870000000  0.4466220000000 1.0
C      1  0.5893850000000  0.4712130000000  0.4463150000000 1.0
C      1  0.5976900000000  0.4463490000000  0.4606650000000 1.0
C      1  0.4039720000000  0.5536550000000  0.4610580000000 1.0
C      1  0.4032230000000  0.4425050000000  0.4628320000000 1.0
C      1  0.6009880000000  0.5597440000000  0.4559030000000 1.0
C      1  0.5287400000000  0.5408570000000  0.5943050000000 1.0
C      1  0.4753040000000  0.4721270000000  0.5713190000000 1.0
C      1  0.4738300000000  0.5344350000000  0.5818060000000 1.0
C      1  0.5259560000000  0.4594990000000  0.5924600000000 1.0
C      1  0.4274220000000  0.4266270000000  0.4616570000000 1.0
C      1  0.5747920000000  0.5702350000000  0.4590500000000 1.0
C      1  0.5721260000000  0.4319850000000  0.4589200000000 1.0
C      1  0.4279920000000  0.5701370000000  0.4606430000000 1.0
C      1  0.5290230000000  0.5682900000000  0.4826280000000 1.0
C      1  0.4699650000000  0.4337910000000  0.4868160000000 1.0
C      1  0.4726060000000  0.5664960000000  0.4829300000000 1.0
C      1  0.5270630000000  0.4381430000000  0.4810770000000 1.0
C      1  0.5406970000000  0.5354210000000  0.4674430000000 1.0
C      1  0.4545080000000  0.4599550000000  0.4708630000000 1.0
C      1  0.4785280000000  0.5542980000000  0.4543250000000 1.0
C      1  0.5260560000000  0.4612500000000  0.4551170000000 1.0
C      1  0.5160700000000  0.5172700000000  0.6041920000000 1.0
C      1  0.4853260000000  0.4868940000000  0.5952940000000 1.0
C      1  0.4920000000000  0.5140800000000  0.5892650000000 1.0
C      1  0.5112880000000  0.4790050000000  0.6072270000000 1.0
C      1  0.4440970000000  0.5610260000000  0.4365260000000 1.0
C      1  0.5572350000000  0.4395990000000  0.4333620000000 1.0
C      1  0.5593510000000  0.5586990000000  0.4366590000000 1.0
C      1  0.4442870000000  0.4408960000000  0.4385230000000 1.0
C      1  0.4876910000000  0.5522330000000  0.4109740000000 1.0
C      1  0.5154280000000  0.4464240000000  0.4045940000000 1.0
C      1  0.5167780000000  0.5495400000000  0.4170190000000 1.0
C      1  0.4842800000000  0.4433680000000  0.4037190000000 1.0
C      1  0.4072970000000  0.4722300000000  0.5405350000000 1.0
C      1  0.5912460000000  0.5279770000000  0.5403090000000 1.0
C      1  0.5888810000000  0.4722080000000  0.5383980000000 1.0
C      1  0.4109180000000  0.5272570000000  0.5378780000000 1.0
C      1  0.4257960000000  0.4873640000000  0.5856180000000 1.0
C      1  0.5679030000000  0.5142740000000  0.5817370000000 1.0
C      1  0.5670720000000  0.4842190000000  0.5802240000000 1.0
C      1  0.4271230000000  0.5178340000000  0.5822630000000 1.0
C      1  0.3948160000000  0.5147070000000  0.5150300000000 1.0
C      1  0.6058800000000  0.4842580000000  0.5160030000000 1.0
C      1  0.6057550000000  0.5145210000000  0.5170210000000 1.0
C      1  0.3952680000000  0.4843330000000  0.5152870000000 1.0
C      1  0.4751180000000  0.5256420000000  0.4063780000000 1.0
C      1  0.5219600000000  0.4760960000000  0.4054410000000 1.0
C      1  0.5270960000000  0.5247260000000  0.4074160000000 1.0
C      1  0.4690870000000  0.4695730000000  0.3990990000000 1.0
C      1  0.5285680000000  0.4347030000000  0.4287550000000 1.0
C      1  0.4734190000000  0.5710540000000  0.4298440000000 1.0
C      1  0.4750150000000  0.4414080000000  0.4328540000000 1.0
C      1  0.5306240000000  0.5606620000000  0.4402850000000 1.0
C      1  0.5154780000000  0.5906740000000  0.5378690000000 1.0
C      1  0.4861740000000  0.4068050000000  0.5370910000000 1.0
C      1  0.4863070000000  0.5917140000000  0.5379170000000 1.0
C      1  0.5153120000000  0.4092370000000  0.5362220000000 1.0
C      1  0.6008420000000  0.5289100000000  0.4925150000000 1.0
C      1  0.4056940000000  0.4694490000000  0.4900880000000 1.0
C      1  0.3976240000000  0.5280020000000  0.4891320000000 1.0
C      1  0.6041610000000  0.4714830000000  0.4894480000000 1.0
END
