TITL C-3578194-7807-466 -2.03850837340269e-06 125000 -1182.70615502043 0 0 188 (C1) n - 1
REM
REM in /home/bkarasulu/work/CARBON/AIRSS/Generating-Clusters/EDIP-Nigel-Params/with-SteepDescent/Higher-Symm/SD-CG/HFTN-CG
REM
REM
REM
REM
REM
REM ./C.cell (12c818d87b63d06a65506943cc24bca4)
REM
REM compiler GCC version 9.2.1 20190827 (Red Hat 9.2.1-1)
REM options -cpp -mtune=generic -march=x86-64 -g -O0 -fpre-include=/usr/include/finclude/math-vector-fortran.h
REM seed 1434230631 663804772 -1218338739 533643094 -1487560969 -803586348 707962668 1512482669 130228238 -1283994412 -247332735 -1930645755 883804011 2019742011 1583743010 -285914291 168560425 1743191840 -2091705661 -1838839731 -1167929839 -1722638559 -816157169 226038421 -600953690 -1564909848 375110789 2066667351 472722624 630769999 1273587097 -541216804 -403174930
REM
CELL 1.54180   50.00000   50.00000   50.00000   90.00000   90.00000   90.00000
LATT -1
SFAC C  
C      1  0.4918980000000  0.4187060000000  0.5750770000000 1.0
C      1  0.4198750000000  0.4811160000000  0.5771910000000 1.0
C      1  0.4556590000000  0.5726220000000  0.5799020000000 1.0
C      1  0.5533590000000  0.5625490000000  0.5740930000000 1.0
C      1  0.5770320000000  0.4659810000000  0.5774860000000 1.0
C      1  0.4943730000000  0.4155380000000  0.4169190000000 1.0
C      1  0.4189390000000  0.4781890000000  0.4218330000000 1.0
C      1  0.4552730000000  0.5691130000000  0.4221620000000 1.0
C      1  0.5527920000000  0.5594430000000  0.4227250000000 1.0
C      1  0.5765890000000  0.4673820000000  0.4234460000000 1.0
C      1  0.4563240000000  0.4439040000000  0.5083380000000 1.0
C      1  0.4334580000000  0.5147810000000  0.5128320000000 1.0
C      1  0.4914330000000  0.5701500000000  0.5159560000000 1.0
C      1  0.5711770000000  0.5197180000000  0.5126290000000 1.0
C      1  0.5379260000000  0.4669310000000  0.5118770000000 1.0
C      1  0.4721680000000  0.4456160000000  0.4824060000000 1.0
C      1  0.4362850000000  0.5044150000000  0.4868560000000 1.0
C      1  0.4899550000000  0.5698120000000  0.4863940000000 1.0
C      1  0.5638450000000  0.5227300000000  0.4844460000000 1.0
C      1  0.5398200000000  0.4514780000000  0.4859390000000 1.0
C      1  0.5458860000000  0.5658950000000  0.4797760000000 1.0
C      1  0.5887990000000  0.4701610000000  0.4848940000000 1.0
C      1  0.5050070000000  0.4073680000000  0.4820130000000 1.0
C      1  0.4094530000000  0.4669530000000  0.4833680000000 1.0
C      1  0.4399020000000  0.5816410000000  0.4839760000000 1.0
C      1  0.5512620000000  0.5689640000000  0.5121980000000 1.0
C      1  0.5846910000000  0.4787450000000  0.5152270000000 1.0
C      1  0.4990400000000  0.4124190000000  0.5137890000000 1.0
C      1  0.4242390000000  0.4633790000000  0.5124490000000 1.0
C      1  0.4358450000000  0.5673120000000  0.5125380000000 1.0
C      1  0.5175610000000  0.5961780000000  0.4515690000000 1.0
C      1  0.5964360000000  0.5105740000000  0.4570950000000 1.0
C      1  0.5386680000000  0.4076030000000  0.4487470000000 1.0
C      1  0.4287910000000  0.4328330000000  0.4532450000000 1.0
C      1  0.4214360000000  0.5446750000000  0.4585350000000 1.0
C      1  0.5167120000000  0.5933840000000  0.5433300000000 1.0
C      1  0.5996750000000  0.5101740000000  0.5501480000000 1.0
C      1  0.5349300000000  0.4158940000000  0.5434970000000 1.0
C      1  0.4276190000000  0.4326230000000  0.5488470000000 1.0
C      1  0.4109220000000  0.5499430000000  0.5521510000000 1.0
C      1  0.5188770000000  0.5215580000000  0.5224140000000 1.0
C      1  0.5461130000000  0.5029380000000  0.5236510000000 1.0
C      1  0.5089890000000  0.4696720000000  0.5223540000000 1.0
C      1  0.4620820000000  0.5114770000000  0.5259540000000 1.0
C      1  0.4938620000000  0.5418570000000  0.5209540000000 1.0
C      1  0.5365050000000  0.5161760000000  0.4823910000000 1.0
C      1  0.5308490000000  0.4884610000000  0.4753080000000 1.0
C      1  0.4980790000000  0.4586320000000  0.4742210000000 1.0
C      1  0.4595470000000  0.4906090000000  0.4813900000000 1.0
C      1  0.4942940000000  0.5395520000000  0.4773530000000 1.0
C      1  0.5591680000000  0.5848470000000  0.5585460000000 1.0
C      1  0.5995180000000  0.4663120000000  0.5607000000000 1.0
C      1  0.4981690000000  0.3958980000000  0.5602060000000 1.0
C      1  0.4017260000000  0.4665140000000  0.5615850000000 1.0
C      1  0.4366530000000  0.5861290000000  0.5644660000000 1.0
C      1  0.5575440000000  0.5834000000000  0.4361700000000 1.0
C      1  0.6005370000000  0.4684320000000  0.4375890000000 1.0
C      1  0.4991310000000  0.3921880000000  0.4318510000000 1.0
C      1  0.3995830000000  0.4631010000000  0.4353670000000 1.0
C      1  0.4343670000000  0.5829290000000  0.4340620000000 1.0
C      1  0.6098440000000  0.5306940000000  0.5308590000000 1.0
C      1  0.5507260000000  0.4156510000000  0.5195450000000 1.0
C      1  0.4302770000000  0.4111350000000  0.5279900000000 1.0
C      1  0.3959130000000  0.5382040000000  0.5295570000000 1.0
C      1  0.5011870000000  0.6119040000000  0.5258750000000 1.0
C      1  0.6089120000000  0.5297680000000  0.4765220000000 1.0
C      1  0.5553130000000  0.4077790000000  0.4723780000000 1.0
C      1  0.4316790000000  0.4116330000000  0.4738200000000 1.0
C      1  0.4033290000000  0.5382040000000  0.4804060000000 1.0
C      1  0.5034510000000  0.6113340000000  0.4732060000000 1.0
C      1  0.4791740000000  0.4365240000000  0.5541160000000 1.0
C      1  0.4293530000000  0.5012910000000  0.5573390000000 1.0
C      1  0.4773140000000  0.5689680000000  0.5602910000000 1.0
C      1  0.5555640000000  0.5400490000000  0.5546740000000 1.0
C      1  0.5549990000000  0.4649590000000  0.5568060000000 1.0
C      1  0.4817660000000  0.4328730000000  0.4389000000000 1.0
C      1  0.4292390000000  0.4970270000000  0.4427430000000 1.0
C      1  0.4764940000000  0.5689740000000  0.4429280000000 1.0
C      1  0.5644630000000  0.5393960000000  0.4400040000000 1.0
C      1  0.5560070000000  0.4589350000000  0.4435180000000 1.0
C      1  0.5722790000000  0.4924100000000  0.5913000000000 1.0
C      1  0.5160600000000  0.4333440000000  0.5859300000000 1.0
C      1  0.4470530000000  0.4685780000000  0.5821210000000 1.0
C      1  0.4511260000000  0.5430990000000  0.5845600000000 1.0
C      1  0.5243550000000  0.5609920000000  0.5834320000000 1.0
C      1  0.5667710000000  0.4950370000000  0.4153970000000 1.0
C      1  0.5202060000000  0.4298170000000  0.4082940000000 1.0
C      1  0.4433470000000  0.4624750000000  0.4142640000000 1.0
C      1  0.4517290000000  0.5392310000000  0.4187500000000 1.0
C      1  0.5233520000000  0.5534160000000  0.4197920000000 1.0
C      1  0.5374210000000  0.4715310000000  0.3848610000000 1.0
C      1  0.4892510000000  0.4653390000000  0.3931230000000 1.0
C      1  0.4573300000000  0.5014800000000  0.3886900000000 1.0
C      1  0.4897960000000  0.5356990000000  0.3899860000000 1.0
C      1  0.5334640000000  0.5186020000000  0.3885250000000 1.0
C      1  0.5324640000000  0.4707060000000  0.6134100000000 1.0
C      1  0.4843420000000  0.4602300000000  0.6133790000000 1.0
C      1  0.4627420000000  0.5026850000000  0.6120550000000 1.0
C      1  0.4908170000000  0.5411330000000  0.6145210000000 1.0
C      1  0.5327040000000  0.5195490000000  0.6087800000000 1.0
C      1  0.4718580000000  0.6101090000000  0.5307640000000 1.0
C      1  0.5966440000000  0.5570430000000  0.5339330000000 1.0
C      1  0.5740720000000  0.4315190000000  0.5251300000000 1.0
C      1  0.4560010000000  0.3978740000000  0.5315060000000 1.0
C      1  0.3889720000000  0.5095970000000  0.5333390000000 1.0
C      1  0.4746170000000  0.6139650000000  0.4683570000000 1.0
C      1  0.5976590000000  0.5568410000000  0.4728990000000 1.0
C      1  0.5792970000000  0.4236950000000  0.4682360000000 1.0
C      1  0.4571300000000  0.3979880000000  0.4699900000000 1.0
C      1  0.3905140000000  0.5124840000000  0.4747510000000 1.0
C      1  0.5477840000000  0.4946640000000  0.5542540000000 1.0
C      1  0.5035660000000  0.4581700000000  0.5495890000000 1.0
C      1  0.4564730000000  0.4938940000000  0.5480670000000 1.0
C      1  0.4722550000000  0.5361710000000  0.5392230000000 1.0
C      1  0.5272750000000  0.5343290000000  0.5483080000000 1.0
C      1  0.5416900000000  0.4839140000000  0.4493720000000 1.0
C      1  0.5053140000000  0.4512210000000  0.4451320000000 1.0
C      1  0.4567810000000  0.4833210000000  0.4518670000000 1.0
C      1  0.4778360000000  0.5413520000000  0.4536810000000 1.0
C      1  0.5228460000000  0.5374440000000  0.4674390000000 1.0
C      1  0.4515150000000  0.4439950000000  0.5645820000000 1.0
C      1  0.4281150000000  0.5306760000000  0.5676550000000 1.0
C      1  0.5050830000000  0.5798870000000  0.5679190000000 1.0
C      1  0.5724800000000  0.5124710000000  0.5663770000000 1.0
C      1  0.5291000000000  0.4423740000000  0.5596030000000 1.0
C      1  0.4527420000000  0.4496690000000  0.4401050000000 1.0
C      1  0.4290040000000  0.5270720000000  0.4353120000000 1.0
C      1  0.5046410000000  0.5762150000000  0.4324380000000 1.0
C      1  0.5816960000000  0.5175000000000  0.4310200000000 1.0
C      1  0.5329340000000  0.4356050000000  0.4363920000000 1.0
C      1  0.5127140000000  0.3991170000000  0.5362890000000 1.0
C      1  0.4090740000000  0.4528820000000  0.5381010000000 1.0
C      1  0.4245670000000  0.5744410000000  0.5420190000000 1.0
C      1  0.5449890000000  0.5890630000000  0.5345700000000 1.0
C      1  0.6034670000000  0.4833650000000  0.5385240000000 1.0
C      1  0.5145850000000  0.3927480000000  0.4553150000000 1.0
C      1  0.4053660000000  0.4493460000000  0.4593380000000 1.0
C      1  0.4260280000000  0.5731390000000  0.4590300000000 1.0
C      1  0.5448230000000  0.5893880000000  0.4602840000000 1.0
C      1  0.6034520000000  0.4826080000000  0.4617430000000 1.0
C      1  0.5687910000000  0.5477380000000  0.4688550000000 1.0
C      1  0.5679080000000  0.4513730000000  0.4715520000000 1.0
C      1  0.4786800000000  0.4189770000000  0.4682420000000 1.0
C      1  0.4138090000000  0.4942840000000  0.4712920000000 1.0
C      1  0.4676940000000  0.5848940000000  0.4703730000000 1.0
C      1  0.5685830000000  0.5477190000000  0.5274830000000 1.0
C      1  0.5644060000000  0.4598020000000  0.5278480000000 1.0
C      1  0.4732110000000  0.4225910000000  0.5265940000000 1.0
C      1  0.4157000000000  0.4958910000000  0.5297140000000 1.0
C      1  0.4670600000000  0.5801690000000  0.5317280000000 1.0
C      1  0.3670090000000  0.5000720000000  0.5189300000000 1.0
C      1  0.4573310000000  0.6258880000000  0.5129170000000 1.0
C      1  0.6074800000000  0.5773300000000  0.5181440000000 1.0
C      1  0.5960790000000  0.4249220000000  0.5092760000000 1.0
C      1  0.4594530000000  0.3761280000000  0.5142760000000 1.0
C      1  0.3708200000000  0.5051850000000  0.4929650000000 1.0
C      1  0.4613720000000  0.6302270000000  0.4867540000000 1.0
C      1  0.6056380000000  0.5758220000000  0.4915480000000 1.0
C      1  0.6014410000000  0.4169970000000  0.4841290000000 1.0
C      1  0.4608810000000  0.3766420000000  0.4875430000000 1.0
C      1  0.5501000000000  0.4961270000000  0.3897580000000 1.0
C      1  0.5160840000000  0.4544150000000  0.3919240000000 1.0
C      1  0.4643820000000  0.4777310000000  0.4009470000000 1.0
C      1  0.4634980000000  0.5278790000000  0.3939400000000 1.0
C      1  0.5168910000000  0.5406190000000  0.3933610000000 1.0
C      1  0.5469420000000  0.4943860000000  0.6078170000000 1.0
C      1  0.5105470000000  0.4557770000000  0.6042110000000 1.0
C      1  0.4612810000000  0.4750660000000  0.6080130000000 1.0
C      1  0.4658660000000  0.5302070000000  0.6081250000000 1.0
C      1  0.5182790000000  0.5444310000000  0.6094980000000 1.0
C      1  0.5175570000000  0.5282960000000  0.4370100000000 1.0
C      1  0.5292090000000  0.4987000000000  0.4272320000000 1.0
C      1  0.5039090000000  0.4777690000000  0.4269870000000 1.0
C      1  0.4817810000000  0.4950960000000  0.4379340000000 1.0
C      1  0.4858330000000  0.5242470000000  0.4316150000000 1.0
C      1  0.5114200000000  0.5267520000000  0.5707480000000 1.0
C      1  0.5230130000000  0.4990940000000  0.5738380000000 1.0
C      1  0.5000900000000  0.4808130000000  0.5688550000000 1.0
C      1  0.4740280000000  0.4952800000000  0.5713510000000 1.0
C      1  0.4810440000000  0.5258730000000  0.5670870000000 1.0
C      1  0.4171920000000  0.5406430000000  0.5082680000000 1.0
C      1  0.5368090000000  0.4212720000000  0.4921580000000 1.0
C      1  0.4260860000000  0.4219260000000  0.5008390000000 1.0
C      1  0.6088620000000  0.5194220000000  0.5039030000000 1.0
C      1  0.5108110000000  0.6002400000000  0.4998660000000 1.0
C      1  0.4970330000000  0.4977330000000  0.5178920000000 1.0
C      1  0.5021300000000  0.4874960000000  0.4704250000000 1.0
C      1  0.4857300000000  0.5037060000000  0.4894320000000 1.0
END
