TITL C-3578202-4305-111 -7.31458250546737e-07 125000 -1067.08871813922 0 0 173 (C1) n - 1
REM
REM in /home/bkarasulu/work/CARBON/AIRSS/Generating-Clusters/EDIP-Nigel-Params/with-SteepDescent/Higher-Symm/SD-CG/HFTN-CG
REM
REM
REM
REM
REM
REM ./C.cell (12c818d87b63d06a65506943cc24bca4)
REM
REM compiler GCC version 9.2.1 20190827 (Red Hat 9.2.1-1)
REM options -cpp -mtune=generic -march=x86-64 -g -O0 -fpre-include=/usr/include/finclude/math-vector-fortran.h
REM seed -580023296 -232127402 1691495633 907255267 672729429 -1591598691 1342442637 1924423642 -1385691894 407256767 -1457075229 -1651003735 1158851102 1941026006 1315909381 -1289340174 -25585579 -1764989970 -130377494 107454714 -779362920 -1407145820 -2112808593 -463264657 -1643265454 -1479038939 -1446555971 189231139 -465669806 -755336799 -621817853 1009446343 -993490863
REM
CELL 1.54180   50.00000   50.00000   50.00000   90.00000   90.00000   90.00000
LATT -1
SFAC C  
C      1  0.4814810000000  0.4987930000000  0.5506700000000 1.0
C      1  0.4781960000000  0.5564130000000  0.5008820000000 1.0
C      1  0.4740380000000  0.5046330000000  0.4400340000000 1.0
C      1  0.4764630000000  0.4363210000000  0.5033120000000 1.0
C      1  0.5241370000000  0.4985250000000  0.5634810000000 1.0
C      1  0.5223010000000  0.5558140000000  0.5008810000000 1.0
C      1  0.5215660000000  0.5020580000000  0.4452800000000 1.0
C      1  0.5202260000000  0.4413090000000  0.5047480000000 1.0
C      1  0.5830190000000  0.4380840000000  0.5375420000000 1.0
C      1  0.5796380000000  0.5403710000000  0.5557390000000 1.0
C      1  0.5822730000000  0.5618650000000  0.4594760000000 1.0
C      1  0.5798160000000  0.4617500000000  0.4445280000000 1.0
C      1  0.4187420000000  0.4456430000000  0.5374910000000 1.0
C      1  0.4204810000000  0.5389800000000  0.5602200000000 1.0
C      1  0.4188440000000  0.5597560000000  0.4629850000000 1.0
C      1  0.4220390000000  0.4611820000000  0.4397780000000 1.0
C      1  0.5249340000000  0.5196180000000  0.3892630000000 1.0
C      1  0.5279140000000  0.3818920000000  0.4805670000000 1.0
C      1  0.5281500000000  0.4812860000000  0.6086250000000 1.0
C      1  0.5198080000000  0.6064810000000  0.5135010000000 1.0
C      1  0.4712270000000  0.5178370000000  0.3876660000000 1.0
C      1  0.4737060000000  0.3834460000000  0.4800850000000 1.0
C      1  0.4770360000000  0.4863010000000  0.6069660000000 1.0
C      1  0.4636530000000  0.6168310000000  0.5296590000000 1.0
C      1  0.5117580000000  0.5424060000000  0.4002830000000 1.0
C      1  0.5164730000000  0.3917100000000  0.4558890000000 1.0
C      1  0.5142630000000  0.4558000000000  0.6041000000000 1.0
C      1  0.5089680000000  0.5997590000000  0.5401580000000 1.0
C      1  0.4831620000000  0.5425610000000  0.3958910000000 1.0
C      1  0.4879070000000  0.3967210000000  0.4591750000000 1.0
C      1  0.4856870000000  0.4590480000000  0.6023150000000 1.0
C      1  0.4806410000000  0.6012450000000  0.5455590000000 1.0
C      1  0.5201110000000  0.5160430000000  0.5405190000000 1.0
C      1  0.5156070000000  0.5282050000000  0.4960030000000 1.0
C      1  0.5177890000000  0.4870090000000  0.4712880000000 1.0
C      1  0.5184830000000  0.4684150000000  0.5154310000000 1.0
C      1  0.4875560000000  0.5064610000000  0.5215110000000 1.0
C      1  0.4874820000000  0.5327750000000  0.4856730000000 1.0
C      1  0.4744410000000  0.4868320000000  0.4642560000000 1.0
C      1  0.4740750000000  0.4642680000000  0.5107780000000 1.0
C      1  0.4754520000000  0.5343610000000  0.4419510000000 1.0
C      1  0.4734810000000  0.4344650000000  0.4736380000000 1.0
C      1  0.4678490000000  0.4740640000000  0.5527540000000 1.0
C      1  0.4659940000000  0.5524380000000  0.5256760000000 1.0
C      1  0.5360480000000  0.5264450000000  0.4472070000000 1.0
C      1  0.5288300000000  0.4418830000000  0.4778120000000 1.0
C      1  0.5320950000000  0.4708090000000  0.5564600000000 1.0
C      1  0.5339400000000  0.5550500000000  0.5263740000000 1.0
C      1  0.5507310000000  0.3980540000000  0.4882050000000 1.0
C      1  0.5546310000000  0.4826370000000  0.5949100000000 1.0
C      1  0.5482520000000  0.5977210000000  0.5083960000000 1.0
C      1  0.5511990000000  0.5156680000000  0.4006960000000 1.0
C      1  0.4472740000000  0.3951390000000  0.4846350000000 1.0
C      1  0.4513410000000  0.4929550000000  0.5946780000000 1.0
C      1  0.4463950000000  0.5990860000000  0.5172150000000 1.0
C      1  0.4449330000000  0.5169510000000  0.4022140000000 1.0
C      1  0.4793100000000  0.6102840000000  0.4477640000000 1.0
C      1  0.4913420000000  0.4420970000000  0.3979850000000 1.0
C      1  0.4804030000000  0.3939720000000  0.5500000000000 1.0
C      1  0.4857740000000  0.5591100000000  0.6102490000000 1.0
C      1  0.5077910000000  0.6068660000000  0.4410160000000 1.0
C      1  0.5205740000000  0.4473880000000  0.3979990000000 1.0
C      1  0.5075480000000  0.4035770000000  0.5482640000000 1.0
C      1  0.5163540000000  0.5614500000000  0.6085570000000 1.0
C      1  0.4932470000000  0.5458210000000  0.4604660000000 1.0
C      1  0.4847010000000  0.4592590000000  0.4603330000000 1.0
C      1  0.4818920000000  0.4488150000000  0.5452390000000 1.0
C      1  0.4813330000000  0.5494040000000  0.5507460000000 1.0
C      1  0.5218690000000  0.5511940000000  0.4523820000000 1.0
C      1  0.5146490000000  0.4583300000000  0.4574990000000 1.0
C      1  0.5132820000000  0.4472660000000  0.5479150000000 1.0
C      1  0.5145670000000  0.5463630000000  0.5492310000000 1.0
C      1  0.5463020000000  0.4895330000000  0.4828440000000 1.0
C      1  0.5473200000000  0.4785930000000  0.5129460000000 1.0
C      1  0.5478060000000  0.5128830000000  0.5269160000000 1.0
C      1  0.5449810000000  0.5183110000000  0.4941420000000 1.0
C      1  0.4469020000000  0.4910480000000  0.4744590000000 1.0
C      1  0.4467690000000  0.4760600000000  0.5056280000000 1.0
C      1  0.4565600000000  0.5105840000000  0.5142960000000 1.0
C      1  0.4525750000000  0.5209740000000  0.4854230000000 1.0
C      1  0.4796860000000  0.5305480000000  0.6037090000000 1.0
C      1  0.4762040000000  0.6108020000000  0.4767690000000 1.0
C      1  0.4782380000000  0.4681180000000  0.3941060000000 1.0
C      1  0.4737830000000  0.3828150000000  0.5242930000000 1.0
C      1  0.5235660000000  0.5352170000000  0.5985260000000 1.0
C      1  0.5226490000000  0.6041710000000  0.4665770000000 1.0
C      1  0.5255280000000  0.4752460000000  0.3917770000000 1.0
C      1  0.5226270000000  0.3894580000000  0.5280280000000 1.0
C      1  0.5776180000000  0.5575990000000  0.5315090000000 1.0
C      1  0.5802250000000  0.5382530000000  0.4390530000000 1.0
C      1  0.5762060000000  0.4397490000000  0.4651010000000 1.0
C      1  0.5805220000000  0.4614640000000  0.5561850000000 1.0
C      1  0.4194820000000  0.5600930000000  0.5379790000000 1.0
C      1  0.4212450000000  0.5389490000000  0.4413360000000 1.0
C      1  0.4219890000000  0.4433650000000  0.4630550000000 1.0
C      1  0.4236860000000  0.4701630000000  0.5544260000000 1.0
C      1  0.3959090000000  0.5242650000000  0.5085600000000 1.0
C      1  0.3957930000000  0.5081460000000  0.4735780000000 1.0
C      1  0.4053950000000  0.4854030000000  0.4893690000000 1.0
C      1  0.4015640000000  0.4966360000000  0.5161360000000 1.0
C      1  0.5999020000000  0.5185650000000  0.5040830000000 1.0
C      1  0.6041470000000  0.5103600000000  0.4761110000000 1.0
C      1  0.6011600000000  0.4754610000000  0.4920780000000 1.0
C      1  0.5958440000000  0.4919330000000  0.5155970000000 1.0
C      1  0.5550580000000  0.4609620000000  0.5738310000000 1.0
C      1  0.5525200000000  0.5776760000000  0.5323030000000 1.0
C      1  0.5529620000000  0.5357150000000  0.4241490000000 1.0
C      1  0.5493840000000  0.4223420000000  0.4687990000000 1.0
C      1  0.4476400000000  0.4701520000000  0.5740230000000 1.0
C      1  0.4462930000000  0.5738360000000  0.5344140000000 1.0
C      1  0.4379530000000  0.5433480000000  0.4157220000000 1.0
C      1  0.4454080000000  0.4209210000000  0.4665120000000 1.0
C      1  0.5696660000000  0.4619070000000  0.4164900000000 1.0
C      1  0.5708780000000  0.4108930000000  0.5396560000000 1.0
C      1  0.5671490000000  0.5508590000000  0.5788410000000 1.0
C      1  0.5708990000000  0.5882510000000  0.4583190000000 1.0
C      1  0.4357670000000  0.4507970000000  0.4173780000000 1.0
C      1  0.4330630000000  0.4204330000000  0.5421460000000 1.0
C      1  0.4325110000000  0.5406830000000  0.5861560000000 1.0
C      1  0.4302310000000  0.5874960000000  0.4643500000000 1.0
C      1  0.5659500000000  0.5447660000000  0.4798900000000 1.0
C      1  0.5664010000000  0.4872900000000  0.4559780000000 1.0
C      1  0.5668010000000  0.4514930000000  0.5151390000000 1.0
C      1  0.5690350000000  0.5119350000000  0.5509550000000 1.0
C      1  0.4330670000000  0.5469030000000  0.4867520000000 1.0
C      1  0.4295220000000  0.4900990000000  0.4462480000000 1.0
C      1  0.4287740000000  0.4508740000000  0.5090540000000 1.0
C      1  0.4377910000000  0.5202820000000  0.5419130000000 1.0
C      1  0.4758730000000  0.5809630000000  0.4242080000000 1.0
C      1  0.4892560000000  0.4318300000000  0.4257200000000 1.0
C      1  0.4817760000000  0.4139640000000  0.5825000000000 1.0
C      1  0.4826080000000  0.5827990000000  0.5899580000000 1.0
C      1  0.5049670000000  0.5856270000000  0.4209660000000 1.0
C      1  0.5184570000000  0.4374800000000  0.4326620000000 1.0
C      1  0.5106000000000  0.4131590000000  0.5758710000000 1.0
C      1  0.5138520000000  0.5849020000000  0.5877480000000 1.0
C      1  0.5506120000000  0.5314400000000  0.5905680000000 1.0
C      1  0.5475860000000  0.5901240000000  0.4767010000000 1.0
C      1  0.5503390000000  0.4852980000000  0.4058170000000 1.0
C      1  0.5485620000000  0.4018950000000  0.5184860000000 1.0
C      1  0.4556890000000  0.5222950000000  0.5871670000000 1.0
C      1  0.4508700000000  0.5966840000000  0.4870300000000 1.0
C      1  0.4542550000000  0.4707890000000  0.4107540000000 1.0
C      1  0.4484250000000  0.3965510000000  0.5150060000000 1.0
C      1  0.5258620000000  0.4373690000000  0.5835580000000 1.0
C      1  0.5249560000000  0.5825640000000  0.5588950000000 1.0
C      1  0.5244240000000  0.5615690000000  0.4212020000000 1.0
C      1  0.5338090000000  0.4133310000000  0.4439460000000 1.0
C      1  0.4714390000000  0.4417510000000  0.5822000000000 1.0
C      1  0.4701390000000  0.5781890000000  0.5625600000000 1.0
C      1  0.4677580000000  0.5523460000000  0.4191730000000 1.0
C      1  0.4717770000000  0.4128290000000  0.4406860000000 1.0
C      1  0.4090930000000  0.5119790000000  0.4479910000000 1.0
C      1  0.4101470000000  0.4560510000000  0.4870340000000 1.0
C      1  0.4223400000000  0.4942940000000  0.5372180000000 1.0
C      1  0.4159290000000  0.5448990000000  0.5119590000000 1.0
C      1  0.5838810000000  0.5125550000000  0.4554130000000 1.0
C      1  0.5849530000000  0.4514250000000  0.4909640000000 1.0
C      1  0.5866180000000  0.4884690000000  0.5436000000000 1.0
C      1  0.5806470000000  0.5410620000000  0.5066860000000 1.0
C      1  0.5424590000000  0.4314660000000  0.5210100000000 1.0
C      1  0.5511710000000  0.5062610000000  0.5760080000000 1.0
C      1  0.5391660000000  0.5613560000000  0.4775430000000 1.0
C      1  0.5429870000000  0.4841510000000  0.4352690000000 1.0
C      1  0.4546440000000  0.4249490000000  0.5217610000000 1.0
C      1  0.4651850000000  0.5222340000000  0.5586580000000 1.0
C      1  0.4567960000000  0.5668450000000  0.4845360000000 1.0
C      1  0.4500560000000  0.4964610000000  0.4240610000000 1.0
C      1  0.5052110000000  0.5113040000000  0.6063650000000 1.0
C      1  0.5037770000000  0.6074500000000  0.4882690000000 1.0
C      1  0.4987060000000  0.4911700000000  0.3902010000000 1.0
C      1  0.5007080000000  0.3814450000000  0.5076940000000 1.0
C      1  0.4957500000000  0.4834810000000  0.5030120000000 1.0
END
