TITL C-3578208-4450-697 -5.8960945073973e-07 125000 -138.405083091847 0 0 23 (D3) n - 1
REM
REM in /home/bkarasulu/work/CARBON/AIRSS/Generating-Clusters/EDIP-Nigel-Params/with-SteepDescent/Higher-Symm/SD-CG/HFTN-CG
REM
REM
REM
REM
REM
REM ./C.cell (12c818d87b63d06a65506943cc24bca4)
REM
REM compiler GCC version 9.2.1 20190827 (Red Hat 9.2.1-1)
REM options -cpp -mtune=generic -march=x86-64 -g -O0 -fpre-include=/usr/include/finclude/math-vector-fortran.h
REM seed 968396453 985749505 -224915454 174266964 -452254070 -974681520 -1735305380 413092656 -468773130 605003029 74288387 -1198878965 696218106 1144586736 1807348399 1801524378 1556845118 -1450125353 -1314630035 1167460395 346545685 255804732 433197045 563270253 -1716059012 -1119688534 1579630884 -564760368 -720428308 1460999652 -10133888 1379114297 -255704832
REM
CELL 1.54180   50.00000   50.00000   50.00000   90.00000   90.00000   90.00000
LATT -1
SFAC C  
C      1  0.4796280000000  0.4835600000000  0.5339560000000 1.0
C      1  0.4959300000000  0.5277040000000  0.5337690000000 1.0
C      1  0.5259980000000  0.4915130000000  0.5329520000000 1.0
C      1  0.4770910000000  0.5174510000000  0.4604370000000 1.0
C      1  0.4957110000000  0.4742370000000  0.4598470000000 1.0
C      1  0.5238180000000  0.5119770000000  0.4593710000000 1.0
C      1  0.5440280000000  0.4831110000000  0.5137200000000 1.0
C      1  0.4626420000000  0.4718920000000  0.5154930000000 1.0
C      1  0.4936280000000  0.5480000000000  0.5151060000000 1.0
C      1  0.5422110000000  0.5213490000000  0.4777940000000 1.0
C      1  0.4603450000000  0.5282200000000  0.4796500000000 1.0
C      1  0.4953230000000  0.4538690000000  0.4785700000000 1.0
C      1  0.5173670000000  0.5566580000000  0.5039690000000 1.0
C      1  0.5392590000000  0.4580770000000  0.5030840000000 1.0
C      1  0.4429590000000  0.4883970000000  0.5053560000000 1.0
C      1  0.5199600000000  0.4465000000000  0.4886330000000 1.0
C      1  0.5365940000000  0.5461070000000  0.4886610000000 1.0
C      1  0.4420370000000  0.5107040000000  0.4906310000000 1.0
C      1  0.5518390000000  0.5024620000000  0.4955630000000 1.0
C      1  0.4724260000000  0.5455470000000  0.4975100000000 1.0
C      1  0.4748230000000  0.4552110000000  0.4970930000000 1.0
C      1  0.4987590000000  0.5012420000000  0.4547670000000 1.0
C      1  0.5006330000000  0.5009050000000  0.5386770000000 1.0
END
