TITL C-3577078-809-663 -1.45841556987481e-06 125000 -883.053032344504 0 0 140 (C1) n - 1
REM
REM in /home/bkarasulu/work/CARBON/AIRSS/Generating-Clusters/EDIP-Nigel-Params/with-SteepDescent/Higher-Symm/SD-CG/HFTN-CG
REM
REM
REM
REM
REM
REM ./C.cell (12c818d87b63d06a65506943cc24bca4)
REM
REM compiler GCC version 9.2.1 20190827 (Red Hat 9.2.1-1)
REM options -cpp -mtune=generic -march=x86-64 -g -O0 -fpre-include=/usr/include/finclude/math-vector-fortran.h
REM seed -989911982 -930802016 -1996406547 303873675 -1992341749 -1717005305 166121134 -170903997 -587745091 2023710039 -190020476 21139316 -1422792019 -1973898412 1781274586 352057478 50266671 -1438630071 598195195 -966516709 -1088347903 1212139731 -700486553 -2037690010 2135649310 -1180375639 -1258183736 1636078836 -1829175438 -996543183 410220267 -177770613 66244763
REM
CELL 1.54180   50.00000   50.00000   50.00000   90.00000   90.00000   90.00000
LATT -1
SFAC C  
C      1  0.5624500000000  0.5624360000000  0.5355600000000 1.0
C      1  0.4368840000000  0.5618640000000  0.5433210000000 1.0
C      1  0.5052200000000  0.5601780000000  0.4123540000000 1.0
C      1  0.5871870000000  0.4674260000000  0.5200040000000 1.0
C      1  0.4415410000000  0.4689740000000  0.5651240000000 1.0
C      1  0.4758990000000  0.4669870000000  0.4130890000000 1.0
C      1  0.4793480000000  0.4530110000000  0.5170270000000 1.0
C      1  0.4948650000000  0.4550050000000  0.4693050000000 1.0
C      1  0.5296990000000  0.4521860000000  0.5075960000000 1.0
C      1  0.4235970000000  0.4362720000000  0.4816400000000 1.0
C      1  0.5537920000000  0.4340940000000  0.4445730000000 1.0
C      1  0.5229210000000  0.4326360000000  0.5721220000000 1.0
C      1  0.4778960000000  0.4081920000000  0.4801270000000 1.0
C      1  0.5261130000000  0.4106560000000  0.4925340000000 1.0
C      1  0.4936270000000  0.4067150000000  0.5289300000000 1.0
C      1  0.4616550000000  0.5808630000000  0.4327270000000 1.0
C      1  0.5681910000000  0.5830310000000  0.4886590000000 1.0
C      1  0.4780770000000  0.5837910000000  0.5729950000000 1.0
C      1  0.4633740000000  0.4300340000000  0.5589520000000 1.0
C      1  0.4673790000000  0.4294360000000  0.4372360000000 1.0
C      1  0.5678720000000  0.4305870000000  0.5027640000000 1.0
C      1  0.4150140000000  0.4772360000000  0.5212530000000 1.0
C      1  0.5259720000000  0.4755500000000  0.4168010000000 1.0
C      1  0.5620620000000  0.4736540000000  0.5638230000000 1.0
C      1  0.5442150000000  0.5504740000000  0.5576800000000 1.0
C      1  0.4242370000000  0.5554140000000  0.5168430000000 1.0
C      1  0.5330290000000  0.5519060000000  0.4203800000000 1.0
C      1  0.4366830000000  0.4955980000000  0.5745830000000 1.0
C      1  0.4735110000000  0.4947410000000  0.4080880000000 1.0
C      1  0.5924510000000  0.4954350000000  0.5199260000000 1.0
C      1  0.4356630000000  0.5690650000000  0.4710760000000 1.0
C      1  0.5513560000000  0.5656890000000  0.4512710000000 1.0
C      1  0.5239900000000  0.5659840000000  0.5764500000000 1.0
C      1  0.5056960000000  0.5879460000000  0.5631440000000 1.0
C      1  0.4569770000000  0.5870310000000  0.4611490000000 1.0
C      1  0.5537170000000  0.5913420000000  0.4654870000000 1.0
C      1  0.5750470000000  0.5002560000000  0.5666050000000 1.0
C      1  0.4070130000000  0.5038070000000  0.5327530000000 1.0
C      1  0.5223220000000  0.5012740000000  0.4028950000000 1.0
C      1  0.4285740000000  0.5488410000000  0.4504790000000 1.0
C      1  0.5763160000000  0.5485060000000  0.4551500000000 1.0
C      1  0.5053830000000  0.5462520000000  0.5895410000000 1.0
C      1  0.5115740000000  0.4098100000000  0.4440290000000 1.0
C      1  0.5421760000000  0.4095520000000  0.5396310000000 1.0
C      1  0.4460820000000  0.4136550000000  0.5169420000000 1.0
C      1  0.5891360000000  0.5397520000000  0.5020920000000 1.0
C      1  0.4582600000000  0.5399620000000  0.5795800000000 1.0
C      1  0.4585840000000  0.5373370000000  0.4120290000000 1.0
C      1  0.5614990000000  0.5421030000000  0.5132270000000 1.0
C      1  0.4596270000000  0.5431210000000  0.5494250000000 1.0
C      1  0.4844540000000  0.5432270000000  0.4270280000000 1.0
C      1  0.5136170000000  0.5239820000000  0.5017360000000 1.0
C      1  0.5031440000000  0.5242170000000  0.5301430000000 1.0
C      1  0.4820510000000  0.5226010000000  0.4803660000000 1.0
C      1  0.5054880000000  0.4052030000000  0.4718780000000 1.0
C      1  0.5212570000000  0.4021230000000  0.5208540000000 1.0
C      1  0.4730100000000  0.4098660000000  0.5083870000000 1.0
C      1  0.4222500000000  0.4824460000000  0.4903810000000 1.0
C      1  0.5480220000000  0.4814900000000  0.4377150000000 1.0
C      1  0.5326010000000  0.4789280000000  0.5710110000000 1.0
C      1  0.5290750000000  0.4402630000000  0.4601920000000 1.0
C      1  0.5184730000000  0.4400520000000  0.5422390000000 1.0
C      1  0.4500600000000  0.4446900000000  0.4941780000000 1.0
C      1  0.4960420000000  0.4312830000000  0.4327710000000 1.0
C      1  0.5598130000000  0.4307670000000  0.5305630000000 1.0
C      1  0.4450290000000  0.4339910000000  0.5368260000000 1.0
C      1  0.5860400000000  0.4997420000000  0.4708800000000 1.0
C      1  0.4851700000000  0.4983110000000  0.5890270000000 1.0
C      1  0.4327510000000  0.4996620000000  0.4377980000000 1.0
C      1  0.4932200000000  0.4595840000000  0.5455660000000 1.0
C      1  0.4632640000000  0.4597760000000  0.4691290000000 1.0
C      1  0.5441190000000  0.4597300000000  0.4795600000000 1.0
C      1  0.4443400000000  0.5143470000000  0.5114000000000 1.0
C      1  0.5266850000000  0.5253950000000  0.4474420000000 1.0
C      1  0.5326880000000  0.5230660000000  0.5464320000000 1.0
C      1  0.4539440000000  0.5150990000000  0.5398000000000 1.0
C      1  0.4991810000000  0.5174350000000  0.4362290000000 1.0
C      1  0.5538290000000  0.5157500000000  0.5249230000000 1.0
C      1  0.5957640000000  0.5110830000000  0.4957400000000 1.0
C      1  0.4588350000000  0.5107780000000  0.5874470000000 1.0
C      1  0.4496400000000  0.5091260000000  0.4152860000000 1.0
C      1  0.5543780000000  0.5850170000000  0.5171530000000 1.0
C      1  0.4530950000000  0.5872770000000  0.5473650000000 1.0
C      1  0.4901700000000  0.5817100000000  0.4245850000000 1.0
C      1  0.4197170000000  0.5110740000000  0.5576480000000 1.0
C      1  0.4956240000000  0.5095350000000  0.3984110000000 1.0
C      1  0.5875570000000  0.5102450000000  0.5432840000000 1.0
C      1  0.4574350000000  0.5309280000000  0.4921020000000 1.0
C      1  0.5286270000000  0.5500640000000  0.4941790000000 1.0
C      1  0.4872440000000  0.5510470000000  0.5326240000000 1.0
C      1  0.5049620000000  0.4117870000000  0.5784070000000 1.0
C      1  0.4291150000000  0.4150460000000  0.4642080000000 1.0
C      1  0.5665410000000  0.4130290000000  0.4577590000000 1.0
C      1  0.4631580000000  0.4531540000000  0.5764950000000 1.0
C      1  0.4541200000000  0.4532860000000  0.4272290000000 1.0
C      1  0.5843940000000  0.4531420000000  0.4949390000000 1.0
C      1  0.4652340000000  0.5963700000000  0.5222920000000 1.0
C      1  0.4800970000000  0.5847010000000  0.4791280000000 1.0
C      1  0.5248130000000  0.5797010000000  0.5131550000000 1.0
C      1  0.4344800000000  0.4700700000000  0.4447920000000 1.0
C      1  0.5806480000000  0.4696000000000  0.4694240000000 1.0
C      1  0.4885890000000  0.4685210000000  0.5835020000000 1.0
C      1  0.5176750000000  0.4577860000000  0.5862690000000 1.0
C      1  0.4165970000000  0.4616940000000  0.4690540000000 1.0
C      1  0.5683650000000  0.4596470000000  0.4427050000000 1.0
C      1  0.5738630000000  0.5189630000000  0.4528730000000 1.0
C      1  0.5072550000000  0.5169210000000  0.5872900000000 1.0
C      1  0.4237500000000  0.5198380000000  0.4570610000000 1.0
C      1  0.5343190000000  0.4880130000000  0.4684460000000 1.0
C      1  0.5146940000000  0.4830910000000  0.5446860000000 1.0
C      1  0.4571380000000  0.4865040000000  0.4877140000000 1.0
C      1  0.5325910000000  0.5042900000000  0.5860790000000 1.0
C      1  0.4111670000000  0.5101360000000  0.4822680000000 1.0
C      1  0.5616600000000  0.5068950000000  0.4297560000000 1.0
C      1  0.4747730000000  0.4818620000000  0.5120380000000 1.0
C      1  0.5047680000000  0.4828500000000  0.4685510000000 1.0
C      1  0.5283230000000  0.4794890000000  0.5189410000000 1.0
C      1  0.4786350000000  0.5584940000000  0.5896230000000 1.0
C      1  0.4425960000000  0.5578150000000  0.4255270000000 1.0
C      1  0.5864130000000  0.5596760000000  0.4807120000000 1.0
C      1  0.5105760000000  0.5696240000000  0.5391290000000 1.0
C      1  0.4463050000000  0.5578770000000  0.4966040000000 1.0
C      1  0.5289530000000  0.5507410000000  0.4640920000000 1.0
C      1  0.4866500000000  0.4127750000000  0.5566500000000 1.0
C      1  0.4573190000000  0.4165510000000  0.4608930000000 1.0
C      1  0.5550570000000  0.4134130000000  0.4837830000000 1.0
C      1  0.4810420000000  0.5003290000000  0.5352780000000 1.0
C      1  0.4863970000000  0.5036160000000  0.4595490000000 1.0
C      1  0.5359630000000  0.5024000000000  0.5021140000000 1.0
C      1  0.5558610000000  0.5196010000000  0.5781390000000 1.0
C      1  0.4145670000000  0.5238410000000  0.5105900000000 1.0
C      1  0.5425210000000  0.5220500000000  0.4120580000000 1.0
C      1  0.5026460000000  0.4559760000000  0.4173990000000 1.0
C      1  0.5719890000000  0.4554110000000  0.5420460000000 1.0
C      1  0.4294650000000  0.4588240000000  0.5404170000000 1.0
C      1  0.5116830000000  0.6064520000000  0.5065200000000 1.0
C      1  0.4887810000000  0.6126530000000  0.5224230000000 1.0
C      1  0.4971300000000  0.6065820000000  0.4827860000000 1.0
C      1  0.4708780000000  0.5730980000000  0.5052650000000 1.0
C      1  0.5015010000000  0.4414310000000  0.4968100000000 1.0
END
