TITL C-3578195-8548-673 -7.63448748641628e-07 125000 -671.061403761748 0 0 105 (C1) n - 1
REM
REM in /home/bkarasulu/work/CARBON/AIRSS/Generating-Clusters/EDIP-Nigel-Params/with-SteepDescent/Higher-Symm/SD-CG/HFTN-CG
REM
REM
REM
REM
REM
REM ./C.cell (12c818d87b63d06a65506943cc24bca4)
REM
REM compiler GCC version 9.2.1 20190827 (Red Hat 9.2.1-1)
REM options -cpp -mtune=generic -march=x86-64 -g -O0 -fpre-include=/usr/include/finclude/math-vector-fortran.h
REM seed -1876697161 -1396737759 1267658773 993887669 720116346 -395400590 -261139396 1563151596 1253090746 -713460120 392998184 1116436381 -85460794 1963937340 472376995 -1700942159 -1564323618 492045241 -1720834804 -1702671662 -1089818525 -335654718 930383174 1297789918 -984140610 -141912031 35574510 -788537867 -1257780998 302455157 1764402974 -1121899548 -2017417806
REM
CELL 1.54180   50.00000   50.00000   50.00000   90.00000   90.00000   90.00000
LATT -1
SFAC C  
C      1  0.5121690000000  0.5315310000000  0.4352520000000 1.0
C      1  0.5683660000000  0.5340980000000  0.4926300000000 1.0
C      1  0.5301850000000  0.5399080000000  0.5647140000000 1.0
C      1  0.4466080000000  0.5561440000000  0.5538600000000 1.0
C      1  0.4322850000000  0.5466850000000  0.4628940000000 1.0
C      1  0.5590560000000  0.5479130000000  0.5611540000000 1.0
C      1  0.4617100000000  0.5500770000000  0.5799180000000 1.0
C      1  0.4181610000000  0.5448770000000  0.4881860000000 1.0
C      1  0.4895080000000  0.5409310000000  0.4183400000000 1.0
C      1  0.5744230000000  0.5422460000000  0.4636690000000 1.0
C      1  0.4838350000000  0.5015640000000  0.5290270000000 1.0
C      1  0.4720850000000  0.5090250000000  0.4967530000000 1.0
C      1  0.5020820000000  0.5086050000000  0.4826880000000 1.0
C      1  0.5233100000000  0.5146520000000  0.5035300000000 1.0
C      1  0.5149110000000  0.5131850000000  0.5322910000000 1.0
C      1  0.4840670000000  0.4519690000000  0.5471470000000 1.0
C      1  0.4486700000000  0.4491140000000  0.4994560000000 1.0
C      1  0.4821850000000  0.4498590000000  0.4481990000000 1.0
C      1  0.5408230000000  0.4526390000000  0.4658100000000 1.0
C      1  0.5396710000000  0.4531170000000  0.5265010000000 1.0
C      1  0.4954130000000  0.5859450000000  0.5256390000000 1.0
C      1  0.4744180000000  0.5841350000000  0.5038840000000 1.0
C      1  0.4884400000000  0.5801840000000  0.4780590000000 1.0
C      1  0.5173540000000  0.5805160000000  0.4830330000000 1.0
C      1  0.5218990000000  0.5836160000000  0.5120890000000 1.0
C      1  0.5011930000000  0.4122690000000  0.4720090000000 1.0
C      1  0.5240440000000  0.4141170000000  0.4910760000000 1.0
C      1  0.5135760000000  0.4129230000000  0.5190390000000 1.0
C      1  0.4837670000000  0.4119180000000  0.5174830000000 1.0
C      1  0.4755620000000  0.4105730000000  0.4881490000000 1.0
C      1  0.4530720000000  0.5172240000000  0.4287820000000 1.0
C      1  0.5569130000000  0.5188110000000  0.4243050000000 1.0
C      1  0.5866990000000  0.5218160000000  0.5310960000000 1.0
C      1  0.4984350000000  0.5213840000000  0.5918860000000 1.0
C      1  0.4245010000000  0.5212990000000  0.5273230000000 1.0
C      1  0.4894300000000  0.4673860000000  0.4729060000000 1.0
C      1  0.5181460000000  0.4730930000000  0.4806590000000 1.0
C      1  0.5188120000000  0.4692420000000  0.5110660000000 1.0
C      1  0.4907080000000  0.4714230000000  0.5222750000000 1.0
C      1  0.4745820000000  0.4647570000000  0.4981190000000 1.0
C      1  0.4711300000000  0.5212410000000  0.5818750000000 1.0
C      1  0.4188760000000  0.5182100000000  0.4997990000000 1.0
C      1  0.4751980000000  0.5157990000000  0.4106480000000 1.0
C      1  0.5769080000000  0.5175610000000  0.4464640000000 1.0
C      1  0.5688930000000  0.5205280000000  0.5546960000000 1.0
C      1  0.5299500000000  0.4376630000000  0.4422940000000 1.0
C      1  0.5600720000000  0.4397000000000  0.5095220000000 1.0
C      1  0.5071900000000  0.4382390000000  0.5600140000000 1.0
C      1  0.4428970000000  0.4350330000000  0.5256570000000 1.0
C      1  0.4557800000000  0.4356620000000  0.4515370000000 1.0
C      1  0.5058710000000  0.5360850000000  0.4641490000000 1.0
C      1  0.5391380000000  0.5395490000000  0.4977920000000 1.0
C      1  0.5164380000000  0.5434660000000  0.5395740000000 1.0
C      1  0.4670120000000  0.5490010000000  0.5347470000000 1.0
C      1  0.4620640000000  0.5389000000000  0.4866020000000 1.0
C      1  0.5182100000000  0.4923300000000  0.4042250000000 1.0
C      1  0.5903400000000  0.4961920000000  0.4872570000000 1.0
C      1  0.5398890000000  0.4963490000000  0.5820520000000 1.0
C      1  0.4348450000000  0.4966830000000  0.5674250000000 1.0
C      1  0.4272550000000  0.4947600000000  0.4599020000000 1.0
C      1  0.5354490000000  0.5582040000000  0.5211090000000 1.0
C      1  0.4918920000000  0.5614550000000  0.5441030000000 1.0
C      1  0.4573740000000  0.5593070000000  0.5089850000000 1.0
C      1  0.4812070000000  0.5533430000000  0.4660480000000 1.0
C      1  0.5282150000000  0.5538690000000  0.4741750000000 1.0
C      1  0.5391140000000  0.4470850000000  0.4174400000000 1.0
C      1  0.5851940000000  0.4520560000000  0.5101900000000 1.0
C      1  0.5159620000000  0.4505250000000  0.5835910000000 1.0
C      1  0.4248250000000  0.4489050000000  0.5423270000000 1.0
C      1  0.4346130000000  0.4472660000000  0.4371620000000 1.0
C      1  0.5448090000000  0.4997060000000  0.5532040000000 1.0
C      1  0.4634350000000  0.4985400000000  0.5617570000000 1.0
C      1  0.4357370000000  0.4973060000000  0.4870510000000 1.0
C      1  0.4917480000000  0.4917540000000  0.4140520000000 1.0
C      1  0.5754160000000  0.4937740000000  0.4635870000000 1.0
C      1  0.5027490000000  0.4275370000000  0.4460620000000 1.0
C      1  0.5484390000000  0.4301970000000  0.4847710000000 1.0
C      1  0.5265940000000  0.4296190000000  0.5403980000000 1.0
C      1  0.4679260000000  0.4276730000000  0.5375410000000 1.0
C      1  0.4510820000000  0.4261560000000  0.4788210000000 1.0
C      1  0.4744090000000  0.4709150000000  0.5694840000000 1.0
C      1  0.4280440000000  0.4712450000000  0.4996620000000 1.0
C      1  0.4772380000000  0.4671890000000  0.4224610000000 1.0
C      1  0.5648070000000  0.4681510000000  0.4530880000000 1.0
C      1  0.5558460000000  0.4724540000000  0.5435490000000 1.0
C      1  0.4451470000000  0.5436820000000  0.4372310000000 1.0
C      1  0.5393040000000  0.5421660000000  0.4288410000000 1.0
C      1  0.5821760000000  0.5471220000000  0.5164690000000 1.0
C      1  0.5116140000000  0.5478640000000  0.5869550000000 1.0
C      1  0.4215920000000  0.5486540000000  0.5379840000000 1.0
C      1  0.4201930000000  0.4728720000000  0.5281310000000 1.0
C      1  0.4470960000000  0.4692710000000  0.4240560000000 1.0
C      1  0.5554750000000  0.4692590000000  0.4247110000000 1.0
C      1  0.5812660000000  0.4737590000000  0.5282230000000 1.0
C      1  0.4985610000000  0.4727340000000  0.5863870000000 1.0
C      1  0.4234440000000  0.4975570000000  0.5426020000000 1.0
C      1  0.4365740000000  0.4948100000000  0.4338200000000 1.0
C      1  0.5422700000000  0.4939770000000  0.4186370000000 1.0
C      1  0.5834450000000  0.4984430000000  0.5142140000000 1.0
C      1  0.5122850000000  0.4976450000000  0.5830860000000 1.0
C      1  0.5496790000000  0.5559770000000  0.4533560000000 1.0
C      1  0.5621840000000  0.5619410000000  0.5342850000000 1.0
C      1  0.4889170000000  0.5644670000000  0.5750750000000 1.0
C      1  0.4264430000000  0.5629420000000  0.5110130000000 1.0
C      1  0.4711810000000  0.5569010000000  0.4371810000000 1.0
END
