TITL C-3578208-4450-13 -1.01220434539895e-06 125000 -700.150358525777 0 0 113 (C1) n - 1
REM
REM in /home/bkarasulu/work/CARBON/AIRSS/Generating-Clusters/EDIP-Nigel-Params/with-SteepDescent/Higher-Symm/SD-CG/HFTN-CG
REM
REM
REM
REM
REM
REM ./C.cell (12c818d87b63d06a65506943cc24bca4)
REM
REM compiler GCC version 9.2.1 20190827 (Red Hat 9.2.1-1)
REM options -cpp -mtune=generic -march=x86-64 -g -O0 -fpre-include=/usr/include/finclude/math-vector-fortran.h
REM seed -1613032072 471192494 -1916859864 -1786207878 254906986 354176405 -128027137 1856433246 -1584374643 52495521 1159501781 -246125886 1925517537 -409475033 860095963 -2006410991 844249141 122930026 594858567 -1846274301 1956613044 -1345219157 770224261 1603412669 -1239815058 -2076359785 1482041547 117291696 363632789 -298714546 -1089559673 -1627963895 595453840
REM
CELL 1.54180   50.00000   50.00000   50.00000   90.00000   90.00000   90.00000
LATT -1
SFAC C  
C      1  0.5575220000000  0.4606910000000  0.4799120000000 1.0
C      1  0.5012940000000  0.4633830000000  0.4423270000000 1.0
C      1  0.4442070000000  0.4633620000000  0.4846570000000 1.0
C      1  0.4620380000000  0.4617670000000  0.5522530000000 1.0
C      1  0.5345680000000  0.4610630000000  0.5495220000000 1.0
C      1  0.4508790000000  0.5785890000000  0.5242610000000 1.0
C      1  0.5137800000000  0.5686450000000  0.5601510000000 1.0
C      1  0.5443520000000  0.5684130000000  0.5110870000000 1.0
C      1  0.5159000000000  0.5701170000000  0.4497920000000 1.0
C      1  0.4595430000000  0.5713510000000  0.4614680000000 1.0
C      1  0.5750360000000  0.4518690000000  0.5261150000000 1.0
C      1  0.5488700000000  0.4646730000000  0.4292720000000 1.0
C      1  0.4495770000000  0.4667200000000  0.4362100000000 1.0
C      1  0.4233880000000  0.4503570000000  0.5271680000000 1.0
C      1  0.5021090000000  0.4628470000000  0.5877180000000 1.0
C      1  0.5666470000000  0.5210340000000  0.5114770000000 1.0
C      1  0.5295910000000  0.5155170000000  0.4209520000000 1.0
C      1  0.4310040000000  0.5223570000000  0.4448360000000 1.0
C      1  0.4326380000000  0.5244570000000  0.5394180000000 1.0
C      1  0.5220430000000  0.5160540000000  0.5841500000000 1.0
C      1  0.5642980000000  0.5332970000000  0.4840490000000 1.0
C      1  0.5021280000000  0.5272560000000  0.4213850000000 1.0
C      1  0.4205510000000  0.5381200000000  0.4668180000000 1.0
C      1  0.4533440000000  0.5375900000000  0.5544280000000 1.0
C      1  0.5431160000000  0.5268870000000  0.5678140000000 1.0
C      1  0.4152410000000  0.4679360000000  0.4873060000000 1.0
C      1  0.4539550000000  0.4700730000000  0.5798320000000 1.0
C      1  0.5593330000000  0.4680500000000  0.5642010000000 1.0
C      1  0.5822770000000  0.4694970000000  0.4651020000000 1.0
C      1  0.4914850000000  0.4677730000000  0.4139620000000 1.0
C      1  0.5329990000000  0.4751330000000  0.4722910000000 1.0
C      1  0.4862860000000  0.4714980000000  0.4695820000000 1.0
C      1  0.4598450000000  0.4751340000000  0.5078070000000 1.0
C      1  0.4892540000000  0.4746640000000  0.5413860000000 1.0
C      1  0.5320080000000  0.4704630000000  0.5203910000000 1.0
C      1  0.4933950000000  0.4991040000000  0.4779100000000 1.0
C      1  0.4750820000000  0.5018140000000  0.5026980000000 1.0
C      1  0.4927490000000  0.5019940000000  0.5267570000000 1.0
C      1  0.5218180000000  0.4980340000000  0.5159380000000 1.0
C      1  0.5225200000000  0.4983330000000  0.4856750000000 1.0
C      1  0.5460340000000  0.5593700000000  0.4517230000000 1.0
C      1  0.4681590000000  0.5561240000000  0.4379560000000 1.0
C      1  0.4309600000000  0.5627100000000  0.5072050000000 1.0
C      1  0.4901180000000  0.5538050000000  0.5719180000000 1.0
C      1  0.5600000000000  0.5605730000000  0.5367430000000 1.0
C      1  0.5096110000000  0.4793020000000  0.3960230000000 1.0
C      1  0.4075280000000  0.4921290000000  0.4723870000000 1.0
C      1  0.4407700000000  0.4954640000000  0.5762320000000 1.0
C      1  0.5561250000000  0.4875450000000  0.5841610000000 1.0
C      1  0.5891380000000  0.4946220000000  0.4783610000000 1.0
C      1  0.4544880000000  0.5310700000000  0.4307800000000 1.0
C      1  0.4327530000000  0.5319860000000  0.5102010000000 1.0
C      1  0.4952350000000  0.5266500000000  0.5847250000000 1.0
C      1  0.5787340000000  0.5365050000000  0.5346370000000 1.0
C      1  0.5510310000000  0.5289650000000  0.4370910000000 1.0
C      1  0.5660320000000  0.5102750000000  0.5547280000000 1.0
C      1  0.5714680000000  0.5087810000000  0.4480650000000 1.0
C      1  0.4744190000000  0.5112200000000  0.4215760000000 1.0
C      1  0.4091510000000  0.5188730000000  0.4865830000000 1.0
C      1  0.4739640000000  0.5077830000000  0.5911230000000 1.0
C      1  0.5055230000000  0.5955270000000  0.4639510000000 1.0
C      1  0.4746610000000  0.5963350000000  0.4675910000000 1.0
C      1  0.4714840000000  0.5801610000000  0.5024620000000 1.0
C      1  0.5028350000000  0.5792920000000  0.5340560000000 1.0
C      1  0.5239970000000  0.5911610000000  0.5158970000000 1.0
C      1  0.4422350000000  0.4730770000000  0.5331740000000 1.0
C      1  0.5114970000000  0.4748470000000  0.5616250000000 1.0
C      1  0.5603850000000  0.4701470000000  0.5079090000000 1.0
C      1  0.5264300000000  0.4787340000000  0.4444810000000 1.0
C      1  0.4565350000000  0.4787630000000  0.4632320000000 1.0
C      1  0.5524190000000  0.4256800000000  0.5097990000000 1.0
C      1  0.5385420000000  0.4346590000000  0.4389540000000 1.0
C      1  0.4619420000000  0.4370160000000  0.4491540000000 1.0
C      1  0.4429340000000  0.4264970000000  0.5246260000000 1.0
C      1  0.5040890000000  0.4313800000000  0.5658220000000 1.0
C      1  0.5089040000000  0.4353500000000  0.4446330000000 1.0
C      1  0.4517910000000  0.4358250000000  0.4773300000000 1.0
C      1  0.4598000000000  0.4320210000000  0.5483980000000 1.0
C      1  0.5294090000000  0.4320190000000  0.5517350000000 1.0
C      1  0.5525480000000  0.4320170000000  0.4811020000000 1.0
C      1  0.5779690000000  0.4946510000000  0.5054240000000 1.0
C      1  0.5337480000000  0.4890160000000  0.4072060000000 1.0
C      1  0.4242850000000  0.4938170000000  0.4471720000000 1.0
C      1  0.4306400000000  0.4969170000000  0.5488800000000 1.0
C      1  0.5288950000000  0.4898680000000  0.5938760000000 1.0
C      1  0.4607560000000  0.5643490000000  0.5486090000000 1.0
C      1  0.5384090000000  0.5523380000000  0.5553560000000 1.0
C      1  0.5600000000000  0.5626870000000  0.4798490000000 1.0
C      1  0.4969620000000  0.5563020000000  0.4296360000000 1.0
C      1  0.4344020000000  0.5631210000000  0.4763120000000 1.0
C      1  0.5392350000000  0.5201520000000  0.5251820000000 1.0
C      1  0.5380620000000  0.5221540000000  0.4731650000000 1.0
C      1  0.4877670000000  0.5209090000000  0.4570220000000 1.0
C      1  0.4603910000000  0.5273790000000  0.5006760000000 1.0
C      1  0.4880410000000  0.5292360000000  0.5418270000000 1.0
C      1  0.4616370000000  0.4223660000000  0.5011940000000 1.0
C      1  0.4867350000000  0.4237940000000  0.5437030000000 1.0
C      1  0.5267970000000  0.4219810000000  0.5240490000000 1.0
C      1  0.5537360000000  0.4183860000000  0.4564040000000 1.0
C      1  0.4845870000000  0.4209860000000  0.4422310000000 1.0
C      1  0.5806270000000  0.4731360000000  0.5472300000000 1.0
C      1  0.5738190000000  0.4797630000000  0.4394220000000 1.0
C      1  0.4669740000000  0.4816560000000  0.4166140000000 1.0
C      1  0.4023430000000  0.4552310000000  0.5087170000000 1.0
C      1  0.4768860000000  0.4781990000000  0.5957600000000 1.0
C      1  0.4981700000000  0.5507460000000  0.5224320000000 1.0
C      1  0.5252830000000  0.5446970000000  0.5118090000000 1.0
C      1  0.5208950000000  0.5426060000000  0.4835090000000 1.0
C      1  0.4944800000000  0.5465280000000  0.4720310000000 1.0
C      1  0.4790950000000  0.5508280000000  0.4981930000000 1.0
C      1  0.5039750000000  0.5993560000000  0.4947280000000 1.0
C      1  0.4960230000000  0.4604540000000  0.5066550000000 1.0
C      1  0.4958260000000  0.4295760000000  0.5145360000000 1.0
END
