TITL C-3577079-311-729 3.79980573390259e-07 125000 -1180.80775818965 0 0 186 (C1) n - 1
REM
REM in /home/bkarasulu/work/CARBON/AIRSS/Generating-Clusters/EDIP-Nigel-Params/with-SteepDescent/Higher-Symm/SD-CG/HFTN-CG
REM
REM
REM
REM
REM
REM ./C.cell (12c818d87b63d06a65506943cc24bca4)
REM
REM compiler GCC version 9.2.1 20190827 (Red Hat 9.2.1-1)
REM options -cpp -mtune=generic -march=x86-64 -g -O0 -fpre-include=/usr/include/finclude/math-vector-fortran.h
REM seed 1633351001 -912464705 1361137115 109783187 778073355 -399125796 -674128653 1754694748 -1261273013 -308054362 -364576606 -1234450469 420103306 -241630770 431647499 -1340323954 -1787506294 586968976 2103239670 -1646063003 -692421205 341685478 -312714435 -26766014 -1129513884 -469128849 1352686256 57268326 -639987504 -735159488 2074094151 -1079703214 1710936753
REM
CELL 1.54180   50.00000   50.00000   50.00000   90.00000   90.00000   90.00000
LATT -1
SFAC C  
C      1  0.5298380000000  0.5440150000000  0.4826370000000 1.0
C      1  0.5068720000000  0.5248280000000  0.5372390000000 1.0
C      1  0.5178980000000  0.4751360000000  0.5453800000000 1.0
C      1  0.4969710000000  0.4485560000000  0.5020310000000 1.0
C      1  0.5145730000000  0.4824140000000  0.4294610000000 1.0
C      1  0.4792810000000  0.5542470000000  0.4770370000000 1.0
C      1  0.4781720000000  0.5299360000000  0.5451640000000 1.0
C      1  0.4877350000000  0.4754420000000  0.5458820000000 1.0
C      1  0.4783860000000  0.4638250000000  0.4832500000000 1.0
C      1  0.4859060000000  0.4850670000000  0.4344870000000 1.0
C      1  0.4045430000000  0.5263170000000  0.4966240000000 1.0
C      1  0.4056460000000  0.5151210000000  0.5250340000000 1.0
C      1  0.4069190000000  0.4853070000000  0.5234350000000 1.0
C      1  0.4058850000000  0.4777810000000  0.4943390000000 1.0
C      1  0.4052520000000  0.5027270000000  0.4775510000000 1.0
C      1  0.6099160000000  0.5266250000000  0.5116960000000 1.0
C      1  0.6135480000000  0.4985150000000  0.5237060000000 1.0
C      1  0.6077980000000  0.4812290000000  0.5006560000000 1.0
C      1  0.6146330000000  0.4954550000000  0.4752980000000 1.0
C      1  0.6012170000000  0.5215960000000  0.4821380000000 1.0
C      1  0.4288410000000  0.5439160000000  0.4892240000000 1.0
C      1  0.4288010000000  0.5248720000000  0.5420450000000 1.0
C      1  0.4321940000000  0.4743680000000  0.5366140000000 1.0
C      1  0.4289390000000  0.4596240000000  0.4877040000000 1.0
C      1  0.4304950000000  0.5043960000000  0.4607400000000 1.0
C      1  0.5631420000000  0.5217480000000  0.5105370000000 1.0
C      1  0.5594550000000  0.4962740000000  0.5242850000000 1.0
C      1  0.5763440000000  0.4777020000000  0.5051740000000 1.0
C      1  0.5615910000000  0.4871740000000  0.4779750000000 1.0
C      1  0.5701700000000  0.5171630000000  0.4828160000000 1.0
C      1  0.4512620000000  0.5369530000000  0.4360710000000 1.0
C      1  0.4498560000000  0.5692430000000  0.5220370000000 1.0
C      1  0.4504770000000  0.4965920000000  0.5776340000000 1.0
C      1  0.4480320000000  0.4307070000000  0.5275380000000 1.0
C      1  0.4476390000000  0.4615300000000  0.4406820000000 1.0
C      1  0.5607040000000  0.5371600000000  0.4395040000000 1.0
C      1  0.5532030000000  0.5715890000000  0.5237830000000 1.0
C      1  0.5491840000000  0.4970980000000  0.5676960000000 1.0
C      1  0.5525680000000  0.4357610000000  0.5164880000000 1.0
C      1  0.5572540000000  0.4645460000000  0.4374320000000 1.0
C      1  0.4546830000000  0.5170980000000  0.5271470000000 1.0
C      1  0.4570530000000  0.4858280000000  0.5245470000000 1.0
C      1  0.4553440000000  0.4776700000000  0.4941990000000 1.0
C      1  0.4547260000000  0.5042190000000  0.4789310000000 1.0
C      1  0.4524490000000  0.5269770000000  0.4985850000000 1.0
C      1  0.5108570000000  0.5088940000000  0.5132120000000 1.0
C      1  0.5287110000000  0.4869120000000  0.5211360000000 1.0
C      1  0.5240700000000  0.4649310000000  0.5005760000000 1.0
C      1  0.5309690000000  0.4829710000000  0.4767590000000 1.0
C      1  0.5145140000000  0.5168370000000  0.4839740000000 1.0
C      1  0.5310050000000  0.5541990000000  0.4066750000000 1.0
C      1  0.5233040000000  0.6089620000000  0.5240110000000 1.0
C      1  0.5266050000000  0.5094580000000  0.6088400000000 1.0
C      1  0.5279870000000  0.4034590000000  0.5416490000000 1.0
C      1  0.5247090000000  0.4314690000000  0.4184760000000 1.0
C      1  0.4869050000000  0.5542360000000  0.4106330000000 1.0
C      1  0.4792570000000  0.6063440000000  0.5288050000000 1.0
C      1  0.4828670000000  0.5031970000000  0.6137010000000 1.0
C      1  0.4836450000000  0.4005140000000  0.5387330000000 1.0
C      1  0.4787780000000  0.4341710000000  0.4155530000000 1.0
C      1  0.5789050000000  0.4510410000000  0.5195580000000 1.0
C      1  0.5822020000000  0.4612590000000  0.4579280000000 1.0
C      1  0.5904920000000  0.5319360000000  0.4380520000000 1.0
C      1  0.5789270000000  0.5665370000000  0.5072370000000 1.0
C      1  0.5755840000000  0.5096330000000  0.5570250000000 1.0
C      1  0.4302080000000  0.4325140000000  0.5508310000000 1.0
C      1  0.4277890000000  0.4477080000000  0.4579300000000 1.0
C      1  0.4306250000000  0.5284130000000  0.4178710000000 1.0
C      1  0.4293610000000  0.5734690000000  0.5002980000000 1.0
C      1  0.4297000000000  0.5180300000000  0.5734850000000 1.0
C      1  0.5281830000000  0.5636620000000  0.5062830000000 1.0
C      1  0.5236830000000  0.5160230000000  0.5609180000000 1.0
C      1  0.5342970000000  0.4503750000000  0.5465160000000 1.0
C      1  0.5288700000000  0.4665600000000  0.4500880000000 1.0
C      1  0.5448820000000  0.5141640000000  0.4299180000000 1.0
C      1  0.4770910000000  0.5624470000000  0.5062750000000 1.0
C      1  0.4773290000000  0.5048510000000  0.5645390000000 1.0
C      1  0.4802440000000  0.4488110000000  0.5305380000000 1.0
C      1  0.4756250000000  0.4625820000000  0.4530840000000 1.0
C      1  0.4782560000000  0.5154780000000  0.4430530000000 1.0
C      1  0.4614350000000  0.5602810000000  0.4212190000000 1.0
C      1  0.4545830000000  0.5945270000000  0.5381300000000 1.0
C      1  0.4567840000000  0.4907370000000  0.6075350000000 1.0
C      1  0.4569310000000  0.4022120000000  0.5263060000000 1.0
C      1  0.4516440000000  0.4458280000000  0.4143230000000 1.0
C      1  0.5534960000000  0.5608040000000  0.4235230000000 1.0
C      1  0.5478800000000  0.5993950000000  0.5349970000000 1.0
C      1  0.5491340000000  0.4957290000000  0.5979810000000 1.0
C      1  0.5537460000000  0.4080280000000  0.5285790000000 1.0
C      1  0.5517110000000  0.4440100000000  0.4151670000000 1.0
C      1  0.5240450000000  0.5241970000000  0.4096930000000 1.0
C      1  0.5156830000000  0.5913490000000  0.5008670000000 1.0
C      1  0.5149610000000  0.5271330000000  0.5874340000000 1.0
C      1  0.5183020000000  0.4271950000000  0.5585780000000 1.0
C      1  0.5156200000000  0.4352130000000  0.4476910000000 1.0
C      1  0.4919690000000  0.5254650000000  0.4148300000000 1.0
C      1  0.4851920000000  0.5913130000000  0.5036680000000 1.0
C      1  0.4860230000000  0.5210650000000  0.5900570000000 1.0
C      1  0.4881070000000  0.4270720000000  0.5520210000000 1.0
C      1  0.4851040000000  0.4355170000000  0.4441630000000 1.0
C      1  0.5839600000000  0.4614940000000  0.5478650000000 1.0
C      1  0.5862940000000  0.4379510000000  0.4774560000000 1.0
C      1  0.5916490000000  0.5018390000000  0.4326880000000 1.0
C      1  0.5771270000000  0.5639000000000  0.4763540000000 1.0
C      1  0.5795210000000  0.5387440000000  0.5502290000000 1.0
C      1  0.4091760000000  0.4771300000000  0.5820180000000 1.0
C      1  0.4007410000000  0.4308460000000  0.5178180000000 1.0
C      1  0.4068200000000  0.4755130000000  0.4266670000000 1.0
C      1  0.4112250000000  0.5617770000000  0.4427210000000 1.0
C      1  0.4051150000000  0.5675730000000  0.5385300000000 1.0
C      1  0.4042560000000  0.5797730000000  0.5137350000000 1.0
C      1  0.4053150000000  0.5050360000000  0.5834210000000 1.0
C      1  0.4030340000000  0.4281570000000  0.5448610000000 1.0
C      1  0.4026670000000  0.4531140000000  0.4434850000000 1.0
C      1  0.4096760000000  0.5481000000000  0.4176650000000 1.0
C      1  0.5845460000000  0.5393240000000  0.5208560000000 1.0
C      1  0.5961090000000  0.4894380000000  0.5476070000000 1.0
C      1  0.5997160000000  0.4380940000000  0.5030210000000 1.0
C      1  0.6033820000000  0.4821700000000  0.4517410000000 1.0
C      1  0.6023110000000  0.5451690000000  0.4628560000000 1.0
C      1  0.4290180000000  0.4836910000000  0.3965970000000 1.0
C      1  0.4333670000000  0.5860930000000  0.4505250000000 1.0
C      1  0.4318460000000  0.5666870000000  0.5692170000000 1.0
C      1  0.4320540000000  0.4505780000000  0.5977590000000 1.0
C      1  0.4305740000000  0.4088650000000  0.4867070000000 1.0
C      1  0.5653840000000  0.4856170000000  0.3930490000000 1.0
C      1  0.5654690000000  0.5883370000000  0.4615910000000 1.0
C      1  0.5557660000000  0.5747490000000  0.5736180000000 1.0
C      1  0.5595160000000  0.4510580000000  0.5908530000000 1.0
C      1  0.5593600000000  0.3982240000000  0.4834730000000 1.0
C      1  0.5575070000000  0.4627980000000  0.5632350000000 1.0
C      1  0.5601500000000  0.4274770000000  0.4854080000000 1.0
C      1  0.5644570000000  0.4918190000000  0.4228080000000 1.0
C      1  0.5569740000000  0.5411380000000  0.4698120000000 1.0
C      1  0.5568310000000  0.5568230000000  0.5509940000000 1.0
C      1  0.4345720000000  0.4731340000000  0.5669920000000 1.0
C      1  0.4267120000000  0.4331250000000  0.5048350000000 1.0
C      1  0.4329030000000  0.4878270000000  0.4347290000000 1.0
C      1  0.4329360000000  0.5480820000000  0.4583900000000 1.0
C      1  0.4297620000000  0.5550130000000  0.5423430000000 1.0
C      1  0.5192050000000  0.5569110000000  0.5905690000000 1.0
C      1  0.5224490000000  0.4274640000000  0.5884990000000 1.0
C      1  0.5207140000000  0.4150840000000  0.4703390000000 1.0
C      1  0.5270230000000  0.5061580000000  0.3861660000000 1.0
C      1  0.5250230000000  0.6016380000000  0.4743930000000 1.0
C      1  0.4693940000000  0.5459950000000  0.5897270000000 1.0
C      1  0.4716380000000  0.4310610000000  0.5770960000000 1.0
C      1  0.4673180000000  0.4153420000000  0.4577900000000 1.0
C      1  0.4731030000000  0.5067620000000  0.3980280000000 1.0
C      1  0.4697190000000  0.6005960000000  0.4793180000000 1.0
C      1  0.5212540000000  0.4784870000000  0.3991150000000 1.0
C      1  0.5113520000000  0.5882180000000  0.4501640000000 1.0
C      1  0.5060780000000  0.5752740000000  0.5701960000000 1.0
C      1  0.5097720000000  0.4512110000000  0.6031980000000 1.0
C      1  0.5017570000000  0.4164610000000  0.4943270000000 1.0
C      1  0.4786350000000  0.4766640000000  0.3983830000000 1.0
C      1  0.4814110000000  0.5807330000000  0.4591870000000 1.0
C      1  0.4779270000000  0.5626570000000  0.5663650000000 1.0
C      1  0.4807690000000  0.4505250000000  0.5961090000000 1.0
C      1  0.4768910000000  0.4049430000000  0.4825270000000 1.0
C      1  0.5524350000000  0.6084390000000  0.4756570000000 1.0
C      1  0.5455430000000  0.5640120000000  0.5973380000000 1.0
C      1  0.5499360000000  0.4248860000000  0.5936170000000 1.0
C      1  0.5373380000000  0.3924270000000  0.4673450000000 1.0
C      1  0.5536710000000  0.5056480000000  0.3768000000000 1.0
C      1  0.4395970000000  0.5941190000000  0.4793610000000 1.0
C      1  0.4394940000000  0.5435460000000  0.5871780000000 1.0
C      1  0.4423180000000  0.4312980000000  0.5770620000000 1.0
C      1  0.4374910000000  0.4188970000000  0.4596800000000 1.0
C      1  0.4428370000000  0.5101250000000  0.3983930000000 1.0
C      1  0.5596400000000  0.3880910000000  0.5096120000000 1.0
C      1  0.5471600000000  0.4625200000000  0.3928710000000 1.0
C      1  0.5480070000000  0.5832700000000  0.4395380000000 1.0
C      1  0.5387870000000  0.5955450000000  0.5630260000000 1.0
C      1  0.5441380000000  0.4689160000000  0.6075020000000 1.0
C      1  0.4544710000000  0.3944870000000  0.4980050000000 1.0
C      1  0.4512770000000  0.4643430000000  0.3921520000000 1.0
C      1  0.4605450000000  0.5836920000000  0.4374630000000 1.0
C      1  0.4563040000000  0.5835090000000  0.5651400000000 1.0
C      1  0.4573910000000  0.4614870000000  0.6107670000000 1.0
C      1  0.5093100000000  0.5716530000000  0.4153480000000 1.0
C      1  0.5031630000000  0.6057160000000  0.5461560000000 1.0
C      1  0.5079590000000  0.4876640000000  0.6168990000000 1.0
C      1  0.5022880000000  0.4442730000000  0.4006050000000 1.0
C      1  0.5069130000000  0.3979490000000  0.5202510000000 1.0
C      1  0.4866660000000  0.5248070000000  0.4716340000000 1.0
END
