TITL C-3578201-9217-402 -9.68052952928481e-08 125000 -568.441639370099 0 0 91 (C1) n - 1
REM
REM in /home/bkarasulu/work/CARBON/AIRSS/Generating-Clusters/EDIP-Nigel-Params/with-SteepDescent/Higher-Symm/SD-CG/HFTN-CG
REM
REM
REM
REM
REM
REM ./C.cell (12c818d87b63d06a65506943cc24bca4)
REM
REM compiler GCC version 9.2.1 20190827 (Red Hat 9.2.1-1)
REM options -cpp -mtune=generic -march=x86-64 -g -O0 -fpre-include=/usr/include/finclude/math-vector-fortran.h
REM seed 940054823 666765759 -1782966983 454126435 1333454443 1225613931 557878616 -1876270560 -903459883 195321829 96331952 1595437854 1049700585 2141482509 -424601714 301169816 -2108533253 -712578413 1067867245 989190151 1624890073 572297672 1500937853 -1816891205 -829883225 -211963741 -2093955626 -438148444 1738302354 -57157959 -1457559437 431982751 -521900685
REM
CELL 1.54180   50.00000   50.00000   50.00000   90.00000   90.00000   90.00000
LATT -1
SFAC C  
C      1  0.5523110000000  0.4386120000000  0.5319630000000 1.0
C      1  0.5589890000000  0.4322410000000  0.4703890000000 1.0
C      1  0.5025760000000  0.4371590000000  0.4374810000000 1.0
C      1  0.4457670000000  0.4333990000000  0.4678030000000 1.0
C      1  0.4462490000000  0.4345330000000  0.5308600000000 1.0
C      1  0.5004930000000  0.4368940000000  0.5627470000000 1.0
C      1  0.5424080000000  0.5572000000000  0.4754090000000 1.0
C      1  0.5424050000000  0.5561330000000  0.5257410000000 1.0
C      1  0.4976250000000  0.5618540000000  0.5507960000000 1.0
C      1  0.4541260000000  0.5709430000000  0.5247840000000 1.0
C      1  0.4543220000000  0.5714390000000  0.4745890000000 1.0
C      1  0.4986170000000  0.5630780000000  0.4486910000000 1.0
C      1  0.5147420000000  0.4188520000000  0.4757980000000 1.0
C      1  0.4865550000000  0.4174100000000  0.4760020000000 1.0
C      1  0.4721230000000  0.4166160000000  0.5001110000000 1.0
C      1  0.4864260000000  0.4176380000000  0.5248400000000 1.0
C      1  0.5146980000000  0.4164670000000  0.5242940000000 1.0
C      1  0.5289620000000  0.4189980000000  0.4999820000000 1.0
C      1  0.5194340000000  0.5973540000000  0.5270210000000 1.0
C      1  0.4899170000000  0.6030470000000  0.5267000000000 1.0
C      1  0.4755800000000  0.6066860000000  0.5003140000000 1.0
C      1  0.4903610000000  0.6034740000000  0.4742130000000 1.0
C      1  0.5199220000000  0.5982030000000  0.4743770000000 1.0
C      1  0.5344820000000  0.5957200000000  0.5008710000000 1.0
C      1  0.4212060000000  0.4770480000000  0.5139210000000 1.0
C      1  0.4738910000000  0.4791920000000  0.5730560000000 1.0
C      1  0.5510320000000  0.4823760000000  0.5593140000000 1.0
C      1  0.5731200000000  0.4795160000000  0.4843970000000 1.0
C      1  0.5243140000000  0.4810650000000  0.4317050000000 1.0
C      1  0.4485610000000  0.4775700000000  0.4420260000000 1.0
C      1  0.4201710000000  0.5086830000000  0.4832940000000 1.0
C      1  0.4744750000000  0.5104220000000  0.4277290000000 1.0
C      1  0.5494410000000  0.5204800000000  0.4434790000000 1.0
C      1  0.5749450000000  0.5130250000000  0.5130460000000 1.0
C      1  0.5221830000000  0.5129410000000  0.5726550000000 1.0
C      1  0.4475670000000  0.5095870000000  0.5551030000000 1.0
C      1  0.4517510000000  0.5883000000000  0.4998810000000 1.0
C      1  0.4756320000000  0.5823770000000  0.5430590000000 1.0
C      1  0.5252520000000  0.5737110000000  0.5443730000000 1.0
C      1  0.5512950000000  0.5714020000000  0.5008160000000 1.0
C      1  0.5261390000000  0.5751490000000  0.4563890000000 1.0
C      1  0.4763890000000  0.5831990000000  0.4570420000000 1.0
C      1  0.4443690000000  0.4223390000000  0.4959860000000 1.0
C      1  0.4709770000000  0.4247550000000  0.4533780000000 1.0
C      1  0.5266720000000  0.4264250000000  0.4511310000000 1.0
C      1  0.5572020000000  0.4233300000000  0.4983230000000 1.0
C      1  0.5265800000000  0.4271790000000  0.5478320000000 1.0
C      1  0.4756940000000  0.4240830000000  0.5506950000000 1.0
C      1  0.5232540000000  0.4591780000000  0.5171020000000 1.0
C      1  0.5235620000000  0.4610060000000  0.4860500000000 1.0
C      1  0.4977760000000  0.4718490000000  0.4714160000000 1.0
C      1  0.4692110000000  0.4704830000000  0.4866990000000 1.0
C      1  0.4723020000000  0.4581700000000  0.5147830000000 1.0
C      1  0.4976370000000  0.4706700000000  0.5295010000000 1.0
C      1  0.5210980000000  0.5386670000000  0.4851870000000 1.0
C      1  0.5211250000000  0.5373460000000  0.5145480000000 1.0
C      1  0.4934160000000  0.5428810000000  0.5270280000000 1.0
C      1  0.4640170000000  0.5440070000000  0.5153810000000 1.0
C      1  0.4641510000000  0.5443600000000  0.4836920000000 1.0
C      1  0.4936670000000  0.5437800000000  0.4718820000000 1.0
C      1  0.4445940000000  0.4656430000000  0.5303660000000 1.0
C      1  0.4987660000000  0.4671180000000  0.5601490000000 1.0
C      1  0.5533650000000  0.4709230000000  0.5317460000000 1.0
C      1  0.5517400000000  0.4608660000000  0.4698140000000 1.0
C      1  0.4994810000000  0.4667620000000  0.4408610000000 1.0
C      1  0.4451190000000  0.4636840000000  0.4691450000000 1.0
C      1  0.4476090000000  0.5166830000000  0.4739090000000 1.0
C      1  0.4983770000000  0.5256680000000  0.4380190000000 1.0
C      1  0.5622370000000  0.5368490000000  0.4640980000000 1.0
C      1  0.5597220000000  0.5287820000000  0.5346860000000 1.0
C      1  0.4971690000000  0.5243660000000  0.5606520000000 1.0
C      1  0.4469440000000  0.5182290000000  0.5262050000000 1.0
C      1  0.4731470000000  0.5111440000000  0.5721340000000 1.0
C      1  0.5510560000000  0.5132580000000  0.5597360000000 1.0
C      1  0.5734200000000  0.5185170000000  0.4841560000000 1.0
C      1  0.5244610000000  0.5109050000000  0.4317060000000 1.0
C      1  0.4490690000000  0.5081570000000  0.4448090000000 1.0
C      1  0.4215440000000  0.5078090000000  0.5135150000000 1.0
C      1  0.4755870000000  0.4782450000000  0.4265310000000 1.0
C      1  0.5473390000000  0.4697850000000  0.4427380000000 1.0
C      1  0.5763700000000  0.4828360000000  0.5150020000000 1.0
C      1  0.5230720000000  0.4815880000000  0.5726040000000 1.0
C      1  0.4470070000000  0.4787890000000  0.5575580000000 1.0
C      1  0.4204420000000  0.4760920000000  0.4829670000000 1.0
C      1  0.5388280000000  0.4938000000000  0.4964780000000 1.0
C      1  0.5002640000000  0.4994130000000  0.5245860000000 1.0
C      1  0.5291850000000  0.5076600000000  0.5223170000000 1.0
C      1  0.5281830000000  0.5114080000000  0.4750080000000 1.0
C      1  0.4614490000000  0.4987180000000  0.4954800000000 1.0
C      1  0.5011200000000  0.5004480000000  0.4738610000000 1.0
C      1  0.4878450000000  0.5091270000000  0.4989420000000 1.0
END
