TITL C-3578196-9646-196 -3.69179551065966e-06 125000 -686.992535079745 0 0 112 (C1) n - 1
REM
REM in /home/bkarasulu/work/CARBON/AIRSS/Generating-Clusters/EDIP-Nigel-Params/with-SteepDescent/Higher-Symm/SD-CG/HFTN-CG
REM
REM
REM
REM
REM
REM ./C.cell (12c818d87b63d06a65506943cc24bca4)
REM
REM compiler GCC version 9.2.1 20190827 (Red Hat 9.2.1-1)
REM options -cpp -mtune=generic -march=x86-64 -g -O0 -fpre-include=/usr/include/finclude/math-vector-fortran.h
REM seed -467786337 -757642854 -2016219188 -456394927 -98720752 -1861723806 -470802001 -444237314 -1793953599 1659341635 1706736051 431521585 -381157326 -467224339 -901216371 1632134115 1864807735 350403222 429719385 1858696350 2100876377 1143341260 -971825096 -468004580 -1916462136 210637721 -1234214297 -1772782089 -2034999144 127907124 -1710478804 1829687230 1394072115
REM
CELL 1.54180   50.00000   50.00000   50.00000   90.00000   90.00000   90.00000
LATT -1
SFAC C  
C      1  0.6052950000000  0.4955060000000  0.4908430000000 1.0
C      1  0.5642380000000  0.4663800000000  0.4511190000000 1.0
C      1  0.4688440000000  0.4541250000000  0.5177240000000 1.0
C      1  0.5040260000000  0.4952710000000  0.4064670000000 1.0
C      1  0.4398740000000  0.5426980000000  0.5434760000000 1.0
C      1  0.4923380000000  0.5146220000000  0.5089580000000 1.0
C      1  0.5543140000000  0.5723630000000  0.5013140000000 1.0
C      1  0.5092280000000  0.5414300000000  0.4160500000000 1.0
C      1  0.4991910000000  0.4685740000000  0.4146160000000 1.0
C      1  0.5253120000000  0.5714170000000  0.4552210000000 1.0
C      1  0.4587040000000  0.4804280000000  0.4761830000000 1.0
C      1  0.5314930000000  0.5016700000000  0.4109000000000 1.0
C      1  0.4520140000000  0.5740600000000  0.5072120000000 1.0
C      1  0.4307490000000  0.4738540000000  0.4638460000000 1.0
C      1  0.4127410000000  0.4992770000000  0.4691130000000 1.0
C      1  0.4307670000000  0.5582220000000  0.5207700000000 1.0
C      1  0.5088780000000  0.5834760000000  0.5040520000000 1.0
C      1  0.5419040000000  0.5267490000000  0.5278430000000 1.0
C      1  0.5728540000000  0.5204250000000  0.5616720000000 1.0
C      1  0.5754340000000  0.4461660000000  0.4689340000000 1.0
C      1  0.4572820000000  0.5535020000000  0.4225830000000 1.0
C      1  0.4515840000000  0.4196220000000  0.5225320000000 1.0
C      1  0.5328880000000  0.4292160000000  0.4632690000000 1.0
C      1  0.5268980000000  0.5024940000000  0.5438100000000 1.0
C      1  0.5676920000000  0.4513120000000  0.5381650000000 1.0
C      1  0.5285540000000  0.4314280000000  0.5600380000000 1.0
C      1  0.5893250000000  0.5324180000000  0.5163690000000 1.0
C      1  0.4768910000000  0.4172870000000  0.5407280000000 1.0
C      1  0.5966650000000  0.4783440000000  0.5104300000000 1.0
C      1  0.5623150000000  0.5538660000000  0.4815910000000 1.0
C      1  0.4967670000000  0.5070390000000  0.5374180000000 1.0
C      1  0.5041910000000  0.5626730000000  0.4345270000000 1.0
C      1  0.5695400000000  0.5338700000000  0.5364130000000 1.0
C      1  0.4744030000000  0.4568480000000  0.4111830000000 1.0
C      1  0.5257440000000  0.5534060000000  0.5354210000000 1.0
C      1  0.4458330000000  0.5098850000000  0.4402890000000 1.0
C      1  0.5260850000000  0.4754930000000  0.5270540000000 1.0
C      1  0.4632050000000  0.4410760000000  0.4552770000000 1.0
C      1  0.5190400000000  0.5042200000000  0.4470290000000 1.0
C      1  0.4815870000000  0.5657430000000  0.5578540000000 1.0
C      1  0.4651760000000  0.4608750000000  0.5489290000000 1.0
C      1  0.4508010000000  0.5100080000000  0.5615560000000 1.0
C      1  0.4825330000000  0.5766890000000  0.5199780000000 1.0
C      1  0.5425660000000  0.4504220000000  0.5214040000000 1.0
C      1  0.4767780000000  0.4936440000000  0.5571710000000 1.0
C      1  0.4592630000000  0.4183920000000  0.4934220000000 1.0
C      1  0.4244300000000  0.4575080000000  0.5038360000000 1.0
C      1  0.5553880000000  0.5350710000000  0.4372940000000 1.0
C      1  0.4115010000000  0.5457190000000  0.5001070000000 1.0
C      1  0.4355850000000  0.5161260000000  0.5090590000000 1.0
C      1  0.4309930000000  0.5456790000000  0.4749610000000 1.0
C      1  0.5456440000000  0.4771670000000  0.5665950000000 1.0
C      1  0.4945390000000  0.5503690000000  0.5337640000000 1.0
C      1  0.5924410000000  0.5116830000000  0.4723340000000 1.0
C      1  0.4418800000000  0.4369070000000  0.4756310000000 1.0
C      1  0.4554210000000  0.5533430000000  0.5654160000000 1.0
C      1  0.5458940000000  0.5159680000000  0.4581000000000 1.0
C      1  0.5096430000000  0.4753580000000  0.5019660000000 1.0
C      1  0.5364990000000  0.5301470000000  0.4142140000000 1.0
C      1  0.4882930000000  0.5065850000000  0.5845890000000 1.0
C      1  0.4648730000000  0.5089440000000  0.4644750000000 1.0
C      1  0.4801300000000  0.4609840000000  0.4692020000000 1.0
C      1  0.4057200000000  0.4803990000000  0.5145920000000 1.0
C      1  0.5082520000000  0.5269910000000  0.5742650000000 1.0
C      1  0.4462070000000  0.4951690000000  0.5254100000000 1.0
C      1  0.5030490000000  0.5570550000000  0.5770030000000 1.0
C      1  0.4914670000000  0.4529190000000  0.4967170000000 1.0
C      1  0.5314900000000  0.5571500000000  0.5652250000000 1.0
C      1  0.4084940000000  0.5065810000000  0.4980960000000 1.0
C      1  0.4534510000000  0.4522790000000  0.4290670000000 1.0
C      1  0.4363780000000  0.4753630000000  0.4346870000000 1.0
C      1  0.5531160000000  0.5596220000000  0.4536960000000 1.0
C      1  0.5447330000000  0.5177180000000  0.4977590000000 1.0
C      1  0.5044790000000  0.4438060000000  0.5723670000000 1.0
C      1  0.5152250000000  0.5133190000000  0.4889940000000 1.0
C      1  0.4528770000000  0.5268710000000  0.4869350000000 1.0
C      1  0.5842760000000  0.5354050000000  0.4886260000000 1.0
C      1  0.4221320000000  0.4839590000000  0.5403930000000 1.0
C      1  0.4935350000000  0.5241710000000  0.4537330000000 1.0
C      1  0.5077590000000  0.4203940000000  0.4729450000000 1.0
C      1  0.5059540000000  0.4611330000000  0.5942530000000 1.0
C      1  0.4983160000000  0.4213800000000  0.5203020000000 1.0
C      1  0.4593260000000  0.5259990000000  0.4184690000000 1.0
C      1  0.4222010000000  0.5235060000000  0.4535980000000 1.0
C      1  0.4506120000000  0.4732720000000  0.5052820000000 1.0
C      1  0.5476810000000  0.4600510000000  0.4914720000000 1.0
C      1  0.5150470000000  0.5639890000000  0.4821940000000 1.0
C      1  0.4465860000000  0.5727340000000  0.4775440000000 1.0
C      1  0.5625100000000  0.4886530000000  0.4949120000000 1.0
C      1  0.5169380000000  0.4854970000000  0.4729280000000 1.0
C      1  0.4578610000000  0.5300950000000  0.5829000000000 1.0
C      1  0.4888810000000  0.5196200000000  0.4148990000000 1.0
C      1  0.4729990000000  0.5724920000000  0.4648500000000 1.0
C      1  0.5832310000000  0.4945420000000  0.5560470000000 1.0
C      1  0.4904360000000  0.5503250000000  0.4753200000000 1.0
C      1  0.5531290000000  0.4490510000000  0.5646870000000 1.0
C      1  0.5365250000000  0.4542340000000  0.4487510000000 1.0
C      1  0.5676020000000  0.4952410000000  0.4645510000000 1.0
C      1  0.4772310000000  0.5387450000000  0.5002040000000 1.0
C      1  0.5371050000000  0.4959300000000  0.5860370000000 1.0
C      1  0.5574310000000  0.4258470000000  0.4771130000000 1.0
C      1  0.5264950000000  0.4252760000000  0.5302050000000 1.0
C      1  0.4282900000000  0.4390050000000  0.5278470000000 1.0
C      1  0.4778620000000  0.4373720000000  0.5624290000000 1.0
C      1  0.5100240000000  0.4886860000000  0.5964910000000 1.0
C      1  0.5802720000000  0.4773400000000  0.5337240000000 1.0
C      1  0.4344000000000  0.4582960000000  0.5497260000000 1.0
C      1  0.5217250000000  0.4561720000000  0.4250350000000 1.0
C      1  0.4752440000000  0.5707230000000  0.4358410000000 1.0
C      1  0.5336820000000  0.5779720000000  0.5196440000000 1.0
C      1  0.5468450000000  0.5233700000000  0.5771330000000 1.0
C      1  0.4899680000000  0.4102380000000  0.4928020000000 1.0
END
