TITL C-3578205-846-682 -1.64538730652364e-06 125000 -495.365912414108 0 0 80 (C1) n - 1
REM
REM in /home/bkarasulu/work/CARBON/AIRSS/Generating-Clusters/EDIP-Nigel-Params/with-SteepDescent/Higher-Symm/SD-CG/HFTN-CG
REM
REM
REM
REM
REM
REM ./C.cell (12c818d87b63d06a65506943cc24bca4)
REM
REM compiler GCC version 9.2.1 20190827 (Red Hat 9.2.1-1)
REM options -cpp -mtune=generic -march=x86-64 -g -O0 -fpre-include=/usr/include/finclude/math-vector-fortran.h
REM seed -1869179025 2116643176 -1727948450 -603097591 385494259 1482994392 1496337147 -578639325 129251348 -1730246704 1665369656 1390306006 -1757031216 -182409042 -222827183 -838393645 1917588103 -1888208215 994745928 -293611220 -370306055 216550079 -1591789604 -890494383 633019377 -867577833 1135053961 -1417387827 -213088410 -1532261326 -1576867893 1074629369 1104548958
REM
CELL 1.54180   50.00000   50.00000   50.00000   90.00000   90.00000   90.00000
LATT -1
SFAC C  
C      1  0.4342100000000  0.4893270000000  0.5441990000000 1.0
C      1  0.4331990000000  0.4908190000000  0.4560030000000 1.0
C      1  0.5557710000000  0.4621120000000  0.4897990000000 1.0
C      1  0.5598310000000  0.4534210000000  0.5172210000000 1.0
C      1  0.4909740000000  0.5431800000000  0.4674530000000 1.0
C      1  0.4958170000000  0.5468560000000  0.5327430000000 1.0
C      1  0.4590270000000  0.5097890000000  0.5108990000000 1.0
C      1  0.4684560000000  0.4987820000000  0.4803740000000 1.0
C      1  0.5467800000000  0.5162340000000  0.5144980000000 1.0
C      1  0.5453670000000  0.5149930000000  0.4824950000000 1.0
C      1  0.5194110000000  0.5545710000000  0.4303800000000 1.0
C      1  0.5025840000000  0.5167750000000  0.5405480000000 1.0
C      1  0.5693220000000  0.5019240000000  0.4679910000000 1.0
C      1  0.5699710000000  0.5032160000000  0.5307680000000 1.0
C      1  0.5198800000000  0.4899760000000  0.5865280000000 1.0
C      1  0.5198730000000  0.4965380000000  0.4240960000000 1.0
C      1  0.4712970000000  0.4915420000000  0.5765480000000 1.0
C      1  0.4716550000000  0.4932980000000  0.4288920000000 1.0
C      1  0.5502940000000  0.4623060000000  0.5613950000000 1.0
C      1  0.5504590000000  0.4616110000000  0.4436870000000 1.0
C      1  0.4822700000000  0.5501870000000  0.5611900000000 1.0
C      1  0.4756830000000  0.5497670000000  0.4416870000000 1.0
C      1  0.4630560000000  0.4259250000000  0.5169050000000 1.0
C      1  0.4636060000000  0.4284360000000  0.4879050000000 1.0
C      1  0.4493900000000  0.4640800000000  0.5444220000000 1.0
C      1  0.4479180000000  0.4659820000000  0.4605620000000 1.0
C      1  0.4717290000000  0.5512230000000  0.5150330000000 1.0
C      1  0.4687740000000  0.5457720000000  0.4871400000000 1.0
C      1  0.5626200000000  0.5401770000000  0.4465460000000 1.0
C      1  0.5545200000000  0.5392900000000  0.5517930000000 1.0
C      1  0.4514530000000  0.5076370000000  0.5615980000000 1.0
C      1  0.4464860000000  0.5070500000000  0.4355010000000 1.0
C      1  0.5694330000000  0.4722470000000  0.5393540000000 1.0
C      1  0.5690280000000  0.4720450000000  0.4652070000000 1.0
C      1  0.5152940000000  0.4283300000000  0.5183480000000 1.0
C      1  0.5157920000000  0.4283010000000  0.4882680000000 1.0
C      1  0.5310510000000  0.4523300000000  0.4757590000000 1.0
C      1  0.5319690000000  0.4515280000000  0.5291380000000 1.0
C      1  0.4734910000000  0.4689340000000  0.4451590000000 1.0
C      1  0.4729940000000  0.4655580000000  0.5633850000000 1.0
C      1  0.4546590000000  0.5380540000000  0.5564380000000 1.0
C      1  0.4489300000000  0.5355850000000  0.4443110000000 1.0
C      1  0.5309760000000  0.5267570000000  0.5653580000000 1.0
C      1  0.5445750000000  0.5398160000000  0.4228660000000 1.0
C      1  0.4944520000000  0.5393120000000  0.4216020000000 1.0
C      1  0.4972670000000  0.5349420000000  0.5809100000000 1.0
C      1  0.5768340000000  0.5216390000000  0.5512400000000 1.0
C      1  0.5801340000000  0.5176470000000  0.4473040000000 1.0
C      1  0.4982270000000  0.4523250000000  0.5668480000000 1.0
C      1  0.4992960000000  0.4570370000000  0.4421400000000 1.0
C      1  0.5161800000000  0.4755600000000  0.5169170000000 1.0
C      1  0.5133760000000  0.4751170000000  0.4863140000000 1.0
C      1  0.5190970000000  0.5018840000000  0.4757510000000 1.0
C      1  0.5226800000000  0.5030490000000  0.5245890000000 1.0
C      1  0.4119140000000  0.5182960000000  0.5096860000000 1.0
C      1  0.4168670000000  0.5225630000000  0.4821260000000 1.0
C      1  0.4765690000000  0.4980290000000  0.5337710000000 1.0
C      1  0.4941100000000  0.5131740000000  0.4645420000000 1.0
C      1  0.4437000000000  0.4490170000000  0.4841600000000 1.0
C      1  0.4427300000000  0.4457340000000  0.5227880000000 1.0
C      1  0.5462870000000  0.5466880000000  0.5242130000000 1.0
C      1  0.5448350000000  0.5424610000000  0.4703440000000 1.0
C      1  0.5187780000000  0.5829790000000  0.4743010000000 1.0
C      1  0.5180250000000  0.5789540000000  0.5010210000000 1.0
C      1  0.5192420000000  0.5568430000000  0.4619280000000 1.0
C      1  0.5207200000000  0.5622370000000  0.5233290000000 1.0
C      1  0.4957690000000  0.5056110000000  0.5822990000000 1.0
C      1  0.4952320000000  0.5104490000000  0.4330990000000 1.0
C      1  0.4812840000000  0.4693030000000  0.4890180000000 1.0
C      1  0.4864400000000  0.4701740000000  0.5214910000000 1.0
C      1  0.5224990000000  0.4671260000000  0.5692210000000 1.0
C      1  0.5236310000000  0.4706580000000  0.4366180000000 1.0
C      1  0.5412930000000  0.5079760000000  0.5852070000000 1.0
C      1  0.5402040000000  0.5130880000000  0.4148300000000 1.0
C      1  0.4086750000000  0.5005200000000  0.4664650000000 1.0
C      1  0.4316550000000  0.4993060000000  0.5166530000000 1.0
C      1  0.4894210000000  0.4331410000000  0.4773150000000 1.0
C      1  0.4883720000000  0.4327200000000  0.5290260000000 1.0
C      1  0.4456660000000  0.5297340000000  0.4739520000000 1.0
C      1  0.4486670000000  0.5424250000000  0.5285900000000 1.0
END
