TITL C-3578199-7832-578 3.08696833439116e-06 125000 -542.359003813437 0 0 89 (C1) n - 1
REM
REM in /home/bkarasulu/work/CARBON/AIRSS/Generating-Clusters/EDIP-Nigel-Params/with-SteepDescent/Higher-Symm/SD-CG/HFTN-CG
REM
REM
REM
REM
REM
REM ./C.cell (12c818d87b63d06a65506943cc24bca4)
REM
REM compiler GCC version 9.2.1 20190827 (Red Hat 9.2.1-1)
REM options -cpp -mtune=generic -march=x86-64 -g -O0 -fpre-include=/usr/include/finclude/math-vector-fortran.h
REM seed -704190995 1486116261 -724354951 299273340 -765722597 1529040098 261665766 1918406866 -974091831 1627124576 1948773649 1906532809 1887179607 -1039475928 -1563925763 917749668 -1397786498 1516492142 -1803240248 179529431 290348806 327033672 -319999236 -1724573118 1016678891 2063070901 -159475892 913418982 -874427297 -1962077399 -1124804486 -337807943 -1660891430
REM
CELL 1.54180   50.00000   50.00000   50.00000   90.00000   90.00000   90.00000
LATT -1
SFAC C  
C      1  0.4546930000000  0.5541500000000  0.4680990000000 1.0
C      1  0.4288450000000  0.4999320000000  0.4693660000000 1.0
C      1  0.4558710000000  0.4433760000000  0.4687560000000 1.0
C      1  0.5165360000000  0.4307950000000  0.4702040000000 1.0
C      1  0.5642360000000  0.4701190000000  0.4682720000000 1.0
C      1  0.5621940000000  0.5323260000000  0.4679950000000 1.0
C      1  0.5157710000000  0.5682480000000  0.4667300000000 1.0
C      1  0.5227340000000  0.4487740000000  0.5694000000000 1.0
C      1  0.5697200000000  0.4825530000000  0.5639280000000 1.0
C      1  0.5411860000000  0.5251310000000  0.5645480000000 1.0
C      1  0.5025740000000  0.5688520000000  0.5625800000000 1.0
C      1  0.4641810000000  0.5360390000000  0.5613350000000 1.0
C      1  0.4383230000000  0.4887600000000  0.5664720000000 1.0
C      1  0.4694670000000  0.4456690000000  0.5683290000000 1.0
C      1  0.4978820000000  0.5356500000000  0.5115580000000 1.0
C      1  0.4709510000000  0.5206690000000  0.5103960000000 1.0
C      1  0.4645980000000  0.4912580000000  0.5142780000000 1.0
C      1  0.4857670000000  0.4687060000000  0.5089270000000 1.0
C      1  0.5188060000000  0.4705900000000  0.5092440000000 1.0
C      1  0.5367810000000  0.4958340000000  0.5149510000000 1.0
C      1  0.5261750000000  0.5237560000000  0.5084460000000 1.0
C      1  0.5532050000000  0.5400070000000  0.5433370000000 1.0
C      1  0.5026360000000  0.5797950000000  0.5377990000000 1.0
C      1  0.4474390000000  0.5482110000000  0.5424660000000 1.0
C      1  0.4246860000000  0.4837130000000  0.5425630000000 1.0
C      1  0.4649230000000  0.4390170000000  0.5418890000000 1.0
C      1  0.5304020000000  0.4394160000000  0.5441410000000 1.0
C      1  0.5798110000000  0.4818420000000  0.5387870000000 1.0
C      1  0.5718130000000  0.4655450000000  0.4959160000000 1.0
C      1  0.5710340000000  0.5345180000000  0.4961340000000 1.0
C      1  0.5190580000000  0.5768460000000  0.4943520000000 1.0
C      1  0.4512580000000  0.5624240000000  0.4957610000000 1.0
C      1  0.4201400000000  0.5017180000000  0.4974670000000 1.0
C      1  0.4497460000000  0.4383580000000  0.4968770000000 1.0
C      1  0.5170690000000  0.4239980000000  0.4990070000000 1.0
C      1  0.4529310000000  0.4665790000000  0.5797770000000 1.0
C      1  0.4961080000000  0.4440370000000  0.5769610000000 1.0
C      1  0.5358730000000  0.4726090000000  0.5800510000000 1.0
C      1  0.5448570000000  0.4957850000000  0.5648040000000 1.0
C      1  0.5157720000000  0.5344500000000  0.5751760000000 1.0
C      1  0.4925110000000  0.5428490000000  0.5606380000000 1.0
C      1  0.4604050000000  0.5076540000000  0.5648200000000 1.0
C      1  0.4619370000000  0.5447920000000  0.4192470000000 1.0
C      1  0.4449020000000  0.4995010000000  0.4189030000000 1.0
C      1  0.4663130000000  0.4561340000000  0.4195530000000 1.0
C      1  0.5130190000000  0.4444260000000  0.4194060000000 1.0
C      1  0.5491820000000  0.4763920000000  0.4191150000000 1.0
C      1  0.5522550000000  0.5250770000000  0.4179020000000 1.0
C      1  0.5096590000000  0.5466710000000  0.4137430000000 1.0
C      1  0.5596170000000  0.4433620000000  0.5071780000000 1.0
C      1  0.5840940000000  0.5113940000000  0.5037740000000 1.0
C      1  0.5429450000000  0.5699070000000  0.5066430000000 1.0
C      1  0.4720160000000  0.5790460000000  0.5031440000000 1.0
C      1  0.4224140000000  0.5272630000000  0.5079440000000 1.0
C      1  0.4301090000000  0.4557890000000  0.5055560000000 1.0
C      1  0.4918070000000  0.4192990000000  0.5090910000000 1.0
C      1  0.5598100000000  0.5009270000000  0.4601420000000 1.0
C      1  0.5348990000000  0.5460310000000  0.4559400000000 1.0
C      1  0.4862750000000  0.5593490000000  0.4595470000000 1.0
C      1  0.4456760000000  0.5250720000000  0.4583140000000 1.0
C      1  0.4454320000000  0.4730830000000  0.4604150000000 1.0
C      1  0.4866540000000  0.4399240000000  0.4593990000000 1.0
C      1  0.5386880000000  0.4527930000000  0.4591440000000 1.0
C      1  0.4476870000000  0.4741000000000  0.4301910000000 1.0
C      1  0.4871580000000  0.4402030000000  0.4293270000000 1.0
C      1  0.5379460000000  0.4527550000000  0.4290960000000 1.0
C      1  0.5584290000000  0.5004930000000  0.4299420000000 1.0
C      1  0.5371110000000  0.5474990000000  0.4263340000000 1.0
C      1  0.4855380000000  0.5571010000000  0.4289220000000 1.0
C      1  0.4440640000000  0.5255410000000  0.4288640000000 1.0
C      1  0.4920420000000  0.5311630000000  0.4732480000000 1.0
C      1  0.4730040000000  0.5118070000000  0.4595770000000 1.0
C      1  0.4706530000000  0.4852070000000  0.4711370000000 1.0
C      1  0.4927130000000  0.4679820000000  0.4655520000000 1.0
C      1  0.5201950000000  0.4747700000000  0.4655510000000 1.0
C      1  0.5316160000000  0.5003880000000  0.4713610000000 1.0
C      1  0.5163130000000  0.5215250000000  0.4581660000000 1.0
C      1  0.5487130000000  0.5428420000000  0.5144360000000 1.0
C      1  0.4969920000000  0.5684100000000  0.5121510000000 1.0
C      1  0.4474310000000  0.5396390000000  0.5145890000000 1.0
C      1  0.4342110000000  0.4824150000000  0.5153510000000 1.0
C      1  0.4734340000000  0.4404570000000  0.5147560000000 1.0
C      1  0.5322600000000  0.4436060000000  0.5157580000000 1.0
C      1  0.5689080000000  0.4892430000000  0.5135010000000 1.0
C      1  0.5011230000000  0.4905750000000  0.5597410000000 1.0
C      1  0.5017920000000  0.5086210000000  0.4342520000000 1.0
C      1  0.5038330000000  0.5190810000000  0.4082100000000 1.0
C      1  0.4808220000000  0.4934400000000  0.5784260000000 1.0
C      1  0.5008640000000  0.4966560000000  0.5314290000000 1.0
END
