TITL C-3578195-8548-149 -3.6366811967531e-06 125000 -1206.19008875374 0 0 192 (C1) n - 1
REM
REM in /home/bkarasulu/work/CARBON/AIRSS/Generating-Clusters/EDIP-Nigel-Params/with-SteepDescent/Higher-Symm/SD-CG/HFTN-CG
REM
REM
REM
REM
REM
REM ./C.cell (12c818d87b63d06a65506943cc24bca4)
REM
REM compiler GCC version 9.2.1 20190827 (Red Hat 9.2.1-1)
REM options -cpp -mtune=generic -march=x86-64 -g -O0 -fpre-include=/usr/include/finclude/math-vector-fortran.h
REM seed -1622524742 940057556 -1932578535 -852552511 -719175395 1438974876 1889712390 -21291423 -2090570703 2125080660 1457927597 241213508 1520097560 513218573 1110753765 953609777 -108099413 -280959183 -1797775766 35815336 600318931 1522702792 437556971 932158287 180966431 -1648678714 -812465966 -324062345 867930677 777394749 758415519 -1123152130 -1535094032
REM
CELL 1.54180   50.00000   50.00000   50.00000   90.00000   90.00000   90.00000
LATT -1
SFAC C  
C      1  0.5591250000000  0.5845090000000  0.5122100000000 1.0
C      1  0.5584620000000  0.4752660000000  0.4581230000000 1.0
C      1  0.4459940000000  0.5806100000000  0.5712600000000 1.0
C      1  0.4873230000000  0.4676970000000  0.4362060000000 1.0
C      1  0.5677730000000  0.4244480000000  0.4195860000000 1.0
C      1  0.5725940000000  0.5644060000000  0.4538090000000 1.0
C      1  0.4483370000000  0.4683220000000  0.5777610000000 1.0
C      1  0.4012150000000  0.5512270000000  0.5156410000000 1.0
C      1  0.5331160000000  0.4376900000000  0.5621860000000 1.0
C      1  0.4974260000000  0.5074560000000  0.5355610000000 1.0
C      1  0.4079020000000  0.5577630000000  0.4683340000000 1.0
C      1  0.4222410000000  0.4383470000000  0.5459070000000 1.0
C      1  0.3786220000000  0.5386290000000  0.5040280000000 1.0
C      1  0.6102840000000  0.4917220000000  0.5107140000000 1.0
C      1  0.4778390000000  0.4028290000000  0.4665900000000 1.0
C      1  0.5220240000000  0.4460990000000  0.5897950000000 1.0
C      1  0.6205940000000  0.5278260000000  0.5433870000000 1.0
C      1  0.5869700000000  0.5693690000000  0.4772780000000 1.0
C      1  0.5388450000000  0.5022790000000  0.4921290000000 1.0
C      1  0.5388100000000  0.5116770000000  0.5199680000000 1.0
C      1  0.5718910000000  0.4018270000000  0.4637110000000 1.0
C      1  0.4181540000000  0.5023640000000  0.6004510000000 1.0
C      1  0.5680540000000  0.4491170000000  0.5565490000000 1.0
C      1  0.4236560000000  0.4616300000000  0.5627990000000 1.0
C      1  0.5682240000000  0.4652960000000  0.5110040000000 1.0
C      1  0.3820550000000  0.5108630000000  0.5017880000000 1.0
C      1  0.4882710000000  0.4386290000000  0.5027580000000 1.0
C      1  0.4907840000000  0.5108890000000  0.5072950000000 1.0
C      1  0.5239180000000  0.5212560000000  0.5695280000000 1.0
C      1  0.4546950000000  0.4006680000000  0.5097820000000 1.0
C      1  0.5791790000000  0.4840000000000  0.5857090000000 1.0
C      1  0.4452540000000  0.4945080000000  0.5950500000000 1.0
C      1  0.4822950000000  0.5445910000000  0.4074590000000 1.0
C      1  0.5723660000000  0.5246110000000  0.4212960000000 1.0
C      1  0.4524280000000  0.4644300000000  0.4906230000000 1.0
C      1  0.4340910000000  0.5472700000000  0.4268480000000 1.0
C      1  0.6200490000000  0.4737240000000  0.4908110000000 1.0
C      1  0.5568340000000  0.4063860000000  0.4381010000000 1.0
C      1  0.5273710000000  0.4052190000000  0.4373290000000 1.0
C      1  0.4740070000000  0.5193500000000  0.3926550000000 1.0
C      1  0.4831400000000  0.4568420000000  0.4087440000000 1.0
C      1  0.4642790000000  0.5470740000000  0.5982580000000 1.0
C      1  0.4845540000000  0.5657830000000  0.5249670000000 1.0
C      1  0.4350950000000  0.4366830000000  0.4515600000000 1.0
C      1  0.5024980000000  0.4145970000000  0.4247450000000 1.0
C      1  0.4545410000000  0.5300180000000  0.4424200000000 1.0
C      1  0.5024660000000  0.4341860000000  0.4042630000000 1.0
C      1  0.3780910000000  0.4979830000000  0.4746360000000 1.0
C      1  0.5275840000000  0.4914360000000  0.5687720000000 1.0
C      1  0.5229540000000  0.5705670000000  0.4353940000000 1.0
C      1  0.5343720000000  0.4829070000000  0.4426810000000 1.0
C      1  0.5876040000000  0.5103400000000  0.5785210000000 1.0
C      1  0.5466770000000  0.5231400000000  0.4727490000000 1.0
C      1  0.4564010000000  0.5851140000000  0.4610690000000 1.0
C      1  0.4811480000000  0.4322550000000  0.5579790000000 1.0
C      1  0.5929720000000  0.4646850000000  0.5677710000000 1.0
C      1  0.4748390000000  0.5854770000000  0.5698160000000 1.0
C      1  0.5402150000000  0.4611320000000  0.6053150000000 1.0
C      1  0.4523710000000  0.4017100000000  0.4814600000000 1.0
C      1  0.5111250000000  0.4644410000000  0.4545080000000 1.0
C      1  0.4618210000000  0.6111820000000  0.5268060000000 1.0
C      1  0.5816890000000  0.5184630000000  0.4701430000000 1.0
C      1  0.4523980000000  0.4500170000000  0.4087830000000 1.0
C      1  0.4978250000000  0.4855110000000  0.5772770000000 1.0
C      1  0.4118460000000  0.5199820000000  0.5799590000000 1.0
C      1  0.3885100000000  0.5192870000000  0.4445280000000 1.0
C      1  0.5115010000000  0.5536580000000  0.5360640000000 1.0
C      1  0.4828610000000  0.5386410000000  0.4381620000000 1.0
C      1  0.5681220000000  0.5291860000000  0.5914800000000 1.0
C      1  0.4686630000000  0.5862860000000  0.4333810000000 1.0
C      1  0.4172240000000  0.4814920000000  0.4608170000000 1.0
C      1  0.4965780000000  0.6156680000000  0.4906930000000 1.0
C      1  0.4205270000000  0.5649450000000  0.4448030000000 1.0
C      1  0.4643930000000  0.4821920000000  0.4465810000000 1.0
C      1  0.4441910000000  0.4373280000000  0.5060290000000 1.0
C      1  0.4106820000000  0.5155020000000  0.4261340000000 1.0
C      1  0.5337510000000  0.5859440000000  0.4982150000000 1.0
C      1  0.5263360000000  0.4079870000000  0.5567530000000 1.0
C      1  0.5350130000000  0.5681150000000  0.5785000000000 1.0
C      1  0.4307100000000  0.4688160000000  0.4141680000000 1.0
C      1  0.4915240000000  0.4496840000000  0.5330200000000 1.0
C      1  0.4995170000000  0.4190130000000  0.4822620000000 1.0
C      1  0.4167550000000  0.4390640000000  0.5168680000000 1.0
C      1  0.5217610000000  0.5191440000000  0.3900640000000 1.0
C      1  0.4553300000000  0.5078460000000  0.5593060000000 1.0
C      1  0.4231230000000  0.5074690000000  0.4780290000000 1.0
C      1  0.5838800000000  0.4905530000000  0.4554070000000 1.0
C      1  0.5910340000000  0.4259920000000  0.4874770000000 1.0
C      1  0.4866340000000  0.5649160000000  0.5886480000000 1.0
C      1  0.5271030000000  0.5778880000000  0.5504450000000 1.0
C      1  0.5111920000000  0.3825580000000  0.4874180000000 1.0
C      1  0.5924340000000  0.4433740000000  0.4645670000000 1.0
C      1  0.4324730000000  0.5781880000000  0.5463170000000 1.0
C      1  0.5140580000000  0.5563850000000  0.5950940000000 1.0
C      1  0.5772470000000  0.4294330000000  0.5360360000000 1.0
C      1  0.4980130000000  0.5036160000000  0.3935710000000 1.0
C      1  0.5164300000000  0.6063840000000  0.5115250000000 1.0
C      1  0.4668970000000  0.5161380000000  0.6008440000000 1.0
C      1  0.5888960000000  0.4422250000000  0.5119110000000 1.0
C      1  0.5361650000000  0.5947420000000  0.4705370000000 1.0
C      1  0.4820570000000  0.5832060000000  0.4758670000000 1.0
C      1  0.6096430000000  0.4808660000000  0.5479840000000 1.0
C      1  0.4524280000000  0.4285830000000  0.4295330000000 1.0
C      1  0.4833680000000  0.5604510000000  0.4944380000000 1.0
C      1  0.5301800000000  0.3922660000000  0.5303260000000 1.0
C      1  0.4318240000000  0.4161180000000  0.4700500000000 1.0
C      1  0.5537170000000  0.3990630000000  0.5102710000000 1.0
C      1  0.4006470000000  0.4621490000000  0.5062570000000 1.0
C      1  0.4388160000000  0.5605410000000  0.5910430000000 1.0
C      1  0.4978180000000  0.5216510000000  0.4575570000000 1.0
C      1  0.4196450000000  0.5286480000000  0.5266230000000 1.0
C      1  0.5013080000000  0.4003310000000  0.5681390000000 1.0
C      1  0.5174370000000  0.4337400000000  0.4614030000000 1.0
C      1  0.4783920000000  0.3941210000000  0.5250700000000 1.0
C      1  0.5800920000000  0.4939030000000  0.5058410000000 1.0
C      1  0.4761220000000  0.5003970000000  0.4665370000000 1.0
C      1  0.4451670000000  0.6059820000000  0.4803930000000 1.0
C      1  0.4234000000000  0.5112570000000  0.5539770000000 1.0
C      1  0.3933230000000  0.4709670000000  0.4770520000000 1.0
C      1  0.4912750000000  0.3770840000000  0.4682350000000 1.0
C      1  0.4987410000000  0.4819500000000  0.4994510000000 1.0
C      1  0.5408540000000  0.4537060000000  0.4993930000000 1.0
C      1  0.4130000000000  0.4839200000000  0.5478220000000 1.0
C      1  0.4600920000000  0.5532510000000  0.5393590000000 1.0
C      1  0.4824230000000  0.5933040000000  0.5408660000000 1.0
C      1  0.5576250000000  0.5496230000000  0.5729660000000 1.0
C      1  0.5186280000000  0.5261740000000  0.5984570000000 1.0
C      1  0.4152030000000  0.5670220000000  0.4946910000000 1.0
C      1  0.5815440000000  0.5440600000000  0.5241700000000 1.0
C      1  0.5311350000000  0.5405540000000  0.5176180000000 1.0
C      1  0.5648280000000  0.4465590000000  0.4543630000000 1.0
C      1  0.5439970000000  0.4343370000000  0.4751640000000 1.0
C      1  0.5678360000000  0.5158830000000  0.5226920000000 1.0
C      1  0.5439440000000  0.5726120000000  0.4547490000000 1.0
C      1  0.5415460000000  0.5263470000000  0.4197050000000 1.0
C      1  0.5242800000000  0.4636320000000  0.3930610000000 1.0
C      1  0.4761490000000  0.4015470000000  0.5534490000000 1.0
C      1  0.5330020000000  0.4817970000000  0.5403500000000 1.0
C      1  0.5737310000000  0.5590340000000  0.5502740000000 1.0
C      1  0.4532760000000  0.5039510000000  0.4285940000000 1.0
C      1  0.3922990000000  0.4779140000000  0.5287900000000 1.0
C      1  0.4550660000000  0.4551250000000  0.5330140000000 1.0
C      1  0.4940710000000  0.5067610000000  0.5987970000000 1.0
C      1  0.4348490000000  0.5996220000000  0.5274160000000 1.0
C      1  0.5494370000000  0.4045290000000  0.4819100000000 1.0
C      1  0.5055610000000  0.3897880000000  0.5143390000000 1.0
C      1  0.5110970000000  0.5470620000000  0.3951170000000 1.0
C      1  0.4814900000000  0.4621170000000  0.4877850000000 1.0
C      1  0.5752530000000  0.5635780000000  0.5019600000000 1.0
C      1  0.5843170000000  0.4969070000000  0.4248230000000 1.0
C      1  0.4154630000000  0.5464080000000  0.5864450000000 1.0
C      1  0.5497790000000  0.4253890000000  0.5238290000000 1.0
C      1  0.6091800000000  0.5202280000000  0.4962350000000 1.0
C      1  0.5700900000000  0.4753890000000  0.4088420000000 1.0
C      1  0.5407160000000  0.4779180000000  0.4127070000000 1.0
C      1  0.5296020000000  0.5139010000000  0.4470490000000 1.0
C      1  0.5557260000000  0.5803530000000  0.5406990000000 1.0
C      1  0.4769870000000  0.4140600000000  0.4389300000000 1.0
C      1  0.5607750000000  0.4721020000000  0.5388230000000 1.0
C      1  0.5012700000000  0.5304500000000  0.5527320000000 1.0
C      1  0.5006750000000  0.5372670000000  0.4857700000000 1.0
C      1  0.4510220000000  0.5054660000000  0.4000730000000 1.0
C      1  0.6097230000000  0.5075000000000  0.5589190000000 1.0
C      1  0.4019540000000  0.5288390000000  0.4683590000000 1.0
C      1  0.4578500000000  0.5649620000000  0.4131480000000 1.0
C      1  0.5317100000000  0.5549100000000  0.4138550000000 1.0
C      1  0.4526030000000  0.5160480000000  0.4787440000000 1.0
C      1  0.5302260000000  0.5479660000000  0.4887190000000 1.0
C      1  0.4999830000000  0.5898930000000  0.4366710000000 1.0
C      1  0.5210470000000  0.4534370000000  0.5384460000000 1.0
C      1  0.5491290000000  0.4853120000000  0.5922990000000 1.0
C      1  0.5099430000000  0.6061550000000  0.4616430000000 1.0
C      1  0.6103290000000  0.5387300000000  0.5199460000000 1.0
C      1  0.5244250000000  0.4774140000000  0.4867600000000 1.0
C      1  0.4488770000000  0.4866780000000  0.5224300000000 1.0
C      1  0.6047890000000  0.4702760000000  0.4672410000000 1.0
C      1  0.4670420000000  0.6175500000000  0.4985360000000 1.0
C      1  0.4471390000000  0.5358690000000  0.5200680000000 1.0
C      1  0.4602490000000  0.5127360000000  0.5078180000000 1.0
C      1  0.4974850000000  0.4752490000000  0.3885070000000 1.0
C      1  0.4780770000000  0.4882580000000  0.5486190000000 1.0
C      1  0.4706870000000  0.5349010000000  0.5616120000000 1.0
C      1  0.5106010000000  0.6020370000000  0.5401080000000 1.0
C      1  0.4132500000000  0.4857200000000  0.4305480000000 1.0
C      1  0.4254960000000  0.5942060000000  0.4998560000000 1.0
C      1  0.4951270000000  0.4592650000000  0.5905420000000 1.0
C      1  0.5827730000000  0.5376460000000  0.4461830000000 1.0
C      1  0.4419630000000  0.4647250000000  0.4619510000000 1.0
C      1  0.4121120000000  0.5046270000000  0.5085060000000 1.0
C      1  0.4696240000000  0.4474600000000  0.5813870000000 1.0
C      1  0.5465020000000  0.5136400000000  0.6067350000000 1.0
C      1  0.5789520000000  0.4490870000000  0.4157040000000 1.0
END
