TITL C-3577077-324-57 6.38433415127913e-07 125000 -1101.17773094937 0 0 174 (C1) n - 1
REM
REM in /home/bkarasulu/work/CARBON/AIRSS/Generating-Clusters/EDIP-Nigel-Params/with-SteepDescent/Higher-Symm/SD-CG/HFTN-CG
REM
REM
REM
REM
REM
REM ./C.cell (12c818d87b63d06a65506943cc24bca4)
REM
REM compiler GCC version 9.2.1 20190827 (Red Hat 9.2.1-1)
REM options -cpp -mtune=generic -march=x86-64 -g -O0 -fpre-include=/usr/include/finclude/math-vector-fortran.h
REM seed -1749478240 -1656243506 -956610358 -89907845 807410426 -2102614468 1036662408 1737735621 631605395 1585640270 -1474951843 -1230354340 -1405930004 461287494 1200065280 -612466141 -1752173792 1639793406 -501969074 -2011591388 817692066 686683776 401002327 -1359535793 1655622824 -859327899 -24897551 -816847184 374570027 2110794194 1992024735 361003433 363875964
REM
CELL 1.54180   50.00000   50.00000   50.00000   90.00000   90.00000   90.00000
LATT -1
SFAC C  
C      1  0.5384650000000  0.5394270000000  0.6135530000000 1.0
C      1  0.5518880000000  0.4902010000000  0.6057760000000 1.0
C      1  0.5083580000000  0.4517870000000  0.6061830000000 1.0
C      1  0.4584130000000  0.4597690000000  0.6147870000000 1.0
C      1  0.4487640000000  0.5096860000000  0.6065410000000 1.0
C      1  0.4906700000000  0.5470390000000  0.6082320000000 1.0
C      1  0.4617320000000  0.5349270000000  0.6111860000000 1.0
C      1  0.4544950000000  0.4867930000000  0.6209600000000 1.0
C      1  0.4839470000000  0.4471070000000  0.6208540000000 1.0
C      1  0.5377260000000  0.4654890000000  0.6102220000000 1.0
C      1  0.5471050000000  0.5137390000000  0.6193750000000 1.0
C      1  0.5137530000000  0.5471250000000  0.6239500000000 1.0
C      1  0.5637690000000  0.5156020000000  0.4343990000000 1.0
C      1  0.5519730000000  0.4374620000000  0.4327910000000 1.0
C      1  0.4578400000000  0.4089270000000  0.4292340000000 1.0
C      1  0.4366760000000  0.4848030000000  0.4353250000000 1.0
C      1  0.4478570000000  0.5626620000000  0.4332030000000 1.0
C      1  0.5428460000000  0.5914670000000  0.4280490000000 1.0
C      1  0.4348140000000  0.5154000000000  0.4366480000000 1.0
C      1  0.4479460000000  0.4373850000000  0.4316690000000 1.0
C      1  0.5417500000000  0.4090890000000  0.4303220000000 1.0
C      1  0.5639530000000  0.4849190000000  0.4352760000000 1.0
C      1  0.5525800000000  0.5629640000000  0.4306600000000 1.0
C      1  0.4584120000000  0.5909650000000  0.4306960000000 1.0
C      1  0.5352580000000  0.5193930000000  0.4434970000000 1.0
C      1  0.5285210000000  0.4536600000000  0.4425320000000 1.0
C      1  0.4840780000000  0.4340230000000  0.4604800000000 1.0
C      1  0.4653060000000  0.4810590000000  0.4438290000000 1.0
C      1  0.4711410000000  0.5463540000000  0.4433900000000 1.0
C      1  0.5164650000000  0.5663820000000  0.4591730000000 1.0
C      1  0.4623330000000  0.5188390000000  0.4516310000000 1.0
C      1  0.4719230000000  0.4532160000000  0.4406370000000 1.0
C      1  0.5159690000000  0.4338900000000  0.4614990000000 1.0
C      1  0.5357190000000  0.4816120000000  0.4460670000000 1.0
C      1  0.5284090000000  0.5471500000000  0.4393710000000 1.0
C      1  0.4843330000000  0.5662640000000  0.4614660000000 1.0
C      1  0.4523750000000  0.4459180000000  0.5895270000000 1.0
C      1  0.4242180000000  0.5092600000000  0.5920800000000 1.0
C      1  0.4788740000000  0.5699030000000  0.5906740000000 1.0
C      1  0.5475690000000  0.5557620000000  0.5910300000000 1.0
C      1  0.5765470000000  0.4900690000000  0.5916740000000 1.0
C      1  0.5221840000000  0.4295000000000  0.5901590000000 1.0
C      1  0.5491770000000  0.4430340000000  0.5922180000000 1.0
C      1  0.5874230000000  0.5153990000000  0.5902580000000 1.0
C      1  0.5298840000000  0.5766650000000  0.5872180000000 1.0
C      1  0.4509060000000  0.5573110000000  0.5925010000000 1.0
C      1  0.4132440000000  0.4840020000000  0.5905800000000 1.0
C      1  0.4729800000000  0.4262090000000  0.5898630000000 1.0
C      1  0.4189580000000  0.4699110000000  0.4551040000000 1.0
C      1  0.4256570000000  0.5590880000000  0.4545890000000 1.0
C      1  0.5288900000000  0.5945250000000  0.4540080000000 1.0
C      1  0.5813600000000  0.5303170000000  0.4543860000000 1.0
C      1  0.5735960000000  0.4412040000000  0.4545380000000 1.0
C      1  0.4715180000000  0.4058910000000  0.4553580000000 1.0
C      1  0.5817340000000  0.4703110000000  0.4553520000000 1.0
C      1  0.5735780000000  0.5592040000000  0.4530490000000 1.0
C      1  0.4714600000000  0.5941550000000  0.4569750000000 1.0
C      1  0.4157720000000  0.5302570000000  0.4551580000000 1.0
C      1  0.4266550000000  0.4410220000000  0.4537200000000 1.0
C      1  0.5283740000000  0.4058950000000  0.4564280000000 1.0
C      1  0.4812330000000  0.4696590000000  0.5465930000000 1.0
C      1  0.4461060000000  0.4851110000000  0.5175140000000 1.0
C      1  0.4699740000000  0.5282490000000  0.5278430000000 1.0
C      1  0.5161870000000  0.5320320000000  0.5462150000000 1.0
C      1  0.5526990000000  0.5155860000000  0.5202160000000 1.0
C      1  0.5288860000000  0.4720240000000  0.5312260000000 1.0
C      1  0.5077260000000  0.4705190000000  0.5486380000000 1.0
C      1  0.5467750000000  0.4927180000000  0.5352720000000 1.0
C      1  0.5331880000000  0.5361510000000  0.5250450000000 1.0
C      1  0.4896700000000  0.5302000000000  0.5469080000000 1.0
C      1  0.4510660000000  0.5086360000000  0.5315660000000 1.0
C      1  0.4652990000000  0.4646800000000  0.5247630000000 1.0
C      1  0.5581040000000  0.4469190000000  0.4049500000000 1.0
C      1  0.4737420000000  0.4065480000000  0.4062570000000 1.0
C      1  0.4344660000000  0.4754230000000  0.4061750000000 1.0
C      1  0.4421490000000  0.5531340000000  0.4054140000000 1.0
C      1  0.5272380000000  0.5937650000000  0.4048320000000 1.0
C      1  0.5662040000000  0.5250030000000  0.4053970000000 1.0
C      1  0.4413710000000  0.4473200000000  0.4040360000000 1.0
C      1  0.5253670000000  0.4070780000000  0.4076470000000 1.0
C      1  0.5655240000000  0.4748830000000  0.4066320000000 1.0
C      1  0.5592560000000  0.5530340000000  0.4031040000000 1.0
C      1  0.4754220000000  0.5924380000000  0.4084300000000 1.0
C      1  0.4354450000000  0.5249360000000  0.4079380000000 1.0
C      1  0.4791840000000  0.4737750000000  0.4903840000000 1.0
C      1  0.4581800000000  0.5174090000000  0.4815980000000 1.0
C      1  0.4876350000000  0.5569730000000  0.4917330000000 1.0
C      1  0.5229120000000  0.5263030000000  0.4893400000000 1.0
C      1  0.5441310000000  0.4819960000000  0.4878940000000 1.0
C      1  0.5134530000000  0.4429090000000  0.4928620000000 1.0
C      1  0.5249780000000  0.4679110000000  0.5030290000000 1.0
C      1  0.5470650000000  0.5101510000000  0.4919230000000 1.0
C      1  0.5179010000000  0.5548330000000  0.4881840000000 1.0
C      1  0.4766360000000  0.5310850000000  0.4999620000000 1.0
C      1  0.4538700000000  0.4885040000000  0.4890550000000 1.0
C      1  0.4833720000000  0.4452490000000  0.4894190000000 1.0
C      1  0.5142390000000  0.4287680000000  0.3938510000000 1.0
C      1  0.4661650000000  0.4503240000000  0.3879400000000 1.0
C      1  0.4577860000000  0.5145070000000  0.3912870000000 1.0
C      1  0.4867790000000  0.5704420000000  0.3953570000000 1.0
C      1  0.5345270000000  0.5499150000000  0.3869660000000 1.0
C      1  0.5448940000000  0.4855840000000  0.3884500000000 1.0
C      1  0.4849350000000  0.4281650000000  0.3923300000000 1.0
C      1  0.5331110000000  0.4506950000000  0.3888100000000 1.0
C      1  0.5461570000000  0.5140900000000  0.3870250000000 1.0
C      1  0.5157460000000  0.5721510000000  0.3910520000000 1.0
C      1  0.4678280000000  0.5486340000000  0.3896430000000 1.0
C      1  0.4550500000000  0.4861230000000  0.3880720000000 1.0
C      1  0.5494020000000  0.5987150000000  0.4743630000000 1.0
C      1  0.5966710000000  0.5151850000000  0.4748260000000 1.0
C      1  0.5674380000000  0.4243070000000  0.4780880000000 1.0
C      1  0.4506650000000  0.4016080000000  0.4753650000000 1.0
C      1  0.4027480000000  0.4849580000000  0.4750940000000 1.0
C      1  0.4320780000000  0.5755420000000  0.4783450000000 1.0
C      1  0.4504000000000  0.5978420000000  0.4769970000000 1.0
C      1  0.4028580000000  0.5140070000000  0.4764940000000 1.0
C      1  0.4325340000000  0.4240090000000  0.4771870000000 1.0
C      1  0.5492910000000  0.4018490000000  0.4764800000000 1.0
C      1  0.5963840000000  0.4861880000000  0.4757420000000 1.0
C      1  0.5673080000000  0.5761270000000  0.4765390000000 1.0
C      1  0.4352850000000  0.5518010000000  0.5684090000000 1.0
C      1  0.5164840000000  0.5863570000000  0.5650050000000 1.0
C      1  0.5876540000000  0.5325370000000  0.5684990000000 1.0
C      1  0.5651350000000  0.4477260000000  0.5681450000000 1.0
C      1  0.4837160000000  0.4159070000000  0.5655080000000 1.0
C      1  0.4117390000000  0.4671060000000  0.5686720000000 1.0
C      1  0.5665790000000  0.5536950000000  0.5685990000000 1.0
C      1  0.4872000000000  0.5804570000000  0.5649510000000 1.0
C      1  0.4189150000000  0.5264510000000  0.5692840000000 1.0
C      1  0.4321190000000  0.4454000000000  0.5685180000000 1.0
C      1  0.5135600000000  0.4189190000000  0.5646670000000 1.0
C      1  0.5816010000000  0.4729530000000  0.5688160000000 1.0
C      1  0.4585400000000  0.6081190000000  0.5015990000000 1.0
C      1  0.5816360000000  0.5787870000000  0.4998070000000 1.0
C      1  0.6079980000000  0.4756400000000  0.4987880000000 1.0
C      1  0.5409340000000  0.3914170000000  0.5009470000000 1.0
C      1  0.4175130000000  0.4208810000000  0.4999310000000 1.0
C      1  0.3910130000000  0.5243120000000  0.4995510000000 1.0
C      1  0.5404000000000  0.6090410000000  0.4985330000000 1.0
C      1  0.4176000000000  0.5783150000000  0.5014340000000 1.0
C      1  0.3909020000000  0.4731430000000  0.4973830000000 1.0
C      1  0.4591690000000  0.3912030000000  0.4996950000000 1.0
C      1  0.5822270000000  0.4213710000000  0.5009760000000 1.0
C      1  0.6087810000000  0.5267480000000  0.4970920000000 1.0
C      1  0.4034250000000  0.5127550000000  0.5474140000000 1.0
C      1  0.4655210000000  0.5868020000000  0.5458430000000 1.0
C      1  0.5624090000000  0.5731230000000  0.5463130000000 1.0
C      1  0.5965590000000  0.4869240000000  0.5468530000000 1.0
C      1  0.5350340000000  0.4128830000000  0.5453250000000 1.0
C      1  0.4369390000000  0.4267790000000  0.5461100000000 1.0
C      1  0.5970090000000  0.5167780000000  0.5450700000000 1.0
C      1  0.5358900000000  0.5875100000000  0.5430510000000 1.0
C      1  0.4395560000000  0.5715390000000  0.5466680000000 1.0
C      1  0.4025320000000  0.4829280000000  0.5453920000000 1.0
C      1  0.4635420000000  0.4126960000000  0.5442250000000 1.0
C      1  0.5610360000000  0.4279150000000  0.5464540000000 1.0
C      1  0.5844450000000  0.5745200000000  0.5269020000000 1.0
C      1  0.6072660000000  0.4697490000000  0.5261150000000 1.0
C      1  0.5262600000000  0.3955990000000  0.5239790000000 1.0
C      1  0.4146470000000  0.4246300000000  0.5270940000000 1.0
C      1  0.3925370000000  0.5301240000000  0.5268880000000 1.0
C      1  0.4738090000000  0.6041120000000  0.5242540000000 1.0
C      1  0.4165830000000  0.5736300000000  0.5285820000000 1.0
C      1  0.3896610000000  0.4672420000000  0.5246760000000 1.0
C      1  0.4730630000000  0.3955920000000  0.5230670000000 1.0
C      1  0.5837610000000  0.4260540000000  0.5280870000000 1.0
C      1  0.6099590000000  0.5324850000000  0.5244210000000 1.0
C      1  0.5268100000000  0.6051400000000  0.5221680000000 1.0
C      1  0.3954640000000  0.5566910000000  0.5340480000000 1.0
C      1  0.6048530000000  0.4431200000000  0.5332730000000 1.0
C      1  0.5001850000000  0.6125090000000  0.5235270000000 1.0
C      1  0.6070890000000  0.5591630000000  0.5315540000000 1.0
C      1  0.3922800000000  0.4404590000000  0.5316520000000 1.0
C      1  0.4996450000000  0.3879960000000  0.5240450000000 1.0
END
