TITL C-3578204-4308-241 -4.18042331220779e-06 125000 -1033.19276607905 0 0 167 (C1) n - 1
REM
REM in /home/bkarasulu/work/CARBON/AIRSS/Generating-Clusters/EDIP-Nigel-Params/with-SteepDescent/Higher-Symm/SD-CG/HFTN-CG
REM
REM
REM
REM
REM
REM ./C.cell (12c818d87b63d06a65506943cc24bca4)
REM
REM compiler GCC version 9.2.1 20190827 (Red Hat 9.2.1-1)
REM options -cpp -mtune=generic -march=x86-64 -g -O0 -fpre-include=/usr/include/finclude/math-vector-fortran.h
REM seed -743471990 2075182015 1689733203 -2081086181 -1955798674 289759689 -684974098 -1051324940 1586933335 1162966043 -1065851850 -1090689509 -1855476000 607499456 -862841486 -65740099 855550307 1941547551 -2115803021 1432411881 574286721 -608417054 1029956834 269373401 1882413134 603911035 1390472316 -1895952548 -142800457 -1635229279 -1570163699 -567103094 302316074
REM
CELL 1.54180   50.00000   50.00000   50.00000   90.00000   90.00000   90.00000
LATT -1
SFAC C  
C      1  0.3876850000000  0.5241840000000  0.5413020000000 1.0
C      1  0.5254830000000  0.5396230000000  0.3873830000000 1.0
C      1  0.5358010000000  0.3890460000000  0.5293880000000 1.0
C      1  0.3898520000000  0.4701520000000  0.4610330000000 1.0
C      1  0.6129650000000  0.5264060000000  0.4603800000000 1.0
C      1  0.6128550000000  0.4724280000000  0.5415760000000 1.0
C      1  0.5272490000000  0.4607110000000  0.6121920000000 1.0
C      1  0.4697550000000  0.5384500000000  0.6112460000000 1.0
C      1  0.4733910000000  0.4566310000000  0.3856380000000 1.0
C      1  0.5367190000000  0.6070530000000  0.4665480000000 1.0
C      1  0.4606350000000  0.3906600000000  0.4684900000000 1.0
C      1  0.4644630000000  0.6084850000000  0.5283040000000 1.0
C      1  0.4906140000000  0.4023700000000  0.5423620000000 1.0
C      1  0.4005310000000  0.5418840000000  0.4972490000000 1.0
C      1  0.5436040000000  0.4947340000000  0.4006170000000 1.0
C      1  0.4905870000000  0.5995030000000  0.4564680000000 1.0
C      1  0.5067880000000  0.4008970000000  0.4602090000000 1.0
C      1  0.5097690000000  0.5955080000000  0.5451840000000 1.0
C      1  0.4016840000000  0.4555780000000  0.5079930000000 1.0
C      1  0.5971970000000  0.5433740000000  0.5043180000000 1.0
C      1  0.5983350000000  0.4577060000000  0.4963570000000 1.0
C      1  0.5408680000000  0.5062400000000  0.5965650000000 1.0
C      1  0.4578740000000  0.4932390000000  0.5991410000000 1.0
C      1  0.4573860000000  0.5017230000000  0.3985490000000 1.0
C      1  0.5265760000000  0.5313490000000  0.5862810000000 1.0
C      1  0.5362290000000  0.5815010000000  0.5372360000000 1.0
C      1  0.5892510000000  0.5326500000000  0.5311110000000 1.0
C      1  0.5320740000000  0.4683790000000  0.4095530000000 1.0
C      1  0.4764160000000  0.5214110000000  0.4066250000000 1.0
C      1  0.4743340000000  0.4707260000000  0.5900140000000 1.0
C      1  0.5265290000000  0.4092270000000  0.4788620000000 1.0
C      1  0.4653740000000  0.5933630000000  0.4710400000000 1.0
C      1  0.4676770000000  0.4131810000000  0.5254750000000 1.0
C      1  0.5895240000000  0.4706950000000  0.4704570000000 1.0
C      1  0.4108810000000  0.5301910000000  0.4703740000000 1.0
C      1  0.4100310000000  0.4688070000000  0.5336620000000 1.0
C      1  0.3851150000000  0.5222430000000  0.5132780000000 1.0
C      1  0.5217310000000  0.5116720000000  0.3895130000000 1.0
C      1  0.5080610000000  0.3854000000000  0.5254790000000 1.0
C      1  0.3899680000000  0.4752220000000  0.4888530000000 1.0
C      1  0.6106530000000  0.5226490000000  0.4881450000000 1.0
C      1  0.6124250000000  0.4770160000000  0.5138340000000 1.0
C      1  0.5218640000000  0.4882880000000  0.6104650000000 1.0
C      1  0.4740890000000  0.5111670000000  0.6156910000000 1.0
C      1  0.4746350000000  0.4845550000000  0.3816330000000 1.0
C      1  0.5106700000000  0.6106390000000  0.4745350000000 1.0
C      1  0.4873650000000  0.3846200000000  0.4746200000000 1.0
C      1  0.4927840000000  0.6098370000000  0.5250040000000 1.0
C      1  0.4999440000000  0.5473450000000  0.5201310000000 1.0
C      1  0.5513690000000  0.5223730000000  0.5057220000000 1.0
C      1  0.5245100000000  0.5011480000000  0.5459280000000 1.0
C      1  0.5071770000000  0.4530340000000  0.4757590000000 1.0
C      1  0.4882640000000  0.5497670000000  0.4726390000000 1.0
C      1  0.4976680000000  0.4542540000000  0.5230340000000 1.0
C      1  0.5489450000000  0.4763010000000  0.4980490000000 1.0
C      1  0.4537300000000  0.5231290000000  0.5001480000000 1.0
C      1  0.4554390000000  0.4787210000000  0.4976180000000 1.0
C      1  0.5242360000000  0.4973400000000  0.4516420000000 1.0
C      1  0.4778650000000  0.5003030000000  0.4506980000000 1.0
C      1  0.4775580000000  0.4954570000000  0.5466710000000 1.0
C      1  0.4342890000000  0.4879300000000  0.5291840000000 1.0
C      1  0.4890120000000  0.5251080000000  0.4326680000000 1.0
C      1  0.5280400000000  0.4357480000000  0.4907370000000 1.0
C      1  0.4354100000000  0.5103230000000  0.4724820000000 1.0
C      1  0.5650320000000  0.4893700000000  0.4736850000000 1.0
C      1  0.5684100000000  0.5094900000000  0.5273970000000 1.0
C      1  0.4914250000000  0.4737460000000  0.5651490000000 1.0
C      1  0.5110300000000  0.5258270000000  0.5604170000000 1.0
C      1  0.5128030000000  0.4720150000000  0.4338010000000 1.0
C      1  0.5227170000000  0.5561080000000  0.5034330000000 1.0
C      1  0.4758190000000  0.4379170000000  0.5083800000000 1.0
C      1  0.4711100000000  0.5681420000000  0.4888780000000 1.0
C      1  0.4976310000000  0.4227190000000  0.4416900000000 1.0
C      1  0.4250330000000  0.4379960000000  0.5010750000000 1.0
C      1  0.4401640000000  0.4921150000000  0.4217590000000 1.0
C      1  0.4943540000000  0.5738200000000  0.5590720000000 1.0
C      1  0.5031500000000  0.4244270000000  0.5590160000000 1.0
C      1  0.4961530000000  0.5773650000000  0.4364550000000 1.0
C      1  0.4226220000000  0.5599410000000  0.5108890000000 1.0
C      1  0.5762070000000  0.4390590000000  0.5064270000000 1.0
C      1  0.5734320000000  0.5591670000000  0.4937850000000 1.0
C      1  0.4409510000000  0.5048050000000  0.5770040000000 1.0
C      1  0.5607920000000  0.4952640000000  0.5758810000000 1.0
C      1  0.5610850000000  0.5044520000000  0.4239540000000 1.0
C      1  0.5121430000000  0.5519610000000  0.5463680000000 1.0
C      1  0.5507530000000  0.5524210000000  0.5130980000000 1.0
C      1  0.5522250000000  0.5078450000000  0.5510320000000 1.0
C      1  0.5154810000000  0.4461150000000  0.4482250000000 1.0
C      1  0.4807030000000  0.5525650000000  0.4446230000000 1.0
C      1  0.4899010000000  0.4489560000000  0.5505400000000 1.0
C      1  0.5549460000000  0.4479680000000  0.4872240000000 1.0
C      1  0.4457780000000  0.5524560000000  0.4926460000000 1.0
C      1  0.4503200000000  0.4519250000000  0.5114560000000 1.0
C      1  0.5517400000000  0.4890990000000  0.4475080000000 1.0
C      1  0.4495170000000  0.5061050000000  0.4464260000000 1.0
C      1  0.4495420000000  0.4869650000000  0.5541470000000 1.0
C      1  0.4443470000000  0.4125040000000  0.4622170000000 1.0
C      1  0.4094910000000  0.4665230000000  0.4412700000000 1.0
C      1  0.4689440000000  0.4397330000000  0.4074390000000 1.0
C      1  0.4433300000000  0.5908170000000  0.5352160000000 1.0
C      1  0.5549500000000  0.4087410000000  0.5353450000000 1.0
C      1  0.5521770000000  0.5844110000000  0.4640980000000 1.0
C      1  0.4082960000000  0.5294890000000  0.5595940000000 1.0
C      1  0.5921160000000  0.4679750000000  0.5598300000000 1.0
C      1  0.5923930000000  0.5302730000000  0.4418460000000 1.0
C      1  0.4675430000000  0.5558650000000  0.5895740000000 1.0
C      1  0.5324120000000  0.4419970000000  0.5920290000000 1.0
C      1  0.5325760000000  0.5577330000000  0.4076160000000 1.0
C      1  0.5759420000000  0.4130830000000  0.5174390000000 1.0
C      1  0.4139270000000  0.5116430000000  0.5800660000000 1.0
C      1  0.5146680000000  0.5773920000000  0.4154720000000 1.0
C      1  0.5749240000000  0.5835010000000  0.4800120000000 1.0
C      1  0.4243950000000  0.4190800000000  0.4802020000000 1.0
C      1  0.4209050000000  0.5872040000000  0.5188560000000 1.0
C      1  0.4125760000000  0.4850670000000  0.4204200000000 1.0
C      1  0.5886640000000  0.5106640000000  0.4220790000000 1.0
C      1  0.5877880000000  0.4877920000000  0.5792520000000 1.0
C      1  0.5124030000000  0.4233660000000  0.5857110000000 1.0
C      1  0.4880410000000  0.5745480000000  0.5864730000000 1.0
C      1  0.4872280000000  0.4203630000000  0.4156240000000 1.0
C      1  0.5392030000000  0.5411430000000  0.4313720000000 1.0
C      1  0.5417980000000  0.4352860000000  0.5405530000000 1.0
C      1  0.4331400000000  0.5356510000000  0.5446120000000 1.0
C      1  0.5397240000000  0.4575410000000  0.5673450000000 1.0
C      1  0.4616450000000  0.5415070000000  0.5636470000000 1.0
C      1  0.4635040000000  0.4566990000000  0.4310300000000 1.0
C      1  0.5386360000000  0.5576020000000  0.4583500000000 1.0
C      1  0.4596790000000  0.4380110000000  0.4586980000000 1.0
C      1  0.4574830000000  0.5649800000000  0.5369660000000 1.0
C      1  0.4353960000000  0.4649830000000  0.4555700000000 1.0
C      1  0.5672080000000  0.5363960000000  0.4573470000000 1.0
C      1  0.5675080000000  0.4608330000000  0.5436770000000 1.0
C      1  0.5527010000000  0.4500530000000  0.4196110000000 1.0
C      1  0.4423150000000  0.4272430000000  0.5403760000000 1.0
C      1  0.4308390000000  0.5541350000000  0.4664650000000 1.0
C      1  0.5433370000000  0.5531090000000  0.5790490000000 1.0
C      1  0.4487890000000  0.4576920000000  0.5637880000000 1.0
C      1  0.4507220000000  0.5578030000000  0.4420280000000 1.0
C      1  0.4461890000000  0.5857290000000  0.4503720000000 1.0
C      1  0.5446110000000  0.4378890000000  0.4451670000000 1.0
C      1  0.5530750000000  0.5647030000000  0.5553310000000 1.0
C      1  0.4213500000000  0.4480440000000  0.5529490000000 1.0
C      1  0.5771160000000  0.5537310000000  0.5458950000000 1.0
C      1  0.5725670000000  0.4503700000000  0.4529690000000 1.0
C      1  0.5184040000000  0.5197500000000  0.4330560000000 1.0
C      1  0.5216750000000  0.4388670000000  0.5189020000000 1.0
C      1  0.4345920000000  0.5164760000000  0.5218360000000 1.0
C      1  0.5200180000000  0.4807460000000  0.5667340000000 1.0
C      1  0.4825850000000  0.5205200000000  0.5599110000000 1.0
C      1  0.4841320000000  0.4780900000000  0.4323690000000 1.0
C      1  0.5175210000000  0.5445650000000  0.4778000000000 1.0
C      1  0.4814870000000  0.4394610000000  0.4796780000000 1.0
C      1  0.4799600000000  0.5682340000000  0.5172880000000 1.0
C      1  0.4327220000000  0.4822500000000  0.4797680000000 1.0
C      1  0.5671600000000  0.5174120000000  0.4808520000000 1.0
C      1  0.5686900000000  0.4804870000000  0.5200950000000 1.0
C      1  0.4992470000000  0.5003530000000  0.6220540000000 1.0
C      1  0.4993680000000  0.4982030000000  0.3782610000000 1.0
C      1  0.3784990000000  0.4982180000000  0.5002720000000 1.0
C      1  0.4965340000000  0.3779950000000  0.5006250000000 1.0
C      1  0.6217310000000  0.5006550000000  0.5017420000000 1.0
C      1  0.5038540000000  0.6182760000000  0.5005700000000 1.0
C      1  0.5228800000000  0.5138550000000  0.4810400000000 1.0
C      1  0.5182220000000  0.4829300000000  0.5166510000000 1.0
C      1  0.4838770000000  0.5186550000000  0.5157810000000 1.0
C      1  0.4834120000000  0.4834030000000  0.4806900000000 1.0
C      1  0.5016200000000  0.5003650000000  0.4983670000000 1.0
END
