TITL C-3578194-7807-721 -9.72576419915199e-08 125000 -215.18901929269 0 0 35 (C1) n - 1
REM
REM in /home/bkarasulu/work/CARBON/AIRSS/Generating-Clusters/EDIP-Nigel-Params/with-SteepDescent/Higher-Symm/SD-CG/HFTN-CG
REM
REM
REM
REM
REM
REM ./C.cell (12c818d87b63d06a65506943cc24bca4)
REM
REM compiler GCC version 9.2.1 20190827 (Red Hat 9.2.1-1)
REM options -cpp -mtune=generic -march=x86-64 -g -O0 -fpre-include=/usr/include/finclude/math-vector-fortran.h
REM seed -98933507 -1042669286 -1873612759 -1478711131 -1999259664 -1760323294 -361396449 1730393038 -1240381806 -1233359832 1441881111 -1977484622 -26865509 133089415 2101594418 -1825056474 463472416 -1218931351 -1721057046 631600547 1649261950 -1408285914 -2107223072 -1447120459 215994 -1437330827 -851703832 77715883 843669803 -383537109 -549751966 1822683621 1602460127
REM
CELL 1.54180   50.00000   50.00000   50.00000   90.00000   90.00000   90.00000
LATT -1
SFAC C  
C      1  0.5068800000000  0.5375070000000  0.4615010000000 1.0
C      1  0.4866370000000  0.5449950000000  0.5411240000000 1.0
C      1  0.4872230000000  0.4591040000000  0.4683050000000 1.0
C      1  0.5097800000000  0.4604320000000  0.5302100000000 1.0
C      1  0.5180480000000  0.5108100000000  0.5560000000000 1.0
C      1  0.4957590000000  0.4971610000000  0.4346750000000 1.0
C      1  0.4945030000000  0.4997870000000  0.5668820000000 1.0
C      1  0.5195720000000  0.4887050000000  0.4477320000000 1.0
C      1  0.5272200000000  0.5404070000000  0.5152520000000 1.0
C      1  0.4703070000000  0.5394880000000  0.4907300000000 1.0
C      1  0.4677730000000  0.4635550000000  0.5091010000000 1.0
C      1  0.5308270000000  0.4579290000000  0.4886910000000 1.0
C      1  0.4496900000000  0.4780680000000  0.4906820000000 1.0
C      1  0.5490390000000  0.4728170000000  0.5073970000000 1.0
C      1  0.5304010000000  0.5166150000000  0.4963400000000 1.0
C      1  0.4532560000000  0.5260040000000  0.5101350000000 1.0
C      1  0.4892430000000  0.4819780000000  0.5206140000000 1.0
C      1  0.5114070000000  0.4763560000000  0.4738940000000 1.0
C      1  0.5134520000000  0.5351400000000  0.5404890000000 1.0
C      1  0.4873540000000  0.5199950000000  0.4750240000000 1.0
C      1  0.4859530000000  0.5604660000000  0.5016940000000 1.0
C      1  0.5132360000000  0.5621980000000  0.5041760000000 1.0
C      1  0.5113410000000  0.4422700000000  0.5062830000000 1.0
C      1  0.4837150000000  0.4435080000000  0.4934380000000 1.0
C      1  0.5375530000000  0.4703450000000  0.5346380000000 1.0
C      1  0.4637340000000  0.4771460000000  0.4639880000000 1.0
C      1  0.4666340000000  0.5248370000000  0.5367620000000 1.0
C      1  0.5317580000000  0.5263940000000  0.4681400000000 1.0
C      1  0.4746790000000  0.5030780000000  0.4531180000000 1.0
C      1  0.5392640000000  0.4938810000000  0.5499890000000 1.0
C      1  0.5404180000000  0.5073280000000  0.4496430000000 1.0
C      1  0.4773220000000  0.4979300000000  0.5442120000000 1.0
C      1  0.5533160000000  0.4999200000000  0.5013010000000 1.0
C      1  0.4412840000000  0.5028230000000  0.5003580000000 1.0
C      1  0.5036420000000  0.4994650000000  0.4937950000000 1.0
END
