TITL C-3578204-4308-655 -1.07716380027678e-07 125000 -354.94579959478 0 0 58 (C1) n - 1
REM
REM in /home/bkarasulu/work/CARBON/AIRSS/Generating-Clusters/EDIP-Nigel-Params/with-SteepDescent/Higher-Symm/SD-CG/HFTN-CG
REM
REM
REM
REM
REM
REM ./C.cell (12c818d87b63d06a65506943cc24bca4)
REM
REM compiler GCC version 9.2.1 20190827 (Red Hat 9.2.1-1)
REM options -cpp -mtune=generic -march=x86-64 -g -O0 -fpre-include=/usr/include/finclude/math-vector-fortran.h
REM seed -663954871 19605592 -1962119069 514921695 -509256769 929192203 1536037937 664212443 935573466 -1432279154 -749453167 1504350417 -1739780863 -127808616 -2112320764 1791164921 361588380 -659372816 155752317 -908839837 -1055468928 -297511584 -1159024938 -290026583 1431092953 -439263290 -1051655218 1388169127 -565226128 1466367696 -762228259 1270819573 636951029
REM
CELL 1.54180   50.00000   50.00000   50.00000   90.00000   90.00000   90.00000
LATT -1
SFAC C  
C      1  0.5414710000000  0.4843870000000  0.5622850000000 1.0
C      1  0.4286400000000  0.4865560000000  0.5052100000000 1.0
C      1  0.5348890000000  0.4795680000000  0.4373700000000 1.0
C      1  0.5418390000000  0.5141100000000  0.5663370000000 1.0
C      1  0.4234990000000  0.5154650000000  0.5024090000000 1.0
C      1  0.5333460000000  0.5091920000000  0.4346620000000 1.0
C      1  0.5311240000000  0.4592020000000  0.5209300000000 1.0
C      1  0.4604380000000  0.4485030000000  0.5143780000000 1.0
C      1  0.5023150000000  0.4477930000000  0.4616590000000 1.0
C      1  0.5422680000000  0.5465510000000  0.5243170000000 1.0
C      1  0.4586400000000  0.5448190000000  0.5270640000000 1.0
C      1  0.4992620000000  0.5413400000000  0.4571580000000 1.0
C      1  0.5114700000000  0.4769070000000  0.4571200000000 1.0
C      1  0.5336230000000  0.4864900000000  0.5329630000000 1.0
C      1  0.4577580000000  0.4809570000000  0.5125960000000 1.0
C      1  0.5055820000000  0.5170110000000  0.4419580000000 1.0
C      1  0.5525060000000  0.5247420000000  0.5409260000000 1.0
C      1  0.4349320000000  0.5310300000000  0.5224950000000 1.0
C      1  0.4629290000000  0.5262980000000  0.4866420000000 1.0
C      1  0.5329090000000  0.5204600000000  0.4770280000000 1.0
C      1  0.5021660000000  0.5290890000000  0.5424020000000 1.0
C      1  0.4738090000000  0.4974950000000  0.4913360000000 1.0
C      1  0.5235550000000  0.4895650000000  0.4833410000000 1.0
C      1  0.5031210000000  0.5005400000000  0.5298180000000 1.0
C      1  0.4337840000000  0.5092500000000  0.4512160000000 1.0
C      1  0.5751400000000  0.5142420000000  0.4659490000000 1.0
C      1  0.4904870000000  0.5050370000000  0.5812350000000 1.0
C      1  0.4364170000000  0.4803990000000  0.4573320000000 1.0
C      1  0.5741090000000  0.4846180000000  0.4672450000000 1.0
C      1  0.4966060000000  0.4753300000000  0.5790330000000 1.0
C      1  0.5720120000000  0.5238340000000  0.4948100000000 1.0
C      1  0.4661290000000  0.5108800000000  0.5626520000000 1.0
C      1  0.4604380000000  0.5181570000000  0.4396590000000 1.0
C      1  0.5649930000000  0.4781650000000  0.4942170000000 1.0
C      1  0.4789770000000  0.4660780000000  0.5560220000000 1.0
C      1  0.4650190000000  0.4745780000000  0.4547410000000 1.0
C      1  0.4701640000000  0.5380030000000  0.4591600000000 1.0
C      1  0.5526800000000  0.5450690000000  0.4975640000000 1.0
C      1  0.4739200000000  0.5362290000000  0.5499450000000 1.0
C      1  0.4735710000000  0.4473210000000  0.4553000000000 1.0
C      1  0.5439200000000  0.4599440000000  0.4958220000000 1.0
C      1  0.4837600000000  0.4455470000000  0.5348640000000 1.0
C      1  0.4990150000000  0.4369900000000  0.4898540000000 1.0
C      1  0.5043720000000  0.4521990000000  0.5144510000000 1.0
C      1  0.4695810000000  0.4338340000000  0.4901370000000 1.0
C      1  0.5108660000000  0.5418360000000  0.4848030000000 1.0
C      1  0.5131320000000  0.5493150000000  0.5227250000000 1.0
C      1  0.4780070000000  0.5456660000000  0.5053210000000 1.0
C      1  0.5240980000000  0.4698910000000  0.5786570000000 1.0
C      1  0.4223400000000  0.4735740000000  0.4808890000000 1.0
C      1  0.5604170000000  0.4720180000000  0.4460770000000 1.0
C      1  0.5138070000000  0.5244860000000  0.5700010000000 1.0
C      1  0.4266020000000  0.5255000000000  0.4751420000000 1.0
C      1  0.5552530000000  0.5251470000000  0.4465260000000 1.0
C      1  0.4817060000000  0.4953240000000  0.4393260000000 1.0
C      1  0.4739050000000  0.4904550000000  0.5404340000000 1.0
C      1  0.5635810000000  0.5009720000000  0.5129570000000 1.0
C      1  0.5010390000000  0.5019480000000  0.5003490000000 1.0
END
