TITL C-3577084-3642-741 -2.54577993231284e-06 125000 -1108.99285846001 0 0 174 (C1) n - 1
REM
REM in /home/bkarasulu/work/CARBON/AIRSS/Generating-Clusters/EDIP-Nigel-Params/with-SteepDescent/Higher-Symm/SD-CG/HFTN-CG
REM
REM
REM
REM
REM
REM ./C.cell (12c818d87b63d06a65506943cc24bca4)
REM
REM compiler GCC version 9.2.1 20190827 (Red Hat 9.2.1-1)
REM options -cpp -mtune=generic -march=x86-64 -g -O0 -fpre-include=/usr/include/finclude/math-vector-fortran.h
REM seed -402673503 557474824 -542378730 -2098090517 1371344608 -2122458732 1012550286 460415599 1486204892 1108630133 2135902558 601617373 382277103 38128029 636889754 -1183378596 141915196 -1255643230 1635501817 -737690263 -987225550 1378694080 -113714475 -905834355 -788019225 -394296976 -426407517 -1589047770 -1021334258 -1096466715 1515863192 1454160733 -517837329
REM
CELL 1.54180   50.00000   50.00000   50.00000   90.00000   90.00000   90.00000
LATT -1
SFAC C  
C      1  0.5494890000000  0.5639640000000  0.4609620000000 1.0
C      1  0.5492830000000  0.5701750000000  0.5220340000000 1.0
C      1  0.5526190000000  0.5259570000000  0.5772830000000 1.0
C      1  0.5536470000000  0.4626730000000  0.5736800000000 1.0
C      1  0.5549310000000  0.4189340000000  0.5088190000000 1.0
C      1  0.5539570000000  0.4413610000000  0.4426910000000 1.0
C      1  0.5565850000000  0.5010880000000  0.4133080000000 1.0
C      1  0.5203530000000  0.5094150000000  0.4568810000000 1.0
C      1  0.5271120000000  0.5280530000000  0.5033090000000 1.0
C      1  0.5193960000000  0.5207670000000  0.5403610000000 1.0
C      1  0.5225440000000  0.4904860000000  0.5453640000000 1.0
C      1  0.5114670000000  0.4811210000000  0.4949670000000 1.0
C      1  0.5221730000000  0.4634740000000  0.4710810000000 1.0
C      1  0.5378560000000  0.4843300000000  0.4553150000000 1.0
C      1  0.5926850000000  0.4387130000000  0.5520610000000 1.0
C      1  0.5991740000000  0.4197780000000  0.4843100000000 1.0
C      1  0.5960170000000  0.4616760000000  0.4281870000000 1.0
C      1  0.5936640000000  0.5341800000000  0.4251240000000 1.0
C      1  0.5933770000000  0.5787370000000  0.4774670000000 1.0
C      1  0.5936560000000  0.5659750000000  0.5471570000000 1.0
C      1  0.5966630000000  0.5031540000000  0.5783910000000 1.0
C      1  0.5336270000000  0.5183920000000  0.4038270000000 1.0
C      1  0.5318050000000  0.5861770000000  0.4574210000000 1.0
C      1  0.5314020000000  0.5863900000000  0.5392680000000 1.0
C      1  0.5280820000000  0.5254390000000  0.5976790000000 1.0
C      1  0.5311680000000  0.4441620000000  0.5749750000000 1.0
C      1  0.5342320000000  0.3994310000000  0.5001270000000 1.0
C      1  0.5294470000000  0.4361370000000  0.4235170000000 1.0
C      1  0.5336180000000  0.5446050000000  0.4180340000000 1.0
C      1  0.5297160000000  0.5961180000000  0.4840990000000 1.0
C      1  0.5299580000000  0.5673900000000  0.5617490000000 1.0
C      1  0.5278820000000  0.4957500000000  0.5979410000000 1.0
C      1  0.5334450000000  0.4240610000000  0.5533000000000 1.0
C      1  0.5312620000000  0.4100850000000  0.4725080000000 1.0
C      1  0.5284630000000  0.4610420000000  0.4074960000000 1.0
C      1  0.4976130000000  0.4528330000000  0.4589270000000 1.0
C      1  0.4990210000000  0.5057470000000  0.4364030000000 1.0
C      1  0.4977940000000  0.5522280000000  0.4610310000000 1.0
C      1  0.5007540000000  0.5622200000000  0.5119210000000 1.0
C      1  0.4956670000000  0.5272430000000  0.5579550000000 1.0
C      1  0.4962550000000  0.4754790000000  0.5536190000000 1.0
C      1  0.5052510000000  0.4354960000000  0.5124170000000 1.0
C      1  0.4345200000000  0.4082150000000  0.5058030000000 1.0
C      1  0.4365160000000  0.4498200000000  0.4451140000000 1.0
C      1  0.4350730000000  0.5168370000000  0.4208330000000 1.0
C      1  0.4368670000000  0.5763650000000  0.4592570000000 1.0
C      1  0.4330620000000  0.5804270000000  0.5315500000000 1.0
C      1  0.4256690000000  0.5252720000000  0.5835070000000 1.0
C      1  0.4373310000000  0.4490570000000  0.5649770000000 1.0
C      1  0.5060560000000  0.4056940000000  0.4571960000000 1.0
C      1  0.5034190000000  0.4750360000000  0.4001750000000 1.0
C      1  0.5090340000000  0.5626330000000  0.4157970000000 1.0
C      1  0.5062280000000  0.6054660000000  0.4971090000000 1.0
C      1  0.5051980000000  0.5673420000000  0.5789500000000 1.0
C      1  0.5027270000000  0.4810200000000  0.6005290000000 1.0
C      1  0.5095960000000  0.4065890000000  0.5485360000000 1.0
C      1  0.4544130000000  0.4275480000000  0.4373160000000 1.0
C      1  0.4545160000000  0.5059470000000  0.4002000000000 1.0
C      1  0.4570920000000  0.5850700000000  0.4385960000000 1.0
C      1  0.4558480000000  0.5982360000000  0.5258160000000 1.0
C      1  0.4512140000000  0.5414820000000  0.5923800000000 1.0
C      1  0.4556590000000  0.4517280000000  0.5873160000000 1.0
C      1  0.4588940000000  0.3974410000000  0.5190400000000 1.0
C      1  0.4730450000000  0.4766590000000  0.4956680000000 1.0
C      1  0.4566990000000  0.4910470000000  0.4778230000000 1.0
C      1  0.4688040000000  0.5172320000000  0.4784730000000 1.0
C      1  0.4492370000000  0.5319220000000  0.4937470000000 1.0
C      1  0.4569450000000  0.5239940000000  0.5201620000000 1.0
C      1  0.4439000000000  0.4992780000000  0.5292790000000 1.0
C      1  0.4637880000000  0.4799240000000  0.5237590000000 1.0
C      1  0.4849800000000  0.5331490000000  0.4403680000000 1.0
C      1  0.4843640000000  0.5656200000000  0.4858980000000 1.0
C      1  0.4825940000000  0.5510590000000  0.5438320000000 1.0
C      1  0.4790620000000  0.5006710000000  0.5644370000000 1.0
C      1  0.4866420000000  0.4442610000000  0.5362100000000 1.0
C      1  0.4866310000000  0.4359690000000  0.4843320000000 1.0
C      1  0.4831800000000  0.4785110000000  0.4409930000000 1.0
C      1  0.4790180000000  0.4343880000000  0.4217820000000 1.0
C      1  0.4813250000000  0.5207600000000  0.3963040000000 1.0
C      1  0.4831810000000  0.5952830000000  0.4498050000000 1.0
C      1  0.4809610000000  0.5959500000000  0.5418540000000 1.0
C      1  0.4769470000000  0.5279550000000  0.6013590000000 1.0
C      1  0.4823500000000  0.4385080000000  0.5826370000000 1.0
C      1  0.4837150000000  0.3934100000000  0.5030040000000 1.0
C      1  0.6034270000000  0.4694600000000  0.5115420000000 1.0
C      1  0.6090130000000  0.4699080000000  0.4822860000000 1.0
C      1  0.6054220000000  0.4937580000000  0.4647380000000 1.0
C      1  0.6075060000000  0.5225520000000  0.4724830000000 1.0
C      1  0.6027760000000  0.5331140000000  0.4996280000000 1.0
C      1  0.6079860000000  0.5206770000000  0.5260120000000 1.0
C      1  0.6087800000000  0.4909730000000  0.5312320000000 1.0
C      1  0.5038710000000  0.4302350000000  0.4386140000000 1.0
C      1  0.5058300000000  0.5048350000000  0.4064020000000 1.0
C      1  0.5062140000000  0.5756680000000  0.4445330000000 1.0
C      1  0.5048690000000  0.5906290000000  0.5240670000000 1.0
C      1  0.5023880000000  0.5378280000000  0.5866460000000 1.0
C      1  0.5038910000000  0.4589010000000  0.5794350000000 1.0
C      1  0.5084980000000  0.4045690000000  0.5166620000000 1.0
C      1  0.4554270000000  0.5603840000000  0.4892280000000 1.0
C      1  0.4547070000000  0.5434690000000  0.5398820000000 1.0
C      1  0.4492320000000  0.5045620000000  0.5586730000000 1.0
C      1  0.4580350000000  0.4496110000000  0.5261970000000 1.0
C      1  0.4603520000000  0.4481450000000  0.4930550000000 1.0
C      1  0.4562400000000  0.4888320000000  0.4479460000000 1.0
C      1  0.4590890000000  0.5251020000000  0.4505220000000 1.0
C      1  0.4235580000000  0.5515330000000  0.4521090000000 1.0
C      1  0.4177740000000  0.5731820000000  0.5074140000000 1.0
C      1  0.4193450000000  0.5371690000000  0.5548460000000 1.0
C      1  0.4175450000000  0.4706080000000  0.5624190000000 1.0
C      1  0.4242690000000  0.4288230000000  0.5244390000000 1.0
C      1  0.4312050000000  0.4460050000000  0.4745990000000 1.0
C      1  0.4156860000000  0.4980110000000  0.4351050000000 1.0
C      1  0.4334270000000  0.4160860000000  0.4775880000000 1.0
C      1  0.4297280000000  0.4715520000000  0.4253570000000 1.0
C      1  0.4318840000000  0.5463130000000  0.4243110000000 1.0
C      1  0.4312300000000  0.5906300000000  0.4860620000000 1.0
C      1  0.4289540000000  0.5669730000000  0.5578650000000 1.0
C      1  0.4309160000000  0.4918090000000  0.5803600000000 1.0
C      1  0.4341860000000  0.4236670000000  0.5517870000000 1.0
C      1  0.5562640000000  0.5226040000000  0.4925680000000 1.0
C      1  0.5653290000000  0.5310760000000  0.5331880000000 1.0
C      1  0.5654060000000  0.4984910000000  0.5371460000000 1.0
C      1  0.5561760000000  0.4643750000000  0.5177220000000 1.0
C      1  0.5654410000000  0.4561800000000  0.4866640000000 1.0
C      1  0.5634760000000  0.4849820000000  0.4738340000000 1.0
C      1  0.5624970000000  0.5218220000000  0.4610230000000 1.0
C      1  0.5996600000000  0.4881040000000  0.4360520000000 1.0
C      1  0.5882080000000  0.5371120000000  0.4536100000000 1.0
C      1  0.5946960000000  0.5620240000000  0.5000430000000 1.0
C      1  0.5912810000000  0.5370530000000  0.5477590000000 1.0
C      1  0.5895510000000  0.4880340000000  0.5545300000000 1.0
C      1  0.5947280000000  0.4434240000000  0.5243600000000 1.0
C      1  0.5924330000000  0.4457400000000  0.4727910000000 1.0
C      1  0.4529530000000  0.4765450000000  0.4052810000000 1.0
C      1  0.4563240000000  0.5632680000000  0.4173540000000 1.0
C      1  0.4565550000000  0.6038380000000  0.4964630000000 1.0
C      1  0.4531310000000  0.5674070000000  0.5768690000000 1.0
C      1  0.4530320000000  0.4800150000000  0.5978910000000 1.0
C      1  0.4590190000000  0.4069730000000  0.5480590000000 1.0
C      1  0.4559540000000  0.4075020000000  0.4601860000000 1.0
C      1  0.4800760000000  0.5738560000000  0.5630070000000 1.0
C      1  0.4780030000000  0.4973200000000  0.5948720000000 1.0
C      1  0.4842040000000  0.4217730000000  0.5564500000000 1.0
C      1  0.4822250000000  0.4072020000000  0.4755310000000 1.0
C      1  0.4790970000000  0.4644530000000  0.4143840000000 1.0
C      1  0.4823050000000  0.5467560000000  0.4134440000000 1.0
C      1  0.4822950000000  0.5959700000000  0.4814730000000 1.0
C      1  0.4072640000000  0.4524950000000  0.5171920000000 1.0
C      1  0.4066340000000  0.4586230000000  0.4885960000000 1.0
C      1  0.4044980000000  0.5064520000000  0.4624330000000 1.0
C      1  0.4109310000000  0.5341190000000  0.4725090000000 1.0
C      1  0.4082030000000  0.5448730000000  0.5019930000000 1.0
C      1  0.4016630000000  0.5291940000000  0.5284030000000 1.0
C      1  0.4067720000000  0.4757640000000  0.5351930000000 1.0
C      1  0.5787770000000  0.5651430000000  0.4586820000000 1.0
C      1  0.5796650000000  0.5722450000000  0.5233160000000 1.0
C      1  0.5834020000000  0.5269240000000  0.5752920000000 1.0
C      1  0.5804530000000  0.4610290000000  0.5624830000000 1.0
C      1  0.5848520000000  0.4207000000000  0.5085390000000 1.0
C      1  0.5843220000000  0.4424910000000  0.4439090000000 1.0
C      1  0.5849340000000  0.5080830000000  0.4201450000000 1.0
C      1  0.5304420000000  0.5605870000000  0.4998430000000 1.0
C      1  0.5415490000000  0.5384320000000  0.5522600000000 1.0
C      1  0.5417490000000  0.4891390000000  0.5716960000000 1.0
C      1  0.5398460000000  0.4372940000000  0.5260020000000 1.0
C      1  0.5430610000000  0.4402250000000  0.4713230000000 1.0
C      1  0.5472600000000  0.4757910000000  0.4261650000000 1.0
C      1  0.5380330000000  0.5389970000000  0.4480440000000 1.0
C      1  0.4227300000000  0.5037500000000  0.5020170000000 1.0
C      1  0.5303830000000  0.4796790000000  0.5185880000000 1.0
C      1  0.3912390000000  0.4997380000000  0.5240360000000 1.0
C      1  0.3983340000000  0.4878850000000  0.4877320000000 1.0
C      1  0.5077700000000  0.5108590000000  0.4850380000000 1.0
C      1  0.5733050000000  0.5012760000000  0.5069160000000 1.0
END
