TITL C-3578202-4305-35 2.82675498145967e-06 125000 -1016.28681380022 0 0 164 (C1) n - 1
REM
REM in /home/bkarasulu/work/CARBON/AIRSS/Generating-Clusters/EDIP-Nigel-Params/with-SteepDescent/Higher-Symm/SD-CG/HFTN-CG
REM
REM
REM
REM
REM
REM ./C.cell (12c818d87b63d06a65506943cc24bca4)
REM
REM compiler GCC version 9.2.1 20190827 (Red Hat 9.2.1-1)
REM options -cpp -mtune=generic -march=x86-64 -g -O0 -fpre-include=/usr/include/finclude/math-vector-fortran.h
REM seed 299247146 1113392547 1847849319 -1009781666 1245757536 393770963 -659511695 -1081225042 1395988116 238658820 1682911279 138365325 1307124552 1210790984 1403698148 -991245277 1434340843 -1506530779 -2076480076 -727681145 -1799545356 -1685590999 -134776033 -342128125 -1620712191 109941210 -1223576064 749905055 -96571467 -960607960 344515212 975247698 898969382
REM
CELL 1.54180   50.00000   50.00000   50.00000   90.00000   90.00000   90.00000
LATT -1
SFAC C  
C      1  0.5073560000000  0.4515560000000  0.5788700000000 1.0
C      1  0.4920110000000  0.4484180000000  0.4113000000000 1.0
C      1  0.5677710000000  0.5736940000000  0.5097650000000 1.0
C      1  0.4325160000000  0.5734320000000  0.4907190000000 1.0
C      1  0.6011640000000  0.5324290000000  0.5071560000000 1.0
C      1  0.3992440000000  0.5318490000000  0.4931130000000 1.0
C      1  0.5368120000000  0.5945350000000  0.5457300000000 1.0
C      1  0.4637270000000  0.5937670000000  0.4547320000000 1.0
C      1  0.4932940000000  0.5078960000000  0.6127310000000 1.0
C      1  0.5067630000000  0.5076280000000  0.3880210000000 1.0
C      1  0.5438360000000  0.5937780000000  0.4434750000000 1.0
C      1  0.4565500000000  0.5942260000000  0.5569730000000 1.0
C      1  0.5574680000000  0.4117650000000  0.4902930000000 1.0
C      1  0.4434140000000  0.4108970000000  0.5101900000000 1.0
C      1  0.4786450000000  0.5033440000000  0.3929920000000 1.0
C      1  0.5219140000000  0.5048050000000  0.6084310000000 1.0
C      1  0.4857940000000  0.5533120000000  0.5634090000000 1.0
C      1  0.5141720000000  0.5528720000000  0.4376260000000 1.0
C      1  0.4919190000000  0.4326080000000  0.4807240000000 1.0
C      1  0.5043750000000  0.4384130000000  0.5076310000000 1.0
C      1  0.5561560000000  0.5168050000000  0.4271610000000 1.0
C      1  0.4434220000000  0.5172530000000  0.5742980000000 1.0
C      1  0.5678170000000  0.5387230000000  0.4723370000000 1.0
C      1  0.4323510000000  0.5390190000000  0.5282800000000 1.0
C      1  0.4458210000000  0.4602620000000  0.4241720000000 1.0
C      1  0.5555950000000  0.4612040000000  0.5761340000000 1.0
C      1  0.4667480000000  0.4652220000000  0.5097140000000 1.0
C      1  0.5230120000000  0.4594200000000  0.4978570000000 1.0
C      1  0.5937600000000  0.4460630000000  0.4828590000000 1.0
C      1  0.4068630000000  0.4456280000000  0.5169820000000 1.0
C      1  0.4808780000000  0.4891560000000  0.4702140000000 1.0
C      1  0.5179000000000  0.4896310000000  0.5307920000000 1.0
C      1  0.5680950000000  0.5583990000000  0.5573120000000 1.0
C      1  0.4326400000000  0.5576680000000  0.4433420000000 1.0
C      1  0.4315780000000  0.4247480000000  0.4551170000000 1.0
C      1  0.5678620000000  0.4256480000000  0.5437340000000 1.0
C      1  0.5353080000000  0.5382970000000  0.4190990000000 1.0
C      1  0.4646400000000  0.5386850000000  0.5820350000000 1.0
C      1  0.5265730000000  0.4908520000000  0.4470780000000 1.0
C      1  0.4740520000000  0.4918020000000  0.5564860000000 1.0
C      1  0.4494120000000  0.4916490000000  0.6023570000000 1.0
C      1  0.5511040000000  0.4924270000000  0.3980520000000 1.0
C      1  0.4381370000000  0.5859970000000  0.5371530000000 1.0
C      1  0.5620920000000  0.5855430000000  0.4633750000000 1.0
C      1  0.4355520000000  0.5818010000000  0.4610610000000 1.0
C      1  0.5650600000000  0.5825230000000  0.5393700000000 1.0
C      1  0.4790020000000  0.5565970000000  0.5200390000000 1.0
C      1  0.5215890000000  0.5563330000000  0.4807300000000 1.0
C      1  0.4634440000000  0.5508090000000  0.4459060000000 1.0
C      1  0.5373740000000  0.5517210000000  0.5549970000000 1.0
C      1  0.4947850000000  0.4735720000000  0.5429660000000 1.0
C      1  0.5050260000000  0.4733240000000  0.4605060000000 1.0
C      1  0.4461330000000  0.4446020000000  0.5505790000000 1.0
C      1  0.5537120000000  0.4438480000000  0.4496670000000 1.0
C      1  0.4877150000000  0.4604050000000  0.5977200000000 1.0
C      1  0.5141730000000  0.4599000000000  0.3983610000000 1.0
C      1  0.5206540000000  0.4145560000000  0.5208030000000 1.0
C      1  0.4781900000000  0.4078070000000  0.4756000000000 1.0
C      1  0.4239620000000  0.4860930000000  0.5381990000000 1.0
C      1  0.5758370000000  0.4857090000000  0.4624640000000 1.0
C      1  0.5219250000000  0.4262230000000  0.5703310000000 1.0
C      1  0.4784780000000  0.4243290000000  0.4287260000000 1.0
C      1  0.5547510000000  0.4741800000000  0.4438360000000 1.0
C      1  0.4448790000000  0.4748040000000  0.5572070000000 1.0
C      1  0.5500290000000  0.4242620000000  0.5180910000000 1.0
C      1  0.4493880000000  0.4199070000000  0.4808830000000 1.0
C      1  0.4899440000000  0.4020890000000  0.4482180000000 1.0
C      1  0.5108370000000  0.4085980000000  0.5486040000000 1.0
C      1  0.5566780000000  0.5943690000000  0.4910690000000 1.0
C      1  0.4435950000000  0.5942930000000  0.5093050000000 1.0
C      1  0.5179720000000  0.5181650000000  0.5477660000000 1.0
C      1  0.4821850000000  0.5164740000000  0.4520880000000 1.0
C      1  0.4695370000000  0.4314790000000  0.5591210000000 1.0
C      1  0.5310820000000  0.4293870000000  0.4396820000000 1.0
C      1  0.5782350000000  0.5264880000000  0.4464710000000 1.0
C      1  0.4217410000000  0.5268470000000  0.5543440000000 1.0
C      1  0.4581540000000  0.4712950000000  0.4645730000000 1.0
C      1  0.5421190000000  0.4726500000000  0.5359670000000 1.0
C      1  0.5309000000000  0.5529950000000  0.5236210000000 1.0
C      1  0.4694290000000  0.5526860000000  0.4772130000000 1.0
C      1  0.3999390000000  0.4670200000000  0.5372620000000 1.0
C      1  0.6001320000000  0.4669720000000  0.4622170000000 1.0
C      1  0.4831570000000  0.5844120000000  0.5560990000000 1.0
C      1  0.5171950000000  0.5841770000000  0.4445810000000 1.0
C      1  0.5663160000000  0.4804000000000  0.4177680000000 1.0
C      1  0.4330050000000  0.4807400000000  0.5830520000000 1.0
C      1  0.5787980000000  0.4742310000000  0.5616290000000 1.0
C      1  0.4222890000000  0.4736730000000  0.4385590000000 1.0
C      1  0.3840710000000  0.5029270000000  0.4582230000000 1.0
C      1  0.6163920000000  0.5036060000000  0.5418660000000 1.0
C      1  0.4822400000000  0.4902230000000  0.5010030000000 1.0
C      1  0.5130050000000  0.4881010000000  0.5011620000000 1.0
C      1  0.4108260000000  0.5409720000000  0.4518490000000 1.0
C      1  0.5898070000000  0.5417180000000  0.5485340000000 1.0
C      1  0.4552550000000  0.5277550000000  0.4850780000000 1.0
C      1  0.5461930000000  0.5286040000000  0.5157250000000 1.0
C      1  0.4343260000000  0.4886080000000  0.4634280000000 1.0
C      1  0.5665230000000  0.4892030000000  0.5369270000000 1.0
C      1  0.5101630000000  0.5831440000000  0.4743950000000 1.0
C      1  0.4902520000000  0.5835020000000  0.5262540000000 1.0
C      1  0.4161050000000  0.4561660000000  0.4889920000000 1.0
C      1  0.5870830000000  0.4572320000000  0.5113370000000 1.0
C      1  0.5270360000000  0.4729310000000  0.5724790000000 1.0
C      1  0.4762030000000  0.4683620000000  0.4280470000000 1.0
C      1  0.4744210000000  0.5113670000000  0.5315260000000 1.0
C      1  0.5256680000000  0.5103880000000  0.4725380000000 1.0
C      1  0.5697940000000  0.4314790000000  0.4719180000000 1.0
C      1  0.4313970000000  0.4320830000000  0.5274120000000 1.0
C      1  0.4525510000000  0.5592090000000  0.5371040000000 1.0
C      1  0.5477010000000  0.5587490000000  0.4634640000000 1.0
C      1  0.5574980000000  0.5209160000000  0.5786540000000 1.0
C      1  0.4430510000000  0.5201810000000  0.4221850000000 1.0
C      1  0.3939340000000  0.5053120000000  0.4844420000000 1.0
C      1  0.6064620000000  0.5059300000000  0.5156550000000 1.0
C      1  0.5210910000000  0.5835120000000  0.5215180000000 1.0
C      1  0.4793600000000  0.5831920000000  0.4791340000000 1.0
C      1  0.4772410000000  0.4866540000000  0.6003590000000 1.0
C      1  0.5235300000000  0.4862740000000  0.3978320000000 1.0
C      1  0.4149940000000  0.5517970000000  0.5059190000000 1.0
C      1  0.5852680000000  0.5521000000000  0.4943070000000 1.0
C      1  0.4506850000000  0.4523070000000  0.4874710000000 1.0
C      1  0.5481720000000  0.4543950000000  0.5122680000000 1.0
C      1  0.4400060000000  0.5173770000000  0.4606220000000 1.0
C      1  0.5606170000000  0.5180100000000  0.5402770000000 1.0
C      1  0.4692200000000  0.3995680000000  0.5203710000000 1.0
C      1  0.5327710000000  0.3978190000000  0.4793150000000 1.0
C      1  0.4861210000000  0.3889620000000  0.4978000000000 1.0
C      1  0.5156020000000  0.3907690000000  0.5029400000000 1.0
C      1  0.4758100000000  0.5753690000000  0.4330990000000 1.0
C      1  0.5247680000000  0.5762450000000  0.5676090000000 1.0
C      1  0.5832050000000  0.4870560000000  0.5119180000000 1.0
C      1  0.4173840000000  0.4866580000000  0.4884860000000 1.0
C      1  0.6010360000000  0.5181660000000  0.5604320000000 1.0
C      1  0.3994620000000  0.5175470000000  0.4397460000000 1.0
C      1  0.4121240000000  0.4472610000000  0.4591660000000 1.0
C      1  0.5881190000000  0.4475350000000  0.5407860000000 1.0
C      1  0.6146900000000  0.4923840000000  0.4606120000000 1.0
C      1  0.3851180000000  0.4923570000000  0.5409630000000 1.0
C      1  0.4191910000000  0.5025610000000  0.4241190000000 1.0
C      1  0.5815250000000  0.5031910000000  0.5763400000000 1.0
C      1  0.5271410000000  0.5978530000000  0.4951960000000 1.0
C      1  0.4731500000000  0.5979160000000  0.5052250000000 1.0
C      1  0.4815260000000  0.4097280000000  0.5455780000000 1.0
C      1  0.5201980000000  0.4052480000000  0.4521170000000 1.0
C      1  0.4834090000000  0.4499420000000  0.5281440000000 1.0
C      1  0.4997320000000  0.4445820000000  0.4543630000000 1.0
C      1  0.4870980000000  0.5470670000000  0.4094710000000 1.0
C      1  0.5132760000000  0.5479150000000  0.5912020000000 1.0
C      1  0.4486090000000  0.4315680000000  0.4314420000000 1.0
C      1  0.5514480000000  0.4329390000000  0.5679170000000 1.0
C      1  0.4334880000000  0.4941110000000  0.5120140000000 1.0
C      1  0.5664340000000  0.4935130000000  0.4888340000000 1.0
C      1  0.5347110000000  0.5271470000000  0.5959820000000 1.0
C      1  0.4666770000000  0.5253520000000  0.4062640000000 1.0
C      1  0.3962960000000  0.5148050000000  0.5531490000000 1.0
C      1  0.6036570000000  0.5144960000000  0.4478110000000 1.0
C      1  0.4927340000000  0.5351890000000  0.5374720000000 1.0
C      1  0.5074330000000  0.5341080000000  0.4643110000000 1.0
C      1  0.5513270000000  0.5181610000000  0.4876590000000 1.0
C      1  0.4492960000000  0.5183700000000  0.5135510000000 1.0
C      1  0.4927910000000  0.4970190000000  0.4277940000000 1.0
C      1  0.5087400000000  0.5003530000000  0.5729030000000 1.0
C      1  0.4869370000000  0.5356510000000  0.6031380000000 1.0
C      1  0.5133690000000  0.5351610000000  0.3977900000000 1.0
END
