TITL C-3578205-846-703 9.65166554248023e-07 125000 -279.176615053117 0 0 46 (C1) n - 1
REM
REM in /home/bkarasulu/work/CARBON/AIRSS/Generating-Clusters/EDIP-Nigel-Params/with-SteepDescent/Higher-Symm/SD-CG/HFTN-CG
REM
REM
REM
REM
REM
REM ./C.cell (12c818d87b63d06a65506943cc24bca4)
REM
REM compiler GCC version 9.2.1 20190827 (Red Hat 9.2.1-1)
REM options -cpp -mtune=generic -march=x86-64 -g -O0 -fpre-include=/usr/include/finclude/math-vector-fortran.h
REM seed -328364206 1554048367 -2128245389 1665406757 1872595727 1811186967 746825912 1289808636 1746152178 659162965 -1035374014 -769789166 1577246140 1747814985 -1231056248 1143136945 -1684665856 -1388030177 1252108016 1150264297 2127081440 -1181037101 512914807 -579461044 1903584316 500178822 -1105488120 -196581308 -48847605 1659441312 -1871972012 -45582777 1316880226
REM
CELL 1.54180   50.00000   50.00000   50.00000   90.00000   90.00000   90.00000
LATT -1
SFAC C  
C      1  0.5464540000000  0.4799340000000  0.4760350000000 1.0
C      1  0.5037600000000  0.5540180000000  0.5297100000000 1.0
C      1  0.5153830000000  0.4847210000000  0.4353790000000 1.0
C      1  0.4451100000000  0.4650310000000  0.4811620000000 1.0
C      1  0.5407620000000  0.5271570000000  0.4642130000000 1.0
C      1  0.5117420000000  0.5245050000000  0.5263250000000 1.0
C      1  0.4763990000000  0.4746960000000  0.5472110000000 1.0
C      1  0.4508340000000  0.4911800000000  0.4946950000000 1.0
C      1  0.5405440000000  0.5478170000000  0.4855330000000 1.0
C      1  0.4494080000000  0.5392360000000  0.5061980000000 1.0
C      1  0.4952160000000  0.5650510000000  0.5035560000000 1.0
C      1  0.4580760000000  0.4592010000000  0.5310680000000 1.0
C      1  0.4873990000000  0.5216330000000  0.5649000000000 1.0
C      1  0.5103380000000  0.5114030000000  0.4266240000000 1.0
C      1  0.5554330000000  0.4986690000000  0.5196740000000 1.0
C      1  0.4395100000000  0.4759730000000  0.5176030000000 1.0
C      1  0.4979060000000  0.4673940000000  0.4493060000000 1.0
C      1  0.5169940000000  0.5654000000000  0.4817070000000 1.0
C      1  0.4369990000000  0.5172290000000  0.4934620000000 1.0
C      1  0.5237560000000  0.4878830000000  0.5561960000000 1.0
C      1  0.4844020000000  0.5149250000000  0.5167300000000 1.0
C      1  0.5053100000000  0.4552750000000  0.4742620000000 1.0
C      1  0.5047360000000  0.4700660000000  0.5432630000000 1.0
C      1  0.5150200000000  0.4443910000000  0.5350390000000 1.0
C      1  0.4537980000000  0.5367700000000  0.5348110000000 1.0
C      1  0.4683110000000  0.5035330000000  0.5497700000000 1.0
C      1  0.5637070000000  0.4780550000000  0.4998580000000 1.0
C      1  0.5424810000000  0.4441880000000  0.5304110000000 1.0
C      1  0.5280790000000  0.5040520000000  0.4786200000000 1.0
C      1  0.4772180000000  0.5438370000000  0.4636700000000 1.0
C      1  0.5337230000000  0.4538250000000  0.4779260000000 1.0
C      1  0.5569700000000  0.4501340000000  0.5073680000000 1.0
C      1  0.5038400000000  0.5557080000000  0.4557600000000 1.0
C      1  0.4822870000000  0.5160520000000  0.4256960000000 1.0
C      1  0.4759920000000  0.5164160000000  0.4536700000000 1.0
C      1  0.5230370000000  0.5351420000000  0.4419490000000 1.0
C      1  0.5154130000000  0.5160300000000  0.5555470000000 1.0
C      1  0.5004250000000  0.4307370000000  0.5155820000000 1.0
C      1  0.4953200000000  0.4982990000000  0.4712360000000 1.0
C      1  0.4754780000000  0.5452870000000  0.4932720000000 1.0
C      1  0.4599930000000  0.4447390000000  0.4956210000000 1.0
C      1  0.5495720000000  0.4876690000000  0.5450810000000 1.0
C      1  0.5349430000000  0.5172720000000  0.5069740000000 1.0
C      1  0.4789970000000  0.5464740000000  0.5485510000000 1.0
C      1  0.4881900000000  0.4391590000000  0.4918920000000 1.0
C      1  0.4807350000000  0.4938300000000  0.4968830000000 1.0
END
