TITL C-3577091-527-358 -1.0076405470758e-06 125000 -887.911914568961 0 0 141 (C1) n - 1
REM
REM in /home/bkarasulu/work/CARBON/AIRSS/Generating-Clusters/EDIP-Nigel-Params/with-SteepDescent/Higher-Symm/SD-CG/HFTN-CG
REM
REM
REM
REM
REM
REM ./C.cell (12c818d87b63d06a65506943cc24bca4)
REM
REM compiler GCC version 9.2.1 20190827 (Red Hat 9.2.1-1)
REM options -cpp -mtune=generic -march=x86-64 -g -O0 -fpre-include=/usr/include/finclude/math-vector-fortran.h
REM seed 1032941699 1343216269 -948911424 1833732778 687775863 -1699746594 1064993273 -1103223397 -506729251 -1540808522 1857876608 -1186715475 1719020054 1668724941 1377882673 606113252 -1096290716 1582623019 885058715 1768777752 1079324714 -42462405 -60275949 303096775 486179420 -838016180 -260308819 -173123107 1938297094 -1178808954 -367764572 686498421 -1732509168
REM
CELL 1.54180   50.00000   50.00000   50.00000   90.00000   90.00000   90.00000
LATT -1
SFAC C  
C      1  0.4515610000000  0.5769830000000  0.4959850000000 1.0
C      1  0.5316980000000  0.5743830000000  0.4702700000000 1.0
C      1  0.5201650000000  0.5758680000000  0.5384130000000 1.0
C      1  0.4583310000000  0.4852860000000  0.5464590000000 1.0
C      1  0.4780040000000  0.4881650000000  0.4417840000000 1.0
C      1  0.5562820000000  0.4933110000000  0.5241230000000 1.0
C      1  0.5185090000000  0.5511910000000  0.5535800000000 1.0
C      1  0.4267850000000  0.5638670000000  0.4841240000000 1.0
C      1  0.5533130000000  0.5622660000000  0.4492080000000 1.0
C      1  0.6182550000000  0.4801790000000  0.5025290000000 1.0
C      1  0.4396280000000  0.4803710000000  0.6037870000000 1.0
C      1  0.4452280000000  0.4891900000000  0.3909460000000 1.0
C      1  0.5379310000000  0.4313590000000  0.4434040000000 1.0
C      1  0.5397090000000  0.4277540000000  0.5711880000000 1.0
C      1  0.4330580000000  0.4329200000000  0.4981730000000 1.0
C      1  0.4938100000000  0.5240190000000  0.4693650000000 1.0
C      1  0.5314020000000  0.5269780000000  0.4984510000000 1.0
C      1  0.4687160000000  0.5350420000000  0.5240530000000 1.0
C      1  0.5788680000000  0.5456910000000  0.4476240000000 1.0
C      1  0.5059120000000  0.5422180000000  0.5787780000000 1.0
C      1  0.4289220000000  0.5383500000000  0.4706440000000 1.0
C      1  0.5794900000000  0.4943800000000  0.5649770000000 1.0
C      1  0.4063710000000  0.4937600000000  0.5360220000000 1.0
C      1  0.5168300000000  0.4939030000000  0.4087080000000 1.0
C      1  0.5296660000000  0.4726890000000  0.4236390000000 1.0
C      1  0.5611350000000  0.4712820000000  0.5686570000000 1.0
C      1  0.4113970000000  0.4713340000000  0.5162050000000 1.0
C      1  0.5902100000000  0.5451690000000  0.4977060000000 1.0
C      1  0.4564480000000  0.5400970000000  0.5738400000000 1.0
C      1  0.4595890000000  0.5411210000000  0.4301920000000 1.0
C      1  0.4727400000000  0.5116620000000  0.5062600000000 1.0
C      1  0.5122530000000  0.5055980000000  0.4874140000000 1.0
C      1  0.4957690000000  0.4932600000000  0.5090910000000 1.0
C      1  0.4244400000000  0.4451870000000  0.5244140000000 1.0
C      1  0.5194720000000  0.4458370000000  0.4251320000000 1.0
C      1  0.5634110000000  0.4429860000000  0.5590020000000 1.0
C      1  0.4573290000000  0.4715690000000  0.5163670000000 1.0
C      1  0.4978570000000  0.4693090000000  0.4543990000000 1.0
C      1  0.5430700000000  0.4660480000000  0.5285880000000 1.0
C      1  0.4675690000000  0.5834870000000  0.5421090000000 1.0
C      1  0.4768050000000  0.5824670000000  0.4556500000000 1.0
C      1  0.5616550000000  0.5877720000000  0.5046350000000 1.0
C      1  0.6074680000000  0.4877650000000  0.5269430000000 1.0
C      1  0.4230130000000  0.4875280000000  0.5829870000000 1.0
C      1  0.4719560000000  0.4958460000000  0.3910990000000 1.0
C      1  0.4759660000000  0.4193120000000  0.4294960000000 1.0
C      1  0.5724490000000  0.4150560000000  0.5148190000000 1.0
C      1  0.4634390000000  0.4255690000000  0.5549780000000 1.0
C      1  0.5395030000000  0.4744780000000  0.5883230000000 1.0
C      1  0.4134070000000  0.4732420000000  0.4868980000000 1.0
C      1  0.5581740000000  0.4731370000000  0.4292770000000 1.0
C      1  0.5287300000000  0.4159910000000  0.4667550000000 1.0
C      1  0.5183710000000  0.4121840000000  0.5548620000000 1.0
C      1  0.4556390000000  0.4141260000000  0.4907530000000 1.0
C      1  0.4076150000000  0.4956310000000  0.4692040000000 1.0
C      1  0.5659540000000  0.5004220000000  0.4400040000000 1.0
C      1  0.5201130000000  0.4981980000000  0.5817490000000 1.0
C      1  0.5204530000000  0.5549520000000  0.4920220000000 1.0
C      1  0.4757690000000  0.5593100000000  0.5058510000000 1.0
C      1  0.4931740000000  0.5516620000000  0.4827840000000 1.0
C      1  0.5431540000000  0.5988370000000  0.4846740000000 1.0
C      1  0.4945620000000  0.5860940000000  0.5262730000000 1.0
C      1  0.4634570000000  0.5974800000000  0.4776240000000 1.0
C      1  0.4816010000000  0.5232480000000  0.5764190000000 1.0
C      1  0.4446730000000  0.5228760000000  0.4496950000000 1.0
C      1  0.5796190000000  0.5294940000000  0.4733620000000 1.0
C      1  0.5333820000000  0.5146590000000  0.4008440000000 1.0
C      1  0.5744690000000  0.5146440000000  0.5831620000000 1.0
C      1  0.3898330000000  0.5172360000000  0.5273410000000 1.0
C      1  0.4375230000000  0.4715170000000  0.4357550000000 1.0
C      1  0.5733100000000  0.4813580000000  0.4851500000000 1.0
C      1  0.4815610000000  0.4715830000000  0.5806430000000 1.0
C      1  0.4848340000000  0.4553060000000  0.4775620000000 1.0
C      1  0.5390150000000  0.4503740000000  0.5027550000000 1.0
C      1  0.4853260000000  0.4636370000000  0.5064790000000 1.0
C      1  0.5839550000000  0.4998200000000  0.4651870000000 1.0
C      1  0.4911600000000  0.4963410000000  0.5916080000000 1.0
C      1  0.4244560000000  0.4972840000000  0.4440590000000 1.0
C      1  0.5487150000000  0.4657700000000  0.4766640000000 1.0
C      1  0.5028910000000  0.4562040000000  0.5651800000000 1.0
C      1  0.4366190000000  0.4467870000000  0.4515430000000 1.0
C      1  0.5358480000000  0.5141670000000  0.5320060000000 1.0
C      1  0.4385600000000  0.5356010000000  0.5292020000000 1.0
C      1  0.5099530000000  0.5279780000000  0.4434730000000 1.0
C      1  0.4050500000000  0.5611850000000  0.5054460000000 1.0
C      1  0.5387120000000  0.5564130000000  0.4251950000000 1.0
C      1  0.5443320000000  0.5369460000000  0.5515760000000 1.0
C      1  0.4939190000000  0.3988260000000  0.4372150000000 1.0
C      1  0.5552070000000  0.3947600000000  0.5260010000000 1.0
C      1  0.4588990000000  0.4035670000000  0.5379600000000 1.0
C      1  0.4784640000000  0.4261510000000  0.4731870000000 1.0
C      1  0.5198550000000  0.4259000000000  0.5078990000000 1.0
C      1  0.4927510000000  0.4342700000000  0.5198800000000 1.0
C      1  0.5242400000000  0.4491240000000  0.5854160000000 1.0
C      1  0.4231190000000  0.4487520000000  0.4765190000000 1.0
C      1  0.5583780000000  0.4514430000000  0.4504340000000 1.0
C      1  0.4241020000000  0.5629300000000  0.5284050000000 1.0
C      1  0.5103230000000  0.5627280000000  0.4270620000000 1.0
C      1  0.5636120000000  0.5527330000000  0.5372850000000 1.0
C      1  0.4308000000000  0.4979100000000  0.5564820000000 1.0
C      1  0.4881630000000  0.5014310000000  0.4151900000000 1.0
C      1  0.5830450000000  0.5026090000000  0.5356060000000 1.0
C      1  0.5745440000000  0.5256460000000  0.4243010000000 1.0
C      1  0.5278190000000  0.5255590000000  0.5915800000000 1.0
C      1  0.4113200000000  0.5205050000000  0.4856060000000 1.0
C      1  0.3904930000000  0.5338590000000  0.5037060000000 1.0
C      1  0.5505290000000  0.5348750000000  0.4094610000000 1.0
C      1  0.5534930000000  0.5323230000000  0.5797010000000 1.0
C      1  0.4908730000000  0.4437680000000  0.4265690000000 1.0
C      1  0.5709640000000  0.4392150000000  0.5310710000000 1.0
C      1  0.4458710000000  0.4485120000000  0.5460520000000 1.0
C      1  0.4540000000000  0.4653230000000  0.5854630000000 1.0
C      1  0.4512440000000  0.4707150000000  0.4107790000000 1.0
C      1  0.5942130000000  0.4668810000000  0.4983400000000 1.0
C      1  0.4604190000000  0.5677650000000  0.4381210000000 1.0
C      1  0.5837520000000  0.5727100000000  0.4953760000000 1.0
C      1  0.4630090000000  0.5655790000000  0.5635480000000 1.0
C      1  0.4936790000000  0.4311650000000  0.5512740000000 1.0
C      1  0.4550680000000  0.4225250000000  0.4521680000000 1.0
C      1  0.5504610000000  0.4097020000000  0.4902390000000 1.0
C      1  0.5134470000000  0.4992900000000  0.5494540000000 1.0
C      1  0.4284440000000  0.5116600000000  0.5088530000000 1.0
C      1  0.5386190000000  0.5104320000000  0.4515310000000 1.0
C      1  0.5280770000000  0.4039950000000  0.5279810000000 1.0
C      1  0.4727950000000  0.4111280000000  0.5145410000000 1.0
C      1  0.5006850000000  0.4062050000000  0.4639070000000 1.0
C      1  0.5064500000000  0.5799110000000  0.4512360000000 1.0
C      1  0.5463570000000  0.5718690000000  0.5236660000000 1.0
C      1  0.4439900000000  0.5853090000000  0.5241050000000 1.0
C      1  0.5151720000000  0.4712640000000  0.5417800000000 1.0
C      1  0.4506150000000  0.4953490000000  0.4968400000000 1.0
C      1  0.5251080000000  0.4851050000000  0.4663540000000 1.0
C      1  0.4825380000000  0.5093360000000  0.5485980000000 1.0
C      1  0.4668740000000  0.5070320000000  0.4634140000000 1.0
C      1  0.5498790000000  0.5264530000000  0.4751170000000 1.0
C      1  0.4356260000000  0.5271520000000  0.5573150000000 1.0
C      1  0.4868490000000  0.5323780000000  0.4201520000000 1.0
C      1  0.5832080000000  0.5346460000000  0.5247330000000 1.0
C      1  0.4787630000000  0.6159510000000  0.4914310000000 1.0
C      1  0.5237440000000  0.6136610000000  0.4980460000000 1.0
C      1  0.4987770000000  0.6105550000000  0.5094790000000 1.0
END
