TITL C-3577085-527-143 -3.66597500690645e-06 125000 -1174.47258283181 0 0 188 (C1) n - 1
REM
REM in /home/bkarasulu/work/CARBON/AIRSS/Generating-Clusters/EDIP-Nigel-Params/with-SteepDescent/Higher-Symm/SD-CG/HFTN-CG
REM
REM
REM
REM
REM
REM ./C.cell (12c818d87b63d06a65506943cc24bca4)
REM
REM compiler GCC version 9.2.1 20190827 (Red Hat 9.2.1-1)
REM options -cpp -mtune=generic -march=x86-64 -g -O0 -fpre-include=/usr/include/finclude/math-vector-fortran.h
REM seed -1039693892 -1258231937 -268812069 1370586144 -2030264498 593553397 264060299 -2018973532 1729743687 1856232510 1943836967 1191850964 431134468 1496386536 -493942364 692932740 -475269353 -1413779814 2142702055 -2138991291 -1976753970 101721242 -75717462 1230488888 -1083342344 1887136258 301679757 1413794935 69036811 1605328847 1163593996 -1773488635 -1162196056
REM
CELL 1.54180   50.00000   50.00000   50.00000   90.00000   90.00000   90.00000
LATT -1
SFAC C  
C      1  0.5226200000000  0.5115240000000  0.3913240000000 1.0
C      1  0.5910690000000  0.5550210000000  0.4956790000000 1.0
C      1  0.4494530000000  0.4257350000000  0.4342540000000 1.0
C      1  0.5479200000000  0.4640860000000  0.4572340000000 1.0
C      1  0.5658570000000  0.4173200000000  0.4928610000000 1.0
C      1  0.4288150000000  0.5264180000000  0.5597280000000 1.0
C      1  0.3950310000000  0.5367760000000  0.4861060000000 1.0
C      1  0.5666560000000  0.4448740000000  0.5900190000000 1.0
C      1  0.4346380000000  0.5048820000000  0.5974210000000 1.0
C      1  0.5642430000000  0.5901230000000  0.5164360000000 1.0
C      1  0.4196600000000  0.4715050000000  0.5636090000000 1.0
C      1  0.5876310000000  0.4329730000000  0.5719310000000 1.0
C      1  0.4349860000000  0.4114060000000  0.4536240000000 1.0
C      1  0.6043420000000  0.5242900000000  0.5293140000000 1.0
C      1  0.6118940000000  0.5106530000000  0.4979500000000 1.0
C      1  0.5723320000000  0.4195830000000  0.5478600000000 1.0
C      1  0.4675800000000  0.5417380000000  0.5404120000000 1.0
C      1  0.4729120000000  0.4619290000000  0.5119320000000 1.0
C      1  0.4004810000000  0.5381400000000  0.5151520000000 1.0
C      1  0.4579140000000  0.5293650000000  0.4585480000000 1.0
C      1  0.3969580000000  0.5123580000000  0.5322480000000 1.0
C      1  0.5919760000000  0.4540130000000  0.5182180000000 1.0
C      1  0.4803900000000  0.4804740000000  0.5987570000000 1.0
C      1  0.4081320000000  0.4610030000000  0.5133570000000 1.0
C      1  0.4511270000000  0.5930960000000  0.5059710000000 1.0
C      1  0.5350550000000  0.4918250000000  0.4942860000000 1.0
C      1  0.4394910000000  0.5519030000000  0.5486830000000 1.0
C      1  0.5456020000000  0.4135700000000  0.5603530000000 1.0
C      1  0.4637080000000  0.5106430000000  0.3777630000000 1.0
C      1  0.4276660000000  0.4502100000000  0.4664690000000 1.0
C      1  0.3963670000000  0.5108600000000  0.4742060000000 1.0
C      1  0.5354720000000  0.5569610000000  0.4797780000000 1.0
C      1  0.4735010000000  0.3973890000000  0.5432240000000 1.0
C      1  0.5366160000000  0.6019110000000  0.5197740000000 1.0
C      1  0.4705200000000  0.4876090000000  0.5483100000000 1.0
C      1  0.5459890000000  0.5267930000000  0.4816120000000 1.0
C      1  0.5284170000000  0.4909130000000  0.5243400000000 1.0
C      1  0.4738000000000  0.4855590000000  0.4315980000000 1.0
C      1  0.5958160000000  0.5209980000000  0.4530420000000 1.0
C      1  0.4389930000000  0.4500330000000  0.4216630000000 1.0
C      1  0.5082880000000  0.5101540000000  0.5288300000000 1.0
C      1  0.4600220000000  0.4651010000000  0.5851520000000 1.0
C      1  0.4660240000000  0.5968160000000  0.4818530000000 1.0
C      1  0.5278370000000  0.4930980000000  0.5959480000000 1.0
C      1  0.5206270000000  0.5635830000000  0.6010680000000 1.0
C      1  0.5098500000000  0.4917840000000  0.4774950000000 1.0
C      1  0.5548870000000  0.5285270000000  0.4263490000000 1.0
C      1  0.4074760000000  0.4396500000000  0.5347130000000 1.0
C      1  0.4274290000000  0.5092380000000  0.5355970000000 1.0
C      1  0.5454190000000  0.4033920000000  0.4773910000000 1.0
C      1  0.5443340000000  0.4858680000000  0.4202370000000 1.0
C      1  0.5776310000000  0.4931800000000  0.5035250000000 1.0
C      1  0.3814410000000  0.4647420000000  0.4744130000000 1.0
C      1  0.5143570000000  0.5738320000000  0.4954390000000 1.0
C      1  0.5493590000000  0.5082210000000  0.4038350000000 1.0
C      1  0.5191400000000  0.5494540000000  0.5551580000000 1.0
C      1  0.4392890000000  0.5183830000000  0.5062060000000 1.0
C      1  0.4696010000000  0.4182230000000  0.5044630000000 1.0
C      1  0.4642500000000  0.5315610000000  0.4096490000000 1.0
C      1  0.4300500000000  0.4216860000000  0.5301680000000 1.0
C      1  0.5287060000000  0.4203570000000  0.4316590000000 1.0
C      1  0.4955110000000  0.5048210000000  0.4253830000000 1.0
C      1  0.5961530000000  0.4561750000000  0.4891010000000 1.0
C      1  0.4252560000000  0.4133410000000  0.4794570000000 1.0
C      1  0.5065040000000  0.4545170000000  0.4027880000000 1.0
C      1  0.4338450000000  0.4764580000000  0.5884110000000 1.0
C      1  0.4890230000000  0.6091620000000  0.5337400000000 1.0
C      1  0.4735950000000  0.5592460000000  0.5829800000000 1.0
C      1  0.4139080000000  0.5516490000000  0.4691660000000 1.0
C      1  0.5831540000000  0.5383940000000  0.4311420000000 1.0
C      1  0.4389620000000  0.4824820000000  0.5424400000000 1.0
C      1  0.4869040000000  0.5372450000000  0.4657890000000 1.0
C      1  0.5942270000000  0.5517910000000  0.5251110000000 1.0
C      1  0.4539770000000  0.4980910000000  0.4513890000000 1.0
C      1  0.4524770000000  0.4184330000000  0.5511620000000 1.0
C      1  0.5424220000000  0.4413260000000  0.5729190000000 1.0
C      1  0.4718950000000  0.5084010000000  0.6084940000000 1.0
C      1  0.5190890000000  0.5109970000000  0.6157280000000 1.0
C      1  0.4873390000000  0.4587990000000  0.4423400000000 1.0
C      1  0.5340830000000  0.5749020000000  0.4285880000000 1.0
C      1  0.5819420000000  0.5656770000000  0.4350270000000 1.0
C      1  0.5184060000000  0.4498350000000  0.4546340000000 1.0
C      1  0.4379340000000  0.4693890000000  0.5153740000000 1.0
C      1  0.4937560000000  0.4618930000000  0.5493930000000 1.0
C      1  0.4051720000000  0.4477440000000  0.5611510000000 1.0
C      1  0.5762850000000  0.4548330000000  0.4319230000000 1.0
C      1  0.5285150000000  0.3874580000000  0.5215840000000 1.0
C      1  0.4952560000000  0.5254820000000  0.6167640000000 1.0
C      1  0.5537090000000  0.5319840000000  0.5812630000000 1.0
C      1  0.4621220000000  0.5989770000000  0.5320550000000 1.0
C      1  0.4488330000000  0.5953590000000  0.5563660000000 1.0
C      1  0.5066130000000  0.5293320000000  0.4414200000000 1.0
C      1  0.5924540000000  0.4814310000000  0.4344930000000 1.0
C      1  0.4587700000000  0.5724100000000  0.4366420000000 1.0
C      1  0.4207710000000  0.5581340000000  0.5244890000000 1.0
C      1  0.4401940000000  0.4204350000000  0.5029110000000 1.0
C      1  0.4857660000000  0.5718980000000  0.4264850000000 1.0
C      1  0.5162490000000  0.4917840000000  0.4452120000000 1.0
C      1  0.4565700000000  0.4752540000000  0.4075280000000 1.0
C      1  0.5236990000000  0.3931780000000  0.4945240000000 1.0
C      1  0.4979510000000  0.4058820000000  0.5560880000000 1.0
C      1  0.4161710000000  0.5407920000000  0.4411380000000 1.0
C      1  0.5024260000000  0.4807040000000  0.3891320000000 1.0
C      1  0.4408710000000  0.4900530000000  0.4953000000000 1.0
C      1  0.4815020000000  0.4991240000000  0.5209160000000 1.0
C      1  0.4644920000000  0.4385440000000  0.5727850000000 1.0
C      1  0.4324340000000  0.4937210000000  0.4069200000000 1.0
C      1  0.5743780000000  0.4302020000000  0.4495060000000 1.0
C      1  0.5520080000000  0.5798130000000  0.5634320000000 1.0
C      1  0.4879650000000  0.5497130000000  0.4069420000000 1.0
C      1  0.5526690000000  0.5803930000000  0.4717560000000 1.0
C      1  0.4837550000000  0.4388490000000  0.4092210000000 1.0
C      1  0.5605650000000  0.5254130000000  0.5331590000000 1.0
C      1  0.5365250000000  0.6039280000000  0.4754270000000 1.0
C      1  0.5947420000000  0.4811050000000  0.5259530000000 1.0
C      1  0.3888270000000  0.4861650000000  0.5166650000000 1.0
C      1  0.4770740000000  0.5192630000000  0.5602840000000 1.0
C      1  0.5706310000000  0.4910000000000  0.4551430000000 1.0
C      1  0.5070680000000  0.4740520000000  0.5895100000000 1.0
C      1  0.5115410000000  0.4437140000000  0.4845970000000 1.0
C      1  0.4971890000000  0.3867030000000  0.4841220000000 1.0
C      1  0.5899720000000  0.4847260000000  0.5541300000000 1.0
C      1  0.5693700000000  0.5227000000000  0.5030220000000 1.0
C      1  0.4475270000000  0.5442630000000  0.4340980000000 1.0
C      1  0.4967720000000  0.4688940000000  0.4925610000000 1.0
C      1  0.5299060000000  0.5458110000000  0.4243290000000 1.0
C      1  0.4664260000000  0.4520550000000  0.4652670000000 1.0
C      1  0.5032080000000  0.5956930000000  0.5556720000000 1.0
C      1  0.4983100000000  0.5174130000000  0.4842580000000 1.0
C      1  0.4934790000000  0.5663560000000  0.5563050000000 1.0
C      1  0.4889420000000  0.4050830000000  0.4616880000000 1.0
C      1  0.5114190000000  0.5292330000000  0.5074690000000 1.0
C      1  0.4544940000000  0.5897150000000  0.4577350000000 1.0
C      1  0.4091280000000  0.5185100000000  0.5932150000000 1.0
C      1  0.5362910000000  0.5091510000000  0.5718050000000 1.0
C      1  0.5756160000000  0.5809220000000  0.4904360000000 1.0
C      1  0.5372770000000  0.5571780000000  0.5783740000000 1.0
C      1  0.5306500000000  0.4421060000000  0.4127820000000 1.0
C      1  0.5089620000000  0.5845290000000  0.4398940000000 1.0
C      1  0.5101280000000  0.5212610000000  0.5583440000000 1.0
C      1  0.5868890000000  0.4309280000000  0.4760420000000 1.0
C      1  0.5535590000000  0.4597250000000  0.4134460000000 1.0
C      1  0.4950880000000  0.5529240000000  0.6053810000000 1.0
C      1  0.3991360000000  0.5261140000000  0.5674020000000 1.0
C      1  0.3814940000000  0.4895800000000  0.4878010000000 1.0
C      1  0.5475540000000  0.4593130000000  0.5486970000000 1.0
C      1  0.5594120000000  0.5800930000000  0.4429430000000 1.0
C      1  0.4374200000000  0.5150410000000  0.3882920000000 1.0
C      1  0.4777940000000  0.3894260000000  0.5067070000000 1.0
C      1  0.4309640000000  0.5737430000000  0.5032440000000 1.0
C      1  0.4766500000000  0.4190590000000  0.4286510000000 1.0
C      1  0.6124330000000  0.4813770000000  0.4806040000000 1.0
C      1  0.5784660000000  0.5333140000000  0.5668980000000 1.0
C      1  0.5324800000000  0.5986570000000  0.5495630000000 1.0
C      1  0.4464810000000  0.5717890000000  0.5706860000000 1.0
C      1  0.5957710000000  0.4621740000000  0.5715670000000 1.0
C      1  0.4034730000000  0.4512790000000  0.4853460000000 1.0
C      1  0.4925200000000  0.4291250000000  0.5733770000000 1.0
C      1  0.4798210000000  0.5563910000000  0.4917870000000 1.0
C      1  0.4803600000000  0.4382330000000  0.5316190000000 1.0
C      1  0.5525180000000  0.5147440000000  0.4530320000000 1.0
C      1  0.4261330000000  0.4927260000000  0.4369570000000 1.0
C      1  0.5670840000000  0.5688230000000  0.5375090000000 1.0
C      1  0.5534100000000  0.4673270000000  0.4875840000000 1.0
C      1  0.5483910000000  0.4174070000000  0.4518620000000 1.0
C      1  0.5494560000000  0.4982970000000  0.5452860000000 1.0
C      1  0.5655050000000  0.4430150000000  0.5291170000000 1.0
C      1  0.4673340000000  0.5270050000000  0.5138650000000 1.0
C      1  0.5153640000000  0.5399250000000  0.3989430000000 1.0
C      1  0.5461850000000  0.4401290000000  0.5023150000000 1.0
C      1  0.4641360000000  0.5277210000000  0.5853570000000 1.0
C      1  0.5239960000000  0.4035940000000  0.5438990000000 1.0
C      1  0.4581610000000  0.4810210000000  0.4746260000000 1.0
C      1  0.5069280000000  0.6097900000000  0.5097530000000 1.0
C      1  0.4401500000000  0.5420300000000  0.4826890000000 1.0
C      1  0.6146030000000  0.4873510000000  0.4521590000000 1.0
C      1  0.5411660000000  0.5494900000000  0.5328630000000 1.0
C      1  0.4056590000000  0.5129220000000  0.4461300000000 1.0
C      1  0.4737880000000  0.4841720000000  0.3836210000000 1.0
C      1  0.6046630000000  0.5328800000000  0.4790800000000 1.0
C      1  0.5011300000000  0.5550960000000  0.5146620000000 1.0
C      1  0.4833090000000  0.4287500000000  0.4794380000000 1.0
C      1  0.5206730000000  0.4649060000000  0.5350890000000 1.0
C      1  0.5115760000000  0.6034010000000  0.4625130000000 1.0
C      1  0.5964820000000  0.5136700000000  0.5559370000000 1.0
C      1  0.4920460000000  0.6092180000000  0.4829570000000 1.0
C      1  0.5145020000000  0.4465930000000  0.5835580000000 1.0
C      1  0.4202430000000  0.4629510000000  0.4402050000000 1.0
END
