TITL C-3577082-504-513 4.35063101526774e-07 125000 -220.045953228508 0 0 37 (C1) n - 1
REM
REM in /home/bkarasulu/work/CARBON/AIRSS/Generating-Clusters/EDIP-Nigel-Params/with-SteepDescent/Higher-Symm/SD-CG/HFTN-CG
REM
REM
REM
REM
REM
REM ./C.cell (12c818d87b63d06a65506943cc24bca4)
REM
REM compiler GCC version 9.2.1 20190827 (Red Hat 9.2.1-1)
REM options -cpp -mtune=generic -march=x86-64 -g -O0 -fpre-include=/usr/include/finclude/math-vector-fortran.h
REM seed -1707924994 1758915201 1351131441 1626634302 -273192815 -1268199322 -88323883 1402674333 91747533 -1885369935 1676335164 -2039487490 780476303 -251887693 -1960103682 -278743192 1712713679 1721825705 -1124265192 722321500 -1371544898 -2100906457 -273697315 -1094813787 -2021695547 -391410299 -676850810 630953636 297075836 -770807995 619953887 -890551322 2080991528
REM
CELL 1.54180   50.00000   50.00000   50.00000   90.00000   90.00000   90.00000
LATT -1
SFAC C  
C      1  0.4824840000000  0.5064500000000  0.4618210000000 1.0
C      1  0.4824340000000  0.5507780000000  0.4904320000000 1.0
C      1  0.4820940000000  0.5211830000000  0.5387830000000 1.0
C      1  0.4810710000000  0.4718290000000  0.5328880000000 1.0
C      1  0.4836530000000  0.4546540000000  0.4748770000000 1.0
C      1  0.4516430000000  0.4713040000000  0.5320390000000 1.0
C      1  0.4548260000000  0.4564060000000  0.4763050000000 1.0
C      1  0.4547530000000  0.5061800000000  0.4691270000000 1.0
C      1  0.4532440000000  0.5488160000000  0.4915920000000 1.0
C      1  0.4538670000000  0.5209580000000  0.5311720000000 1.0
C      1  0.4410930000000  0.4812910000000  0.4724110000000 1.0
C      1  0.4428860000000  0.5312140000000  0.4722100000000 1.0
C      1  0.4443660000000  0.5436070000000  0.5177550000000 1.0
C      1  0.4386240000000  0.4968300000000  0.5318970000000 1.0
C      1  0.4353840000000  0.4669420000000  0.5073110000000 1.0
C      1  0.5599760000000  0.5234560000000  0.5097860000000 1.0
C      1  0.5591530000000  0.4967920000000  0.5219620000000 1.0
C      1  0.5579410000000  0.4770300000000  0.5005850000000 1.0
C      1  0.5578060000000  0.4912140000000  0.4752950000000 1.0
C      1  0.5593900000000  0.5199020000000  0.4804520000000 1.0
C      1  0.4931620000000  0.4949710000000  0.5469330000000 1.0
C      1  0.4979000000000  0.4544160000000  0.5020330000000 1.0
C      1  0.4977750000000  0.4811140000000  0.4671080000000 1.0
C      1  0.4980180000000  0.5290050000000  0.4748750000000 1.0
C      1  0.4994100000000  0.5367640000000  0.5192770000000 1.0
C      1  0.5466720000000  0.5381640000000  0.4634560000000 1.0
C      1  0.5481580000000  0.5452420000000  0.5229480000000 1.0
C      1  0.5461560000000  0.4930390000000  0.5462580000000 1.0
C      1  0.5481080000000  0.4512050000000  0.5038560000000 1.0
C      1  0.5487870000000  0.4802350000000  0.4512420000000 1.0
C      1  0.5231930000000  0.4413720000000  0.5029830000000 1.0
C      1  0.5220400000000  0.4781250000000  0.4523590000000 1.0
C      1  0.5200400000000  0.5394610000000  0.4594940000000 1.0
C      1  0.5225730000000  0.5503390000000  0.5297700000000 1.0
C      1  0.5203420000000  0.4941550000000  0.5532210000000 1.0
C      1  0.5089590000000  0.5162850000000  0.4995630000000 1.0
C      1  0.5033730000000  0.4868490000000  0.5046110000000 1.0
END
