TITL C-3577076-40-632 -5.42180205786323e-06 125000 -1040.40248383245 0 0 167 (C1) n - 1
REM
REM in /home/bkarasulu/work/CARBON/AIRSS/Generating-Clusters/EDIP-Nigel-Params/with-SteepDescent/Higher-Symm/SD-CG/HFTN-CG
REM
REM
REM
REM
REM
REM ./C.cell (12c818d87b63d06a65506943cc24bca4)
REM
REM compiler GCC version 9.2.1 20190827 (Red Hat 9.2.1-1)
REM options -cpp -mtune=generic -march=x86-64 -g -O0 -fpre-include=/usr/include/finclude/math-vector-fortran.h
REM seed 591319064 -41206911 -2092373491 -12934275 -1833975288 2076093262 -1406430551 71797361 1003820207 -391190308 1643055104 1017959740 -102435195 -330455722 -1950403245 982191542 155755010 -1924205900 342463245 628789717 794663963 53590671 -111349109 421845789 -551705569 -1788718803 -81505237 163623444 -2084376910 2092245561 -1365167498 1639874164 220860375
REM
CELL 1.54180   50.00000   50.00000   50.00000   90.00000   90.00000   90.00000
LATT -1
SFAC C  
C      1  0.4289740000000  0.4697330000000  0.4827430000000 1.0
C      1  0.5604930000000  0.5349370000000  0.5218720000000 1.0
C      1  0.6087990000000  0.4574810000000  0.4936350000000 1.0
C      1  0.4044950000000  0.5415400000000  0.5155940000000 1.0
C      1  0.4259760000000  0.5072450000000  0.4913650000000 1.0
C      1  0.5706330000000  0.4789610000000  0.4983820000000 1.0
C      1  0.4681760000000  0.5133940000000  0.6094490000000 1.0
C      1  0.5461330000000  0.4842370000000  0.3925470000000 1.0
C      1  0.5444190000000  0.4100410000000  0.5036240000000 1.0
C      1  0.4559080000000  0.5883980000000  0.4953840000000 1.0
C      1  0.5179740000000  0.4343560000000  0.4436270000000 1.0
C      1  0.4888160000000  0.5589670000000  0.5483160000000 1.0
C      1  0.5651820000000  0.4286390000000  0.5155860000000 1.0
C      1  0.4363890000000  0.5783710000000  0.4759960000000 1.0
C      1  0.5047030000000  0.5563440000000  0.4749480000000 1.0
C      1  0.4821040000000  0.4391760000000  0.5248410000000 1.0
C      1  0.5193110000000  0.4739540000000  0.6066110000000 1.0
C      1  0.4878770000000  0.5141270000000  0.4029070000000 1.0
C      1  0.4939310000000  0.6070560000000  0.5312430000000 1.0
C      1  0.4997970000000  0.3997380000000  0.4647260000000 1.0
C      1  0.4556710000000  0.4642060000000  0.4937130000000 1.0
C      1  0.5359220000000  0.5489120000000  0.5153170000000 1.0
C      1  0.4335450000000  0.5319520000000  0.5099680000000 1.0
C      1  0.5778750000000  0.4475520000000  0.4932710000000 1.0
C      1  0.5469880000000  0.4174210000000  0.4749060000000 1.0
C      1  0.4496140000000  0.5841120000000  0.5258650000000 1.0
C      1  0.5539830000000  0.5890720000000  0.5101670000000 1.0
C      1  0.4416960000000  0.4142650000000  0.4903130000000 1.0
C      1  0.4525010000000  0.4040890000000  0.5328110000000 1.0
C      1  0.5400850000000  0.5913240000000  0.4681540000000 1.0
C      1  0.4518120000000  0.5085600000000  0.4211870000000 1.0
C      1  0.5365710000000  0.4903030000000  0.5851940000000 1.0
C      1  0.4717940000000  0.5381270000000  0.3988740000000 1.0
C      1  0.5311250000000  0.4477690000000  0.6066500000000 1.0
C      1  0.5777710000000  0.4716080000000  0.4208970000000 1.0
C      1  0.4351040000000  0.5244370000000  0.5756990000000 1.0
C      1  0.4958930000000  0.4995960000000  0.4310980000000 1.0
C      1  0.5156560000000  0.4934890000000  0.5616880000000 1.0
C      1  0.5309290000000  0.5664950000000  0.4305540000000 1.0
C      1  0.4678890000000  0.4307590000000  0.5721830000000 1.0
C      1  0.4954840000000  0.4731530000000  0.4703580000000 1.0
C      1  0.5022680000000  0.5160690000000  0.5189110000000 1.0
C      1  0.3972390000000  0.4686240000000  0.5134520000000 1.0
C      1  0.5941400000000  0.5324970000000  0.4937960000000 1.0
C      1  0.4560990000000  0.5622520000000  0.5836650000000 1.0
C      1  0.5573890000000  0.4307190000000  0.4180850000000 1.0
C      1  0.5692140000000  0.5455480000000  0.5481420000000 1.0
C      1  0.4304440000000  0.4637560000000  0.4527990000000 1.0
C      1  0.5186810000000  0.5316560000000  0.4989970000000 1.0
C      1  0.4664920000000  0.4904650000000  0.4996270000000 1.0
C      1  0.5693820000000  0.4475960000000  0.4372270000000 1.0
C      1  0.4359010000000  0.5515450000000  0.5638930000000 1.0
C      1  0.6097290000000  0.4857650000000  0.4783650000000 1.0
C      1  0.3940200000000  0.5155480000000  0.5279390000000 1.0
C      1  0.4981430000000  0.4189780000000  0.5396720000000 1.0
C      1  0.4902220000000  0.5880790000000  0.4575170000000 1.0
C      1  0.4472230000000  0.4679120000000  0.3991520000000 1.0
C      1  0.5522470000000  0.5369550000000  0.6084380000000 1.0
C      1  0.5599560000000  0.5919920000000  0.5386080000000 1.0
C      1  0.4398950000000  0.4205890000000  0.4615440000000 1.0
C      1  0.5805420000000  0.5717620000000  0.5456800000000 1.0
C      1  0.4163150000000  0.4372340000000  0.4567890000000 1.0
C      1  0.5852940000000  0.4968230000000  0.4614260000000 1.0
C      1  0.4171170000000  0.5018990000000  0.5418530000000 1.0
C      1  0.5096970000000  0.5527160000000  0.4168200000000 1.0
C      1  0.4931860000000  0.4400390000000  0.5841290000000 1.0
C      1  0.5677220000000  0.4372040000000  0.4661940000000 1.0
C      1  0.4316030000000  0.5614060000000  0.5354040000000 1.0
C      1  0.4328570000000  0.4751520000000  0.5790920000000 1.0
C      1  0.5717290000000  0.5220790000000  0.4221870000000 1.0
C      1  0.4574410000000  0.4937900000000  0.5266740000000 1.0
C      1  0.5334940000000  0.5103350000000  0.4858640000000 1.0
C      1  0.4932540000000  0.4052300000000  0.4944740000000 1.0
C      1  0.5018870000000  0.6000210000000  0.5028000000000 1.0
C      1  0.4460060000000  0.5302690000000  0.6017590000000 1.0
C      1  0.5716140000000  0.4724770000000  0.3933990000000 1.0
C      1  0.5775980000000  0.4735680000000  0.5592270000000 1.0
C      1  0.4135060000000  0.5345940000000  0.4430010000000 1.0
C      1  0.5292230000000  0.5475070000000  0.6197710000000 1.0
C      1  0.4724530000000  0.4629230000000  0.3914430000000 1.0
C      1  0.5304290000000  0.4631720000000  0.5197950000000 1.0
C      1  0.4644610000000  0.5382150000000  0.4791110000000 1.0
C      1  0.4541890000000  0.5093270000000  0.4775840000000 1.0
C      1  0.5442680000000  0.4889150000000  0.5067010000000 1.0
C      1  0.5711640000000  0.5426990000000  0.4472670000000 1.0
C      1  0.4293220000000  0.4546730000000  0.5529040000000 1.0
C      1  0.4183380000000  0.4740050000000  0.5327760000000 1.0
C      1  0.5819510000000  0.5252350000000  0.4686820000000 1.0
C      1  0.4720170000000  0.5536110000000  0.5040360000000 1.0
C      1  0.5208140000000  0.4464880000000  0.4956440000000 1.0
C      1  0.4991990000000  0.4656920000000  0.3909810000000 1.0
C      1  0.5160380000000  0.5260430000000  0.6084210000000 1.0
C      1  0.5235310000000  0.5114010000000  0.5409350000000 1.0
C      1  0.4797690000000  0.4813330000000  0.4458060000000 1.0
C      1  0.4632600000000  0.3994730000000  0.5041800000000 1.0
C      1  0.5321220000000  0.6020310000000  0.4944820000000 1.0
C      1  0.5414090000000  0.5493570000000  0.4535460000000 1.0
C      1  0.4603180000000  0.4487770000000  0.5477580000000 1.0
C      1  0.4758770000000  0.4505750000000  0.4780900000000 1.0
C      1  0.5197180000000  0.5635050000000  0.5378110000000 1.0
C      1  0.5401710000000  0.4313830000000  0.5607680000000 1.0
C      1  0.4656970000000  0.5639080000000  0.4395010000000 1.0
C      1  0.5237600000000  0.4579470000000  0.4669390000000 1.0
C      1  0.4777970000000  0.5359220000000  0.5285990000000 1.0
C      1  0.5450620000000  0.5122760000000  0.4059120000000 1.0
C      1  0.4640890000000  0.4829670000000  0.5990860000000 1.0
C      1  0.4837630000000  0.5539690000000  0.5789180000000 1.0
C      1  0.5308460000000  0.4394450000000  0.4168840000000 1.0
C      1  0.4992400000000  0.5703000000000  0.5051960000000 1.0
C      1  0.4929260000000  0.4355240000000  0.4974960000000 1.0
C      1  0.4646400000000  0.4353780000000  0.4539720000000 1.0
C      1  0.5331060000000  0.5876040000000  0.5508560000000 1.0
C      1  0.5008550000000  0.5199190000000  0.4510720000000 1.0
C      1  0.5095330000000  0.4675090000000  0.5445590000000 1.0
C      1  0.5764780000000  0.4996010000000  0.5464380000000 1.0
C      1  0.4035140000000  0.5078420000000  0.4499180000000 1.0
C      1  0.4278990000000  0.4217390000000  0.5344290000000 1.0
C      1  0.5664920000000  0.5762700000000  0.4669180000000 1.0
C      1  0.5898630000000  0.4527170000000  0.5433400000000 1.0
C      1  0.4083540000000  0.5553090000000  0.4643200000000 1.0
C      1  0.5503510000000  0.5069600000000  0.5298870000000 1.0
C      1  0.4544350000000  0.4940300000000  0.4494220000000 1.0
C      1  0.5113020000000  0.4393540000000  0.5590210000000 1.0
C      1  0.4927920000000  0.5471730000000  0.4419370000000 1.0
C      1  0.4739410000000  0.4068610000000  0.5540690000000 1.0
C      1  0.5196620000000  0.5878560000000  0.4482360000000 1.0
C      1  0.5540670000000  0.5173430000000  0.5872850000000 1.0
C      1  0.4325260000000  0.4888050000000  0.4104580000000 1.0
C      1  0.5171450000000  0.5278950000000  0.4011600000000 1.0
C      1  0.4912490000000  0.4659050000000  0.5987740000000 1.0
C      1  0.4914640000000  0.5078690000000  0.5712330000000 1.0
C      1  0.5203910000000  0.4839970000000  0.4287260000000 1.0
C      1  0.6083260000000  0.4646790000000  0.5238470000000 1.0
C      1  0.3944710000000  0.5409990000000  0.4864850000000 1.0
C      1  0.4748310000000  0.5862030000000  0.5414020000000 1.0
C      1  0.5278930000000  0.4077170000000  0.4555010000000 1.0
C      1  0.5430310000000  0.4974950000000  0.4421610000000 1.0
C      1  0.4659460000000  0.4937630000000  0.5697990000000 1.0
C      1  0.5895770000000  0.5576270000000  0.5106660000000 1.0
C      1  0.4070530000000  0.4484040000000  0.4924010000000 1.0
C      1  0.4200060000000  0.4244130000000  0.5065000000000 1.0
C      1  0.5761760000000  0.5788000000000  0.4947280000000 1.0
C      1  0.4360370000000  0.5335550000000  0.4245450000000 1.0
C      1  0.5560370000000  0.4695130000000  0.5767660000000 1.0
C      1  0.5297230000000  0.5195610000000  0.4576130000000 1.0
C      1  0.4721840000000  0.4767300000000  0.5461640000000 1.0
C      1  0.5860510000000  0.4971750000000  0.4320940000000 1.0
C      1  0.4193450000000  0.5008840000000  0.5711730000000 1.0
C      1  0.3978370000000  0.5113260000000  0.4805400000000 1.0
C      1  0.5927310000000  0.4904740000000  0.5190240000000 1.0
C      1  0.5165900000000  0.4012180000000  0.5154070000000 1.0
C      1  0.4802960000000  0.6026480000000  0.4820900000000 1.0
C      1  0.4907070000000  0.5269090000000  0.5930400000000 1.0
C      1  0.5242310000000  0.4669080000000  0.4053160000000 1.0
C      1  0.4473130000000  0.5548160000000  0.4615000000000 1.0
C      1  0.5529290000000  0.4457870000000  0.5365140000000 1.0
C      1  0.4866680000000  0.4187130000000  0.4439840000000 1.0
C      1  0.5158370000000  0.6096290000000  0.5487060000000 1.0
C      1  0.5517480000000  0.4768960000000  0.4641880000000 1.0
C      1  0.4497540000000  0.5217410000000  0.5343540000000 1.0
C      1  0.3856720000000  0.4958000000000  0.5059380000000 1.0
C      1  0.6092610000000  0.5083770000000  0.5014090000000 1.0
C      1  0.5501350000000  0.4429510000000  0.5861240000000 1.0
C      1  0.4537080000000  0.5541560000000  0.4141560000000 1.0
C      1  0.5754070000000  0.5229230000000  0.5668060000000 1.0
C      1  0.4146350000000  0.4831590000000  0.4347990000000 1.0
C      1  0.4954820000000  0.4918910000000  0.4990400000000 1.0
END
