TITL C-3578195-8548-595 -4.55428056105599e-06 125000 -564.169979298245 0 0 88 (C1) n - 1
REM
REM in /home/bkarasulu/work/CARBON/AIRSS/Generating-Clusters/EDIP-Nigel-Params/with-SteepDescent/Higher-Symm/SD-CG/HFTN-CG
REM
REM
REM
REM
REM
REM ./C.cell (12c818d87b63d06a65506943cc24bca4)
REM
REM compiler GCC version 9.2.1 20190827 (Red Hat 9.2.1-1)
REM options -cpp -mtune=generic -march=x86-64 -g -O0 -fpre-include=/usr/include/finclude/math-vector-fortran.h
REM seed -650972349 -719860571 1602380219 -492036709 1095938038 348550181 -2099362728 1595010094 1914394715 -1200517747 -560887698 -569397466 193849067 -1231883728 719099605 -1621938999 -630265811 -483072265 1382167599 -589011830 374828450 1758713733 -561815621 -2024923876 -397189653 -60001619 1587881504 -1148451021 413646499 810069345 -1065606159 -121289272 -307214119
REM
CELL 1.54180   50.00000   50.00000   50.00000   90.00000   90.00000   90.00000
LATT -1
SFAC C  
C      1  0.4698380000000  0.4285750000000  0.5229080000000 1.0
C      1  0.4716220000000  0.5000800000000  0.5713570000000 1.0
C      1  0.4699120000000  0.5703820000000  0.5224740000000 1.0
C      1  0.4718090000000  0.5410030000000  0.4418320000000 1.0
C      1  0.4695410000000  0.4551940000000  0.4399330000000 1.0
C      1  0.4461540000000  0.5592340000000  0.4811130000000 1.0
C      1  0.4455080000000  0.4998460000000  0.4364530000000 1.0
C      1  0.4450760000000  0.4399760000000  0.4798990000000 1.0
C      1  0.4454530000000  0.4617660000000  0.5501740000000 1.0
C      1  0.4459800000000  0.5358290000000  0.5506990000000 1.0
C      1  0.4311930000000  0.5098540000000  0.5484260000000 1.0
C      1  0.4325250000000  0.5480760000000  0.5047860000000 1.0
C      1  0.4308420000000  0.5196060000000  0.4533310000000 1.0
C      1  0.4314600000000  0.4625410000000  0.4668790000000 1.0
C      1  0.4309220000000  0.4557060000000  0.5250290000000 1.0
C      1  0.5451000000000  0.4570380000000  0.5596070000000 1.0
C      1  0.5456150000000  0.5482360000000  0.5602240000000 1.0
C      1  0.5460070000000  0.5653360000000  0.4800420000000 1.0
C      1  0.5455430000000  0.4972610000000  0.4288060000000 1.0
C      1  0.5437190000000  0.4288410000000  0.4768870000000 1.0
C      1  0.5466330000000  0.5474870000000  0.4559510000000 1.0
C      1  0.5441840000000  0.4690850000000  0.4378130000000 1.0
C      1  0.5441660000000  0.4304730000000  0.5065630000000 1.0
C      1  0.5463050000000  0.4865640000000  0.5666230000000 1.0
C      1  0.5466360000000  0.5761990000000  0.5389320000000 1.0
C      1  0.4558350000000  0.5437530000000  0.5233310000000 1.0
C      1  0.4542060000000  0.5349330000000  0.4652150000000 1.0
C      1  0.4545280000000  0.4770350000000  0.4540920000000 1.0
C      1  0.4543940000000  0.4490060000000  0.5069730000000 1.0
C      1  0.4542450000000  0.4906440000000  0.5486820000000 1.0
C      1  0.4709260000000  0.5304240000000  0.5664570000000 1.0
C      1  0.4708070000000  0.5734640000000  0.4917120000000 1.0
C      1  0.4705920000000  0.5137210000000  0.4271300000000 1.0
C      1  0.4691120000000  0.4342590000000  0.4632160000000 1.0
C      1  0.4699660000000  0.4442040000000  0.5499610000000 1.0
C      1  0.5201760000000  0.5125250000000  0.4293850000000 1.0
C      1  0.5179120000000  0.4347620000000  0.4636310000000 1.0
C      1  0.5195400000000  0.4454140000000  0.5490980000000 1.0
C      1  0.5205790000000  0.5309710000000  0.5624240000000 1.0
C      1  0.5202430000000  0.5736920000000  0.4919880000000 1.0
C      1  0.5577190000000  0.4933150000000  0.5228130000000 1.0
C      1  0.5592030000000  0.5387700000000  0.5197700000000 1.0
C      1  0.5546890000000  0.5073990000000  0.4781180000000 1.0
C      1  0.5616170000000  0.4779260000000  0.4790070000000 1.0
C      1  0.5695730000000  0.4708370000000  0.5063630000000 1.0
C      1  0.4776930000000  0.5212970000000  0.5113850000000 1.0
C      1  0.4712110000000  0.5166830000000  0.4825890000000 1.0
C      1  0.4756210000000  0.4879500000000  0.4759110000000 1.0
C      1  0.4756780000000  0.4734550000000  0.5039210000000 1.0
C      1  0.4710270000000  0.4949100000000  0.5237650000000 1.0
C      1  0.4950370000000  0.4586840000000  0.5570020000000 1.0
C      1  0.4950140000000  0.5425800000000  0.5544430000000 1.0
C      1  0.4958920000000  0.5636000000000  0.4797930000000 1.0
C      1  0.4950330000000  0.4971580000000  0.4294360000000 1.0
C      1  0.4936890000000  0.4315700000000  0.4793710000000 1.0
C      1  0.5673630000000  0.4459600000000  0.5462500000000 1.0
C      1  0.5689190000000  0.5297230000000  0.5544020000000 1.0
C      1  0.5685010000000  0.5777600000000  0.4915070000000 1.0
C      1  0.5695730000000  0.5119790000000  0.4316260000000 1.0
C      1  0.5672750000000  0.4333970000000  0.4616660000000 1.0
C      1  0.5109740000000  0.4693370000000  0.5077720000000 1.0
C      1  0.5241160000000  0.4938410000000  0.5243570000000 1.0
C      1  0.5291690000000  0.5403410000000  0.5199320000000 1.0
C      1  0.5230570000000  0.5108990000000  0.4781920000000 1.0
C      1  0.5086100000000  0.4823420000000  0.4746600000000 1.0
C      1  0.5665800000000  0.5252640000000  0.4561370000000 1.0
C      1  0.5660910000000  0.4610420000000  0.4559060000000 1.0
C      1  0.5681800000000  0.4437480000000  0.5180520000000 1.0
C      1  0.5681020000000  0.4997960000000  0.5512550000000 1.0
C      1  0.5690110000000  0.5682100000000  0.5180010000000 1.0
C      1  0.4956470000000  0.4671070000000  0.4312130000000 1.0
C      1  0.4955890000000  0.4242990000000  0.5083900000000 1.0
C      1  0.4975360000000  0.4854860000000  0.5693050000000 1.0
C      1  0.4951580000000  0.5673240000000  0.5379470000000 1.0
C      1  0.4976550000000  0.5508520000000  0.4533470000000 1.0
C      1  0.5185060000000  0.4405870000000  0.5189770000000 1.0
C      1  0.5211310000000  0.5001020000000  0.5574750000000 1.0
C      1  0.5209200000000  0.5691160000000  0.5222530000000 1.0
C      1  0.5208160000000  0.5318420000000  0.4526200000000 1.0
C      1  0.5176140000000  0.4620900000000  0.4508160000000 1.0
C      1  0.4120340000000  0.5053590000000  0.5257020000000 1.0
C      1  0.4131010000000  0.5255670000000  0.5013010000000 1.0
C      1  0.4104080000000  0.5099070000000  0.4732090000000 1.0
C      1  0.4090370000000  0.4770620000000  0.4806400000000 1.0
C      1  0.4097210000000  0.4746980000000  0.5148640000000 1.0
C      1  0.5131310000000  0.5184690000000  0.5081620000000 1.0
C      1  0.5662470000000  0.5150960000000  0.5043440000000 1.0
C      1  0.4370700000000  0.4944570000000  0.4970880000000 1.0
END
