TITL C-3578202-4305-654 -2.09228118719184e-06 125000 -869.542872556515 0 0 138 (C1) n - 1
REM
REM in /home/bkarasulu/work/CARBON/AIRSS/Generating-Clusters/EDIP-Nigel-Params/with-SteepDescent/Higher-Symm/SD-CG/HFTN-CG
REM
REM
REM
REM
REM
REM ./C.cell (12c818d87b63d06a65506943cc24bca4)
REM
REM compiler GCC version 9.2.1 20190827 (Red Hat 9.2.1-1)
REM options -cpp -mtune=generic -march=x86-64 -g -O0 -fpre-include=/usr/include/finclude/math-vector-fortran.h
REM seed -2022541798 1242823626 166858388 398208494 1404250839 1121106612 811703535 2067499263 1922074980 -1932168690 -407683406 -199647430 -2016479535 -1883673516 472453367 -194463087 1628926383 -1400604418 794403492 235770559 224545573 -824228109 -153950061 839292190 -829591196 -1282062132 -1741507138 420729962 62426633 -124191366 -299006833 1651432956 -391584340
REM
CELL 1.54180   50.00000   50.00000   50.00000   90.00000   90.00000   90.00000
LATT -1
SFAC C  
C      1  0.4757730000000  0.5812220000000  0.5160480000000 1.0
C      1  0.5290500000000  0.4447430000000  0.5428540000000 1.0
C      1  0.4603660000000  0.4325660000000  0.5444990000000 1.0
C      1  0.5253920000000  0.5778880000000  0.5239050000000 1.0
C      1  0.5221150000000  0.5186680000000  0.4089470000000 1.0
C      1  0.4908090000000  0.4934610000000  0.5913600000000 1.0
C      1  0.4361550000000  0.5334850000000  0.5587280000000 1.0
C      1  0.4154880000000  0.4602390000000  0.5451860000000 1.0
C      1  0.5764740000000  0.4569310000000  0.5461450000000 1.0
C      1  0.5581200000000  0.5390360000000  0.4810440000000 1.0
C      1  0.4409780000000  0.5488690000000  0.5341460000000 1.0
C      1  0.4559360000000  0.5743960000000  0.5365130000000 1.0
C      1  0.5388480000000  0.5763030000000  0.5511760000000 1.0
C      1  0.5201990000000  0.5495290000000  0.5151650000000 1.0
C      1  0.4143130000000  0.4830200000000  0.4414390000000 1.0
C      1  0.6015010000000  0.5401350000000  0.4914770000000 1.0
C      1  0.5684360000000  0.4481140000000  0.4809720000000 1.0
C      1  0.5472100000000  0.5069160000000  0.4189300000000 1.0
C      1  0.4678000000000  0.5401420000000  0.4082900000000 1.0
C      1  0.4515740000000  0.4061130000000  0.5350460000000 1.0
C      1  0.5215800000000  0.5947330000000  0.4733150000000 1.0
C      1  0.4735190000000  0.3923230000000  0.4565410000000 1.0
C      1  0.6014750000000  0.5174590000000  0.4716240000000 1.0
C      1  0.5801800000000  0.5606110000000  0.4837660000000 1.0
C      1  0.5119380000000  0.5107480000000  0.5987440000000 1.0
C      1  0.5582630000000  0.5539330000000  0.5537420000000 1.0
C      1  0.5019550000000  0.4973680000000  0.4065330000000 1.0
C      1  0.5434890000000  0.5070860000000  0.5203200000000 1.0
C      1  0.5580570000000  0.5531510000000  0.4293480000000 1.0
C      1  0.5767270000000  0.4886000000000  0.5813700000000 1.0
C      1  0.4308550000000  0.4361710000000  0.5484700000000 1.0
C      1  0.4222030000000  0.4665870000000  0.5173150000000 1.0
C      1  0.5140430000000  0.4470110000000  0.5888050000000 1.0
C      1  0.5591570000000  0.4932930000000  0.4721430000000 1.0
C      1  0.4187590000000  0.5105610000000  0.4504890000000 1.0
C      1  0.5379910000000  0.4816030000000  0.4326630000000 1.0
C      1  0.5249840000000  0.4887660000000  0.5637050000000 1.0
C      1  0.4986750000000  0.6099300000000  0.4836240000000 1.0
C      1  0.5045430000000  0.6187880000000  0.5098920000000 1.0
C      1  0.5079050000000  0.4597920000000  0.5255820000000 1.0
C      1  0.4702760000000  0.4002750000000  0.5140420000000 1.0
C      1  0.4653810000000  0.4547430000000  0.5871880000000 1.0
C      1  0.4913880000000  0.5798490000000  0.4358280000000 1.0
C      1  0.5190230000000  0.5312310000000  0.5794820000000 1.0
C      1  0.4979780000000  0.4470450000000  0.4696880000000 1.0
C      1  0.4485800000000  0.4853800000000  0.4000010000000 1.0
C      1  0.5326170000000  0.4909050000000  0.4606800000000 1.0
C      1  0.4072310000000  0.5033460000000  0.4987020000000 1.0
C      1  0.4720510000000  0.4305750000000  0.5717010000000 1.0
C      1  0.5336140000000  0.4601450000000  0.5691310000000 1.0
C      1  0.6001760000000  0.4679890000000  0.4710930000000 1.0
C      1  0.4764890000000  0.5553680000000  0.5771390000000 1.0
C      1  0.5152650000000  0.4175980000000  0.5478070000000 1.0
C      1  0.5111200000000  0.5259080000000  0.4753100000000 1.0
C      1  0.5586660000000  0.5084610000000  0.5935270000000 1.0
C      1  0.4836180000000  0.4414680000000  0.5235230000000 1.0
C      1  0.5864810000000  0.4998350000000  0.5570990000000 1.0
C      1  0.5611860000000  0.4619440000000  0.4339130000000 1.0
C      1  0.5394140000000  0.4158820000000  0.4318680000000 1.0
C      1  0.5933030000000  0.4810570000000  0.5369040000000 1.0
C      1  0.4964120000000  0.5134610000000  0.5250380000000 1.0
C      1  0.5685040000000  0.5483280000000  0.5253490000000 1.0
C      1  0.4660410000000  0.4830070000000  0.5441510000000 1.0
C      1  0.4732820000000  0.5085910000000  0.4048380000000 1.0
C      1  0.4926750000000  0.4566740000000  0.4386850000000 1.0
C      1  0.5719800000000  0.5183480000000  0.4631550000000 1.0
C      1  0.4519270000000  0.5846850000000  0.4675570000000 1.0
C      1  0.5108270000000  0.5391900000000  0.4279930000000 1.0
C      1  0.4233820000000  0.5447500000000  0.4871530000000 1.0
C      1  0.5021110000000  0.4862860000000  0.5407400000000 1.0
C      1  0.5198350000000  0.5843310000000  0.4454260000000 1.0
C      1  0.4666940000000  0.4706090000000  0.4953360000000 1.0
C      1  0.5348340000000  0.4946190000000  0.6007750000000 1.0
C      1  0.5203370000000  0.5778150000000  0.5719910000000 1.0
C      1  0.4067980000000  0.5175460000000  0.5240390000000 1.0
C      1  0.5604070000000  0.4900150000000  0.5030320000000 1.0
C      1  0.5439900000000  0.5880390000000  0.5025960000000 1.0
C      1  0.4659270000000  0.5766490000000  0.5625940000000 1.0
C      1  0.4498500000000  0.4517770000000  0.4563690000000 1.0
C      1  0.5554460000000  0.4458780000000  0.5284240000000 1.0
C      1  0.4237550000000  0.4832820000000  0.5627050000000 1.0
C      1  0.4224420000000  0.5096190000000  0.5482500000000 1.0
C      1  0.4241480000000  0.4780670000000  0.4142650000000 1.0
C      1  0.6069850000000  0.4916750000000  0.4866190000000 1.0
C      1  0.5205130000000  0.4621070000000  0.4977350000000 1.0
C      1  0.5701410000000  0.5747110000000  0.5075700000000 1.0
C      1  0.4055560000000  0.4570820000000  0.4841180000000 1.0
C      1  0.4785520000000  0.4898380000000  0.4762960000000 1.0
C      1  0.4677410000000  0.5195950000000  0.4850460000000 1.0
C      1  0.5730460000000  0.4686180000000  0.4612730000000 1.0
C      1  0.5890450000000  0.4968160000000  0.5112190000000 1.0
C      1  0.5117390000000  0.4728830000000  0.4208240000000 1.0
C      1  0.4689960000000  0.4762280000000  0.4483360000000 1.0
C      1  0.5109960000000  0.4867500000000  0.4809130000000 1.0
C      1  0.5564280000000  0.4357260000000  0.4272060000000 1.0
C      1  0.4925680000000  0.4048400000000  0.4382880000000 1.0
C      1  0.4911610000000  0.4648570000000  0.5979200000000 1.0
C      1  0.4947440000000  0.5270320000000  0.4504630000000 1.0
C      1  0.5648290000000  0.5259560000000  0.4339750000000 1.0
C      1  0.5138930000000  0.4126060000000  0.4989170000000 1.0
C      1  0.4209250000000  0.4607400000000  0.4599780000000 1.0
C      1  0.5052340000000  0.5560990000000  0.5805270000000 1.0
C      1  0.4805480000000  0.4307200000000  0.4274720000000 1.0
C      1  0.5478790000000  0.5291550000000  0.5702610000000 1.0
C      1  0.4511100000000  0.5403530000000  0.4322610000000 1.0
C      1  0.4527130000000  0.4797100000000  0.5722300000000 1.0
C      1  0.4546370000000  0.4964680000000  0.4295170000000 1.0
C      1  0.5012760000000  0.4236710000000  0.5742040000000 1.0
C      1  0.4687300000000  0.5149060000000  0.5359430000000 1.0
C      1  0.4720870000000  0.5952650000000  0.4894180000000 1.0
C      1  0.4479310000000  0.5158620000000  0.5100770000000 1.0
C      1  0.5518500000000  0.4599560000000  0.5027140000000 1.0
C      1  0.4256800000000  0.5288910000000  0.4310590000000 1.0
C      1  0.4688050000000  0.5402400000000  0.4567910000000 1.0
C      1  0.4642460000000  0.5038500000000  0.5869040000000 1.0
C      1  0.4522480000000  0.4291620000000  0.4369930000000 1.0
C      1  0.5003320000000  0.5950380000000  0.5252300000000 1.0
C      1  0.5919230000000  0.5281730000000  0.5172870000000 1.0
C      1  0.4484130000000  0.4043380000000  0.4516220000000 1.0
C      1  0.4617600000000  0.4120880000000  0.4868930000000 1.0
C      1  0.5458460000000  0.5346570000000  0.5108690000000 1.0
C      1  0.5326460000000  0.5456280000000  0.4691930000000 1.0
C      1  0.5319510000000  0.5563590000000  0.4419670000000 1.0
C      1  0.4485370000000  0.4815970000000  0.5156430000000 1.0
C      1  0.5643910000000  0.4616620000000  0.5736950000000 1.0
C      1  0.4967800000000  0.4142030000000  0.5217510000000 1.0
C      1  0.5175220000000  0.4248540000000  0.4742350000000 1.0
C      1  0.4117480000000  0.5207260000000  0.4763510000000 1.0
C      1  0.4922920000000  0.5577520000000  0.4138120000000 1.0
C      1  0.4769260000000  0.5694570000000  0.4606290000000 1.0
C      1  0.4305110000000  0.5685360000000  0.4747590000000 1.0
C      1  0.4182110000000  0.5441600000000  0.5158160000000 1.0
C      1  0.4621920000000  0.5293660000000  0.5718680000000 1.0
C      1  0.4968820000000  0.5339990000000  0.5022500000000 1.0
C      1  0.5200250000000  0.4076100000000  0.4501400000000 1.0
C      1  0.4683840000000  0.4433180000000  0.4818260000000 1.0
C      1  0.3925070000000  0.4791380000000  0.4959330000000 1.0
C      1  0.5490870000000  0.5041120000000  0.5502160000000 1.0
END
