TITL C-3578195-8548-110 -1.92618759901406e-06 125000 -188.234927490067 0 0 32 (C1) n - 1
REM
REM in /home/bkarasulu/work/CARBON/AIRSS/Generating-Clusters/EDIP-Nigel-Params/with-SteepDescent/Higher-Symm/SD-CG/HFTN-CG
REM
REM
REM
REM
REM
REM ./C.cell (12c818d87b63d06a65506943cc24bca4)
REM
REM compiler GCC version 9.2.1 20190827 (Red Hat 9.2.1-1)
REM options -cpp -mtune=generic -march=x86-64 -g -O0 -fpre-include=/usr/include/finclude/math-vector-fortran.h
REM seed 847877982 2012226816 765460948 -2137501333 1407968812 1850460938 1044639087 531235768 1020006586 1175643630 240508696 -1586426687 1567823278 -375028498 -977435789 -1868547813 1658747841 1445372642 -274612627 1128518419 -1651458008 -48662138 395487936 743159218 -438662302 635241782 44864119 -168336923 -1143007313 758488441 522854667 244231524 1875685806
REM
CELL 1.54180   50.00000   50.00000   50.00000   90.00000   90.00000   90.00000
LATT -1
SFAC C  
C      1  0.5584380000000  0.4974600000000  0.5025860000000 1.0
C      1  0.4915560000000  0.4612540000000  0.5412970000000 1.0
C      1  0.4523800000000  0.5176400000000  0.4574670000000 1.0
C      1  0.4887840000000  0.5259230000000  0.4786550000000 1.0
C      1  0.5135570000000  0.4482850000000  0.5008720000000 1.0
C      1  0.4607650000000  0.4625930000000  0.5027580000000 1.0
C      1  0.5314590000000  0.4556400000000  0.5222950000000 1.0
C      1  0.4730030000000  0.5277480000000  0.4424450000000 1.0
C      1  0.5237740000000  0.4914850000000  0.4753290000000 1.0
C      1  0.5073920000000  0.5084020000000  0.4949140000000 1.0
C      1  0.4451000000000  0.4976030000000  0.5046340000000 1.0
C      1  0.4693010000000  0.5146050000000  0.5443300000000 1.0
C      1  0.4745020000000  0.5484250000000  0.5153920000000 1.0
C      1  0.4843080000000  0.4890660000000  0.5435450000000 1.0
C      1  0.4903810000000  0.4663710000000  0.4601000000000 1.0
C      1  0.4803130000000  0.4481480000000  0.5176670000000 1.0
C      1  0.5516960000000  0.4741840000000  0.5167480000000 1.0
C      1  0.5415330000000  0.5444710000000  0.5017720000000 1.0
C      1  0.4505070000000  0.5194750000000  0.5221160000000 1.0
C      1  0.5109570000000  0.4971870000000  0.4488400000000 1.0
C      1  0.4893880000000  0.5349830000000  0.5363400000000 1.0
C      1  0.5181860000000  0.5575400000000  0.4971650000000 1.0
C      1  0.4653820000000  0.4714630000000  0.4749160000000 1.0
C      1  0.4909010000000  0.5527570000000  0.4915760000000 1.0
C      1  0.4546080000000  0.4983480000000  0.4774350000000 1.0
C      1  0.5002320000000  0.5238390000000  0.4500030000000 1.0
C      1  0.5350380000000  0.5158090000000  0.5387610000000 1.0
C      1  0.5526780000000  0.4968580000000  0.4751160000000 1.0
C      1  0.5509260000000  0.5223040000000  0.5165410000000 1.0
C      1  0.5185790000000  0.4550540000000  0.5472670000000 1.0
C      1  0.5088620000000  0.5130830000000  0.5257400000000 1.0
C      1  0.5155150000000  0.4619980000000  0.4753780000000 1.0
END
