TITL C-3578194-7807-660 1.64695933411398e-06 125000 -1170.88625758217 0 0 189 (C1) n - 1
REM
REM in /home/bkarasulu/work/CARBON/AIRSS/Generating-Clusters/EDIP-Nigel-Params/with-SteepDescent/Higher-Symm/SD-CG/HFTN-CG
REM
REM
REM
REM
REM
REM ./C.cell (12c818d87b63d06a65506943cc24bca4)
REM
REM compiler GCC version 9.2.1 20190827 (Red Hat 9.2.1-1)
REM options -cpp -mtune=generic -march=x86-64 -g -O0 -fpre-include=/usr/include/finclude/math-vector-fortran.h
REM seed -846324862 1198936082 -1376437683 1708075801 1802009952 1641392193 1923826686 -1799089690 1652880067 1917355148 -167690563 -492174801 1216075433 -1696248366 -1435961675 -1147698442 -683889891 36652495 313712096 1224549349 2089177798 -1922543247 -1853872259 1096661602 1536854643 -850920019 2037425988 1980271891 -1985829824 982316942 -1628678704 -1982256401 -616630669
REM
CELL 1.54180   50.00000   50.00000   50.00000   90.00000   90.00000   90.00000
LATT -1
SFAC C  
C      1  0.4411200000000  0.5996910000000  0.4891690000000 1.0
C      1  0.5990500000000  0.5556100000000  0.4838460000000 1.0
C      1  0.5560360000000  0.3990750000000  0.4882160000000 1.0
C      1  0.3994400000000  0.4468660000000  0.4870090000000 1.0
C      1  0.4413050000000  0.5977700000000  0.5187870000000 1.0
C      1  0.5994170000000  0.5566740000000  0.5152790000000 1.0
C      1  0.5567780000000  0.3994360000000  0.5181830000000 1.0
C      1  0.4019090000000  0.4469740000000  0.5166050000000 1.0
C      1  0.4119580000000  0.4678840000000  0.4423600000000 1.0
C      1  0.4664730000000  0.5892230000000  0.4440530000000 1.0
C      1  0.5904820000000  0.5299690000000  0.4420330000000 1.0
C      1  0.5307990000000  0.4124700000000  0.4454510000000 1.0
C      1  0.4119080000000  0.4711440000000  0.5584700000000 1.0
C      1  0.4675400000000  0.5905720000000  0.5614960000000 1.0
C      1  0.5902630000000  0.5316910000000  0.5572780000000 1.0
C      1  0.5306110000000  0.4102230000000  0.5609850000000 1.0
C      1  0.4160750000000  0.4215880000000  0.5196030000000 1.0
C      1  0.4176040000000  0.5813670000000  0.5220360000000 1.0
C      1  0.5764500000000  0.5771420000000  0.5145670000000 1.0
C      1  0.5807020000000  0.4164270000000  0.5205590000000 1.0
C      1  0.4152160000000  0.4226360000000  0.4822470000000 1.0
C      1  0.4162740000000  0.5866390000000  0.4839290000000 1.0
C      1  0.5770840000000  0.5763880000000  0.4830600000000 1.0
C      1  0.5798500000000  0.4156920000000  0.4841180000000 1.0
C      1  0.4660280000000  0.4866920000000  0.4417790000000 1.0
C      1  0.4777720000000  0.5319830000000  0.4438860000000 1.0
C      1  0.5134560000000  0.5173380000000  0.4366330000000 1.0
C      1  0.5233390000000  0.4763780000000  0.4324670000000 1.0
C      1  0.4888340000000  0.4806330000000  0.5572010000000 1.0
C      1  0.4844330000000  0.5149160000000  0.5560090000000 1.0
C      1  0.5142750000000  0.5252200000000  0.5553300000000 1.0
C      1  0.5201940000000  0.4730490000000  0.5571540000000 1.0
C      1  0.4911990000000  0.5512710000000  0.3976830000000 1.0
C      1  0.5530140000000  0.5112270000000  0.4000560000000 1.0
C      1  0.5088000000000  0.4491640000000  0.4039330000000 1.0
C      1  0.4495940000000  0.4947890000000  0.3977730000000 1.0
C      1  0.4900930000000  0.5518910000000  0.5991630000000 1.0
C      1  0.5500290000000  0.5079500000000  0.5960080000000 1.0
C      1  0.5088940000000  0.4472860000000  0.5988250000000 1.0
C      1  0.4481110000000  0.4907560000000  0.5973270000000 1.0
C      1  0.4934910000000  0.5882270000000  0.4336080000000 1.0
C      1  0.5938780000000  0.5037250000000  0.4295630000000 1.0
C      1  0.5043550000000  0.4196780000000  0.4366100000000 1.0
C      1  0.4141370000000  0.4944620000000  0.4316590000000 1.0
C      1  0.4958000000000  0.5952330000000  0.5735030000000 1.0
C      1  0.5918660000000  0.5041020000000  0.5682320000000 1.0
C      1  0.5027250000000  0.4048180000000  0.5732470000000 1.0
C      1  0.4065090000000  0.4992660000000  0.5704720000000 1.0
C      1  0.5410640000000  0.4702530000000  0.4782980000000 1.0
C      1  0.4778200000000  0.4637320000000  0.4775380000000 1.0
C      1  0.4560540000000  0.5333690000000  0.4710050000000 1.0
C      1  0.5086630000000  0.5605420000000  0.4712100000000 1.0
C      1  0.5579090000000  0.4865960000000  0.5245060000000 1.0
C      1  0.4875950000000  0.4474570000000  0.5203580000000 1.0
C      1  0.4512510000000  0.5096190000000  0.5155900000000 1.0
C      1  0.5083150000000  0.5489270000000  0.5155390000000 1.0
C      1  0.5555720000000  0.5370020000000  0.5957000000000 1.0
C      1  0.5386950000000  0.4416110000000  0.6016620000000 1.0
C      1  0.4427370000000  0.4612760000000  0.5990640000000 1.0
C      1  0.4602460000000  0.5572640000000  0.6008840000000 1.0
C      1  0.5572230000000  0.5401740000000  0.4012520000000 1.0
C      1  0.5364710000000  0.4355010000000  0.4013060000000 1.0
C      1  0.4425230000000  0.4631200000000  0.3996550000000 1.0
C      1  0.4630380000000  0.5599520000000  0.3995440000000 1.0
C      1  0.6208570000000  0.4650410000000  0.5155210000000 1.0
C      1  0.4663610000000  0.3817350000000  0.5138760000000 1.0
C      1  0.3786590000000  0.5321530000000  0.5101000000000 1.0
C      1  0.5349380000000  0.6101630000000  0.5132410000000 1.0
C      1  0.6148150000000  0.4628430000000  0.4870870000000 1.0
C      1  0.4644450000000  0.3884820000000  0.4860480000000 1.0
C      1  0.3885790000000  0.5347750000000  0.4841850000000 1.0
C      1  0.5338630000000  0.6152480000000  0.4853310000000 1.0
C      1  0.4715690000000  0.4575330000000  0.4333880000000 1.0
C      1  0.4487910000000  0.5296080000000  0.4280260000000 1.0
C      1  0.5241870000000  0.5472820000000  0.4303930000000 1.0
C      1  0.5543710000000  0.4692020000000  0.4236640000000 1.0
C      1  0.4746400000000  0.4508280000000  0.5692740000000 1.0
C      1  0.4530000000000  0.5257940000000  0.5695540000000 1.0
C      1  0.5229960000000  0.5515410000000  0.5675630000000 1.0
C      1  0.5492030000000  0.4715420000000  0.5702790000000 1.0
C      1  0.5322750000000  0.4137170000000  0.5295120000000 1.0
C      1  0.4187670000000  0.4694370000000  0.5273060000000 1.0
C      1  0.4661000000000  0.5848680000000  0.5301680000000 1.0
C      1  0.5880500000000  0.5312730000000  0.5267530000000 1.0
C      1  0.5330760000000  0.4148880000000  0.4760260000000 1.0
C      1  0.4161310000000  0.4678450000000  0.4729540000000 1.0
C      1  0.4652110000000  0.5860970000000  0.4759640000000 1.0
C      1  0.5875030000000  0.5296570000000  0.4728670000000 1.0
C      1  0.5293700000000  0.5520450000000  0.4010180000000 1.0
C      1  0.5535330000000  0.4573190000000  0.3964480000000 1.0
C      1  0.4702310000000  0.4549820000000  0.4034270000000 1.0
C      1  0.4495530000000  0.5338150000000  0.3980520000000 1.0
C      1  0.5292530000000  0.5486810000000  0.5966200000000 1.0
C      1  0.5486220000000  0.4691400000000  0.6002030000000 1.0
C      1  0.4698130000000  0.4508300000000  0.5987160000000 1.0
C      1  0.4516600000000  0.5297770000000  0.5992200000000 1.0
C      1  0.4094830000000  0.4944530000000  0.5135980000000 1.0
C      1  0.4891560000000  0.5982650000000  0.5163850000000 1.0
C      1  0.6029620000000  0.5088850000000  0.5144540000000 1.0
C      1  0.5097840000000  0.3993240000000  0.5164300000000 1.0
C      1  0.4127940000000  0.4952140000000  0.4841190000000 1.0
C      1  0.4882140000000  0.6002170000000  0.4879290000000 1.0
C      1  0.6038550000000  0.5086790000000  0.4859730000000 1.0
C      1  0.5056210000000  0.4066020000000  0.4882700000000 1.0
C      1  0.5731680000000  0.4416820000000  0.5329990000000 1.0
C      1  0.4415200000000  0.4226870000000  0.5350520000000 1.0
C      1  0.4221890000000  0.5552350000000  0.5349660000000 1.0
C      1  0.5527070000000  0.5611380000000  0.5244800000000 1.0
C      1  0.5732120000000  0.4409570000000  0.4709910000000 1.0
C      1  0.4425390000000  0.4319310000000  0.4731290000000 1.0
C      1  0.4244720000000  0.5636610000000  0.4688970000000 1.0
C      1  0.5530240000000  0.5648460000000  0.4721840000000 1.0
C      1  0.4286800000000  0.5592650000000  0.4399580000000 1.0
C      1  0.5492830000000  0.5570590000000  0.4445430000000 1.0
C      1  0.5674310000000  0.4452860000000  0.4416600000000 1.0
C      1  0.4492710000000  0.4363950000000  0.4430830000000 1.0
C      1  0.4413030000000  0.5512910000000  0.5576020000000 1.0
C      1  0.5489590000000  0.5623650000000  0.5542580000000 1.0
C      1  0.5642950000000  0.4464540000000  0.5610450000000 1.0
C      1  0.4481270000000  0.4421000000000  0.5563030000000 1.0
C      1  0.4745300000000  0.4929280000000  0.4705950000000 1.0
C      1  0.5002650000000  0.5119130000000  0.4843140000000 1.0
C      1  0.5244840000000  0.5103190000000  0.4654860000000 1.0
C      1  0.5233150000000  0.4821430000000  0.4609620000000 1.0
C      1  0.4816260000000  0.4795910000000  0.5267700000000 1.0
C      1  0.4745100000000  0.5231860000000  0.5277750000000 1.0
C      1  0.5210400000000  0.5241380000000  0.5264770000000 1.0
C      1  0.5298230000000  0.4729940000000  0.5286400000000 1.0
C      1  0.6170860000000  0.4893320000000  0.5294750000000 1.0
C      1  0.4879180000000  0.3878430000000  0.5303300000000 1.0
C      1  0.3915650000000  0.5133130000000  0.5259780000000 1.0
C      1  0.5117700000000  0.6095620000000  0.5293580000000 1.0
C      1  0.6178920000000  0.4879040000000  0.4715520000000 1.0
C      1  0.4897970000000  0.3870960000000  0.4709820000000 1.0
C      1  0.3906010000000  0.5096400000000  0.4697630000000 1.0
C      1  0.5086460000000  0.6137630000000  0.4723100000000 1.0
C      1  0.5500810000000  0.4250530000000  0.4272800000000 1.0
C      1  0.4285330000000  0.4497310000000  0.4254120000000 1.0
C      1  0.4497960000000  0.5736910000000  0.4255270000000 1.0
C      1  0.5707920000000  0.5476410000000  0.4278760000000 1.0
C      1  0.5501750000000  0.4264840000000  0.5775680000000 1.0
C      1  0.4279260000000  0.4513430000000  0.5745630000000 1.0
C      1  0.4489680000000  0.5719960000000  0.5765610000000 1.0
C      1  0.5687040000000  0.5476450000000  0.5707510000000 1.0
C      1  0.6097980000000  0.4865170000000  0.4448510000000 1.0
C      1  0.4874890000000  0.3992500000000  0.4457970000000 1.0
C      1  0.3961020000000  0.5125430000000  0.4427130000000 1.0
C      1  0.5084550000000  0.6089490000000  0.4448910000000 1.0
C      1  0.6126350000000  0.4893710000000  0.5568190000000 1.0
C      1  0.4865420000000  0.3886920000000  0.5578210000000 1.0
C      1  0.3917480000000  0.5152580000000  0.5534790000000 1.0
C      1  0.5132410000000  0.6084890000000  0.5568180000000 1.0
C      1  0.4625040000000  0.5517720000000  0.5188010000000 1.0
C      1  0.5556280000000  0.5297910000000  0.5160630000000 1.0
C      1  0.5314360000000  0.4438260000000  0.5188630000000 1.0
C      1  0.4502330000000  0.4612810000000  0.5165530000000 1.0
C      1  0.4682170000000  0.5543020000000  0.4886990000000 1.0
C      1  0.5566590000000  0.5223810000000  0.4839260000000 1.0
C      1  0.5287940000000  0.4448060000000  0.4895670000000 1.0
C      1  0.4487470000000  0.4597580000000  0.4853550000000 1.0
C      1  0.4627330000000  0.4174220000000  0.4880800000000 1.0
C      1  0.4191350000000  0.5385110000000  0.4842250000000 1.0
C      1  0.5296900000000  0.5772290000000  0.4832320000000 1.0
C      1  0.5842760000000  0.4641230000000  0.4862420000000 1.0
C      1  0.4657990000000  0.4230310000000  0.5175110000000 1.0
C      1  0.4288800000000  0.5337870000000  0.5140030000000 1.0
C      1  0.5273130000000  0.5721800000000  0.5131080000000 1.0
C      1  0.5819920000000  0.4657320000000  0.5186490000000 1.0
C      1  0.4992800000000  0.5592360000000  0.4433400000000 1.0
C      1  0.5678650000000  0.4953330000000  0.4194600000000 1.0
C      1  0.5000470000000  0.4499930000000  0.4418260000000 1.0
C      1  0.4434780000000  0.5005110000000  0.4271410000000 1.0
C      1  0.4961260000000  0.5653880000000  0.5721750000000 1.0
C      1  0.5635570000000  0.4969020000000  0.5612400000000 1.0
C      1  0.5020360000000  0.4352590000000  0.5710130000000 1.0
C      1  0.4368240000000  0.4994290000000  0.5700230000000 1.0
C      1  0.4783000000000  0.4944640000000  0.5979210000000 1.0
C      1  0.4949510000000  0.5208530000000  0.5986970000000 1.0
C      1  0.5211410000000  0.5038590000000  0.6013570000000 1.0
C      1  0.5048060000000  0.4779130000000  0.5985810000000 1.0
C      1  0.4800670000000  0.4969610000000  0.3928640000000 1.0
C      1  0.4967080000000  0.5224860000000  0.3958350000000 1.0
C      1  0.5228570000000  0.5055370000000  0.4005550000000 1.0
C      1  0.5060850000000  0.4789220000000  0.3936340000000 1.0
C      1  0.4497840000000  0.5064350000000  0.4848100000000 1.0
C      1  0.5573920000000  0.4913320000000  0.4931920000000 1.0
C      1  0.4968300000000  0.4446380000000  0.4915470000000 1.0
C      1  0.4959910000000  0.5432500000000  0.4897870000000 1.0
C      1  0.5076310000000  0.4979110000000  0.5127380000000 1.0
END
