TITL C-3578203-1966-112 -4.73461118544846e-07 125000 -503.31230850335 0 0 82 (C1) n - 1
REM
REM in /home/bkarasulu/work/CARBON/AIRSS/Generating-Clusters/EDIP-Nigel-Params/with-SteepDescent/Higher-Symm/SD-CG/HFTN-CG
REM
REM
REM
REM
REM
REM ./C.cell (12c818d87b63d06a65506943cc24bca4)
REM
REM compiler GCC version 9.2.1 20190827 (Red Hat 9.2.1-1)
REM options -cpp -mtune=generic -march=x86-64 -g -O0 -fpre-include=/usr/include/finclude/math-vector-fortran.h
REM seed -1318434949 -818951873 -5510176 1071682636 -140324258 595159914 438404187 -204336580 402702587 -1314021856 2106117918 -2009751442 910815739 -312701190 -1184770399 -1333268388 -223264287 -529954264 314339862 1130627477 1766213349 -2123753607 731303135 -1664162652 -630135872 2089869581 -1801292497 211684782 1813022387 -1211452005 1457722376 -584442258 -194799487
REM
CELL 1.54180   50.00000   50.00000   50.00000   90.00000   90.00000   90.00000
LATT -1
SFAC C  
C      1  0.5691980000000  0.4737170000000  0.5106270000000 1.0
C      1  0.5170280000000  0.5749430000000  0.4790420000000 1.0
C      1  0.4692270000000  0.5174330000000  0.5737410000000 1.0
C      1  0.4284500000000  0.5237850000000  0.5093150000000 1.0
C      1  0.4252510000000  0.4694090000000  0.4873810000000 1.0
C      1  0.5718310000000  0.5222290000000  0.4805180000000 1.0
C      1  0.4890410000000  0.4336630000000  0.4758610000000 1.0
C      1  0.4866410000000  0.5732150000000  0.5274410000000 1.0
C      1  0.5122760000000  0.4274010000000  0.5277060000000 1.0
C      1  0.5211790000000  0.4896080000000  0.5728670000000 1.0
C      1  0.5184720000000  0.5177120000000  0.4294520000000 1.0
C      1  0.4704020000000  0.4892940000000  0.4355750000000 1.0
C      1  0.5751280000000  0.4734600000000  0.4823530000000 1.0
C      1  0.5155140000000  0.5739250000000  0.5279760000000 1.0
C      1  0.4715600000000  0.5165590000000  0.4271420000000 1.0
C      1  0.4294940000000  0.5191040000000  0.4805030000000 1.0
C      1  0.4276060000000  0.4738950000000  0.5156510000000 1.0
C      1  0.5656650000000  0.5235600000000  0.5087340000000 1.0
C      1  0.4839960000000  0.4310380000000  0.5264360000000 1.0
C      1  0.4886900000000  0.5692470000000  0.4768360000000 1.0
C      1  0.5174970000000  0.4311410000000  0.4786390000000 1.0
C      1  0.5215940000000  0.4889590000000  0.4338940000000 1.0
C      1  0.5200780000000  0.5192390000000  0.5739200000000 1.0
C      1  0.4702100000000  0.4890010000000  0.5755890000000 1.0
C      1  0.4802140000000  0.5618710000000  0.4498900000000 1.0
C      1  0.4470240000000  0.4818480000000  0.5593630000000 1.0
C      1  0.5742190000000  0.4496720000000  0.4676710000000 1.0
C      1  0.5284870000000  0.4435650000000  0.4555320000000 1.0
C      1  0.5300320000000  0.5709430000000  0.5518060000000 1.0
C      1  0.4795010000000  0.4458740000000  0.5513920000000 1.0
C      1  0.5415860000000  0.5241510000000  0.5544320000000 1.0
C      1  0.5492020000000  0.4804400000000  0.4374590000000 1.0
C      1  0.4485300000000  0.5325040000000  0.4264620000000 1.0
C      1  0.4428340000000  0.5433480000000  0.4719810000000 1.0
C      1  0.4446450000000  0.4516490000000  0.5232300000000 1.0
C      1  0.5605170000000  0.5496070000000  0.5195740000000 1.0
C      1  0.4758050000000  0.5590150000000  0.5499900000000 1.0
C      1  0.4445350000000  0.4791470000000  0.4452740000000 1.0
C      1  0.5567660000000  0.4501880000000  0.5215310000000 1.0
C      1  0.5213540000000  0.4394780000000  0.5514600000000 1.0
C      1  0.5328360000000  0.5722340000000  0.4564110000000 1.0
C      1  0.4803890000000  0.4490020000000  0.4520470000000 1.0
C      1  0.5404920000000  0.5344970000000  0.4301930000000 1.0
C      1  0.5446820000000  0.4826540000000  0.5554400000000 1.0
C      1  0.4454400000000  0.5230060000000  0.5575140000000 1.0
C      1  0.4434590000000  0.5484620000000  0.5157960000000 1.0
C      1  0.4395190000000  0.4454330000000  0.4796020000000 1.0
C      1  0.5696080000000  0.5449420000000  0.4647880000000 1.0
C      1  0.4936620000000  0.5280510000000  0.4424850000000 1.0
C      1  0.4954180000000  0.4763700000000  0.5676850000000 1.0
C      1  0.4321710000000  0.4913360000000  0.4698560000000 1.0
C      1  0.4704640000000  0.4344810000000  0.4992730000000 1.0
C      1  0.4952340000000  0.4727870000000  0.4367220000000 1.0
C      1  0.5688890000000  0.4967250000000  0.4664940000000 1.0
C      1  0.5621100000000  0.4988760000000  0.5247960000000 1.0
C      1  0.4303710000000  0.5008660000000  0.5293570000000 1.0
C      1  0.5297350000000  0.5667630000000  0.5041810000000 1.0
C      1  0.5297180000000  0.4298120000000  0.5048100000000 1.0
C      1  0.4721920000000  0.5674360000000  0.5019620000000 1.0
C      1  0.4940460000000  0.5311480000000  0.5681200000000 1.0
C      1  0.5264710000000  0.4814400000000  0.5167480000000 1.0
C      1  0.5200360000000  0.5201490000000  0.4863330000000 1.0
C      1  0.4823440000000  0.5303950000000  0.5191060000000 1.0
C      1  0.4718780000000  0.5256510000000  0.4902840000000 1.0
C      1  0.4762440000000  0.4740800000000  0.5181670000000 1.0
C      1  0.5164590000000  0.4749160000000  0.4751060000000 1.0
C      1  0.4848470000000  0.4850210000000  0.4770090000000 1.0
C      1  0.5154050000000  0.5059490000000  0.5322900000000 1.0
C      1  0.5446190000000  0.4549100000000  0.5470640000000 1.0
C      1  0.5512930000000  0.5542740000000  0.4462340000000 1.0
C      1  0.4500700000000  0.5480950000000  0.5438700000000 1.0
C      1  0.4528690000000  0.5516320000000  0.4467540000000 1.0
C      1  0.4523970000000  0.4549470000000  0.5503650000000 1.0
C      1  0.5537460000000  0.4541270000000  0.4486110000000 1.0
C      1  0.4507620000000  0.4512040000000  0.4530320000000 1.0
C      1  0.5487840000000  0.5506080000000  0.5459300000000 1.0
C      1  0.4833670000000  0.5006640000000  0.5354950000000 1.0
C      1  0.5372870000000  0.4956050000000  0.4890590000000 1.0
C      1  0.5143670000000  0.5321630000000  0.5129140000000 1.0
C      1  0.4943050000000  0.5156140000000  0.4719930000000 1.0
C      1  0.4624240000000  0.4971380000000  0.5008640000000 1.0
C      1  0.5031120000000  0.4639320000000  0.5045570000000 1.0
END
