TITL C-3577082-504-277 2.15786750321995e-07 125000 -215.764365473424 0 0 36 (C1) n - 1
REM
REM in /home/bkarasulu/work/CARBON/AIRSS/Generating-Clusters/EDIP-Nigel-Params/with-SteepDescent/Higher-Symm/SD-CG/HFTN-CG
REM
REM
REM
REM
REM
REM ./C.cell (12c818d87b63d06a65506943cc24bca4)
REM
REM compiler GCC version 9.2.1 20190827 (Red Hat 9.2.1-1)
REM options -cpp -mtune=generic -march=x86-64 -g -O0 -fpre-include=/usr/include/finclude/math-vector-fortran.h
REM seed 1362653494 -220648027 -250814916 -2059762367 -1568660884 -1307220240 -1442100424 -240103363 1840469517 1534397713 71148397 -772577098 1577566895 1689981453 -1300596849 -229289548 -1497461594 1969893015 -676665690 -276580027 -734329065 390643502 -1810129395 1698581949 405911705 1329115661 -983807964 1898522462 11735768 1278056406 -400545553 2017072887 -806942734
REM
CELL 1.54180   50.00000   50.00000   50.00000   90.00000   90.00000   90.00000
LATT -1
SFAC C  
C      1  0.4914320000000  0.4765870000000  0.5453010000000 1.0
C      1  0.5061050000000  0.5016970000000  0.5520130000000 1.0
C      1  0.4962710000000  0.5278530000000  0.5399730000000 1.0
C      1  0.4907380000000  0.5577520000000  0.5153000000000 1.0
C      1  0.5005010000000  0.5558490000000  0.4870070000000 1.0
C      1  0.4883970000000  0.5356980000000  0.4679480000000 1.0
C      1  0.5032720000000  0.5157110000000  0.4513430000000 1.0
C      1  0.4891070000000  0.4820920000000  0.4532860000000 1.0
C      1  0.5041830000000  0.4628740000000  0.4706870000000 1.0
C      1  0.4921890000000  0.4501880000000  0.4953590000000 1.0
C      1  0.5060170000000  0.4512920000000  0.5214820000000 1.0
C      1  0.5322670000000  0.5153030000000  0.4549910000000 1.0
C      1  0.5423090000000  0.4891900000000  0.4582190000000 1.0
C      1  0.5333070000000  0.4658220000000  0.4710020000000 1.0
C      1  0.5446640000000  0.4577390000000  0.4953930000000 1.0
C      1  0.5347010000000  0.4545210000000  0.5214800000000 1.0
C      1  0.5430460000000  0.4729240000000  0.5410950000000 1.0
C      1  0.5358720000000  0.4995180000000  0.5484850000000 1.0
C      1  0.5431590000000  0.5186090000000  0.5261700000000 1.0
C      1  0.5270490000000  0.5439870000000  0.5227890000000 1.0
C      1  0.5287030000000  0.5521510000000  0.4930650000000 1.0
C      1  0.5402790000000  0.5344900000000  0.4740680000000 1.0
C      1  0.4512150000000  0.4631780000000  0.4751010000000 1.0
C      1  0.4629750000000  0.4505790000000  0.4972160000000 1.0
C      1  0.4539940000000  0.4565810000000  0.5233850000000 1.0
C      1  0.4625400000000  0.4783620000000  0.5395660000000 1.0
C      1  0.4578480000000  0.5032660000000  0.5236780000000 1.0
C      1  0.4658050000000  0.5287570000000  0.5371450000000 1.0
C      1  0.4614060000000  0.5514820000000  0.5180350000000 1.0
C      1  0.4494070000000  0.5438390000000  0.4934430000000 1.0
C      1  0.4594040000000  0.5331610000000  0.4694590000000 1.0
C      1  0.4498020000000  0.5087240000000  0.4595700000000 1.0
C      1  0.4600610000000  0.4826630000000  0.4569490000000 1.0
C      1  0.5322350000000  0.5041520000000  0.5043970000000 1.0
C      1  0.4770200000000  0.5006740000000  0.5028150000000 1.0
C      1  0.5044360000000  0.5036230000000  0.5033460000000 1.0
END
