TITL C-3578203-1966-421 3.43374777166564e-07 125000 -629.869561898187 0 0 103 (C1) n - 1
REM
REM in /home/bkarasulu/work/CARBON/AIRSS/Generating-Clusters/EDIP-Nigel-Params/with-SteepDescent/Higher-Symm/SD-CG/HFTN-CG
REM
REM
REM
REM
REM
REM ./C.cell (12c818d87b63d06a65506943cc24bca4)
REM
REM compiler GCC version 9.2.1 20190827 (Red Hat 9.2.1-1)
REM options -cpp -mtune=generic -march=x86-64 -g -O0 -fpre-include=/usr/include/finclude/math-vector-fortran.h
REM seed -1933553446 -1892018486 -735213150 -1113744401 -197912106 1315867511 -445530352 -1013007754 1140102718 866766657 1093835263 1218912732 -775327166 -1085323505 -2053348419 1399348100 -418703902 -1729962472 955701700 -435004459 -27664367 -2015912117 -139028560 -1069743616 -2073488916 -1717100346 245957395 396379513 1422461082 -1403566993 151620861 1646314488 1174328704
REM
CELL 1.54180   50.00000   50.00000   50.00000   90.00000   90.00000   90.00000
LATT -1
SFAC C  
C      1  0.5267650000000  0.5452590000000  0.4732830000000 1.0
C      1  0.5267730000000  0.4988330000000  0.5506860000000 1.0
C      1  0.5319350000000  0.4570990000000  0.4684870000000 1.0
C      1  0.4747910000000  0.5496000000000  0.4714200000000 1.0
C      1  0.4769060000000  0.5036880000000  0.5590760000000 1.0
C      1  0.4739010000000  0.4538780000000  0.4735930000000 1.0
C      1  0.4201400000000  0.4778130000000  0.5357210000000 1.0
C      1  0.4278640000000  0.4788540000000  0.4753040000000 1.0
C      1  0.4297120000000  0.5342200000000  0.4975260000000 1.0
C      1  0.5792570000000  0.4794820000000  0.5379620000000 1.0
C      1  0.5787420000000  0.4782790000000  0.4740290000000 1.0
C      1  0.5789180000000  0.5400160000000  0.5012840000000 1.0
C      1  0.4697200000000  0.5386570000000  0.5852310000000 1.0
C      1  0.4762660000000  0.4133260000000  0.4906140000000 1.0
C      1  0.4724940000000  0.5517260000000  0.4274380000000 1.0
C      1  0.5271970000000  0.5348740000000  0.5770060000000 1.0
C      1  0.5332350000000  0.4140730000000  0.4934480000000 1.0
C      1  0.5314390000000  0.5469870000000  0.4254870000000 1.0
C      1  0.5337750000000  0.5149350000000  0.5273880000000 1.0
C      1  0.5328390000000  0.4672260000000  0.4966590000000 1.0
C      1  0.5299260000000  0.5161430000000  0.4694680000000 1.0
C      1  0.4727470000000  0.5296150000000  0.5419180000000 1.0
C      1  0.4567130000000  0.4643360000000  0.4967990000000 1.0
C      1  0.4583410000000  0.5240680000000  0.4727070000000 1.0
C      1  0.4890100000000  0.4146890000000  0.5166130000000 1.0
C      1  0.4847900000000  0.5276220000000  0.4170990000000 1.0
C      1  0.4840860000000  0.5527250000000  0.5598330000000 1.0
C      1  0.5174210000000  0.4244050000000  0.5180910000000 1.0
C      1  0.5144450000000  0.5207610000000  0.4213670000000 1.0
C      1  0.5152750000000  0.5521070000000  0.5550220000000 1.0
C      1  0.5133910000000  0.4717240000000  0.5434540000000 1.0
C      1  0.5126270000000  0.4742910000000  0.4482120000000 1.0
C      1  0.5157720000000  0.5547650000000  0.5009940000000 1.0
C      1  0.4828580000000  0.4771500000000  0.5445230000000 1.0
C      1  0.4825450000000  0.4763400000000  0.4567170000000 1.0
C      1  0.4850780000000  0.5535060000000  0.4985780000000 1.0
C      1  0.5819340000000  0.5299780000000  0.5284950000000 1.0
C      1  0.5830700000000  0.4603350000000  0.5169690000000 1.0
C      1  0.5821210000000  0.5055730000000  0.4643780000000 1.0
C      1  0.4222230000000  0.5279930000000  0.5262570000000 1.0
C      1  0.4179400000000  0.4585440000000  0.5135170000000 1.0
C      1  0.4203060000000  0.5071720000000  0.4638310000000 1.0
C      1  0.4104730000000  0.5033700000000  0.5313860000000 1.0
C      1  0.4056370000000  0.4673720000000  0.4896130000000 1.0
C      1  0.4078580000000  0.5257440000000  0.4809780000000 1.0
C      1  0.5916420000000  0.5042880000000  0.5338430000000 1.0
C      1  0.5966490000000  0.4686280000000  0.4936820000000 1.0
C      1  0.5920610000000  0.5248660000000  0.4818740000000 1.0
C      1  0.5149950000000  0.5889880000000  0.5301540000000 1.0
C      1  0.5144700000000  0.4301760000000  0.5621610000000 1.0
C      1  0.5051990000000  0.4805120000000  0.4045270000000 1.0
C      1  0.4846550000000  0.5867040000000  0.5308940000000 1.0
C      1  0.4844480000000  0.4296020000000  0.5580810000000 1.0
C      1  0.4761230000000  0.4852100000000  0.4077100000000 1.0
C      1  0.5599750000000  0.5631480000000  0.4635840000000 1.0
C      1  0.5562660000000  0.4973250000000  0.5765310000000 1.0
C      1  0.5704610000000  0.4314440000000  0.4680860000000 1.0
C      1  0.4411440000000  0.5669800000000  0.4627580000000 1.0
C      1  0.4427740000000  0.4977350000000  0.5756310000000 1.0
C      1  0.4426890000000  0.4339510000000  0.4617920000000 1.0
C      1  0.5298070000000  0.5803020000000  0.5057420000000 1.0
C      1  0.5261470000000  0.4564350000000  0.5651560000000 1.0
C      1  0.5150540000000  0.4615270000000  0.4223270000000 1.0
C      1  0.4700960000000  0.5765140000000  0.5079510000000 1.0
C      1  0.4690750000000  0.4548020000000  0.5581450000000 1.0
C      1  0.4643340000000  0.4752970000000  0.4331800000000 1.0
C      1  0.4929710000000  0.4219600000000  0.4679690000000 1.0
C      1  0.4904600000000  0.5688190000000  0.4424860000000 1.0
C      1  0.4853990000000  0.5158430000000  0.5943300000000 1.0
C      1  0.5217180000000  0.4271820000000  0.4694330000000 1.0
C      1  0.5183720000000  0.5623760000000  0.4475630000000 1.0
C      1  0.5112180000000  0.5119340000000  0.5832020000000 1.0
C      1  0.4366040000000  0.4608010000000  0.4529850000000 1.0
C      1  0.4392370000000  0.5623890000000  0.4914240000000 1.0
C      1  0.4372370000000  0.4745680000000  0.5589080000000 1.0
C      1  0.5618630000000  0.4575130000000  0.4604110000000 1.0
C      1  0.5608970000000  0.5620090000000  0.4927400000000 1.0
C      1  0.5596060000000  0.4744680000000  0.5594400000000 1.0
C      1  0.5579950000000  0.5436510000000  0.4407810000000 1.0
C      1  0.5546420000000  0.5262460000000  0.5716630000000 1.0
C      1  0.5614810000000  0.4228230000000  0.4936740000000 1.0
C      1  0.4445840000000  0.5487890000000  0.4392090000000 1.0
C      1  0.4430040000000  0.5275720000000  0.5744950000000 1.0
C      1  0.4474140000000  0.4219770000000  0.4885350000000 1.0
C      1  0.5259570000000  0.5794970000000  0.5547410000000 1.0
C      1  0.5286620000000  0.4142120000000  0.5433390000000 1.0
C      1  0.5213850000000  0.5035210000000  0.3986020000000 1.0
C      1  0.4731450000000  0.5793010000000  0.5553530000000 1.0
C      1  0.4751890000000  0.4092900000000  0.5405210000000 1.0
C      1  0.4689660000000  0.5114630000000  0.4003160000000 1.0
C      1  0.5203700000000  0.5396780000000  0.5271100000000 1.0
C      1  0.5177730000000  0.4554740000000  0.5178330000000 1.0
C      1  0.5193120000000  0.5034560000000  0.4461500000000 1.0
C      1  0.4772620000000  0.5286670000000  0.5128490000000 1.0
C      1  0.4726390000000  0.4807130000000  0.5162030000000 1.0
C      1  0.4771130000000  0.5011520000000  0.4738800000000 1.0
C      1  0.5598610000000  0.4447500000000  0.5120300000000 1.0
C      1  0.5615730000000  0.5155380000000  0.4476840000000 1.0
C      1  0.5603940000000  0.5365900000000  0.5452540000000 1.0
C      1  0.4367490000000  0.4359560000000  0.5124950000000 1.0
C      1  0.4362710000000  0.5199250000000  0.4422120000000 1.0
C      1  0.4366290000000  0.5396700000000  0.5480820000000 1.0
C      1  0.4834270000000  0.5026810000000  0.5018520000000 1.0
END
