TITL C-3577077-324-213 -2.07825370755592e-06 125000 -443.131345724149 0 0 72 (C1) n - 1
REM
REM in /home/bkarasulu/work/CARBON/AIRSS/Generating-Clusters/EDIP-Nigel-Params/with-SteepDescent/Higher-Symm/SD-CG/HFTN-CG
REM
REM
REM
REM
REM
REM ./C.cell (12c818d87b63d06a65506943cc24bca4)
REM
REM compiler GCC version 9.2.1 20190827 (Red Hat 9.2.1-1)
REM options -cpp -mtune=generic -march=x86-64 -g -O0 -fpre-include=/usr/include/finclude/math-vector-fortran.h
REM seed -408951894 1146665997 -1430499900 -1263563015 -385852202 2128839387 301717798 -2041668894 -923950600 -2104807464 -897343162 -194892951 -53606955 2025049597 1824259740 1680393106 1912619867 980471790 1275836889 1063975136 1805564298 173655099 -1993464567 132256140 -1115420264 1496354546 1967137089 -1593923298 -825048068 1515208852 -2051686750 -1711281682 -719623671
REM
CELL 1.54180   50.00000   50.00000   50.00000   90.00000   90.00000   90.00000
LATT -1
SFAC C  
C      1  0.4600910000000  0.4893520000000  0.5579430000000 1.0
C      1  0.4780470000000  0.4657740000000  0.5497450000000 1.0
C      1  0.5008970000000  0.4535660000000  0.5619890000000 1.0
C      1  0.5341700000000  0.4711010000000  0.5580620000000 1.0
C      1  0.5521400000000  0.4936110000000  0.5587100000000 1.0
C      1  0.5408450000000  0.5199350000000  0.5583450000000 1.0
C      1  0.5118510000000  0.5447620000000  0.5615020000000 1.0
C      1  0.4844460000000  0.5389420000000  0.5546020000000 1.0
C      1  0.4650750000000  0.5158150000000  0.5474360000000 1.0
C      1  0.5144670000000  0.4332210000000  0.5457950000000 1.0
C      1  0.5405810000000  0.4471920000000  0.5427790000000 1.0
C      1  0.5742770000000  0.4909160000000  0.5421210000000 1.0
C      1  0.5516950000000  0.5414070000000  0.5421210000000 1.0
C      1  0.5291650000000  0.5607860000000  0.5447690000000 1.0
C      1  0.4651250000000  0.5592150000000  0.5408510000000 1.0
C      1  0.4436070000000  0.5353700000000  0.5385440000000 1.0
C      1  0.4354710000000  0.4753450000000  0.5442990000000 1.0
C      1  0.4546580000000  0.4498750000000  0.5396140000000 1.0
C      1  0.5202010000000  0.5651640000000  0.5156280000000 1.0
C      1  0.4684470000000  0.5665050000000  0.5114510000000 1.0
C      1  0.4342870000000  0.5343960000000  0.5101390000000 1.0
C      1  0.4310780000000  0.4830030000000  0.5145320000000 1.0
C      1  0.4552610000000  0.4431860000000  0.5104260000000 1.0
C      1  0.5051430000000  0.4299720000000  0.5162840000000 1.0
C      1  0.5481040000000  0.4474500000000  0.5126190000000 1.0
C      1  0.5691510000000  0.4914810000000  0.5138320000000 1.0
C      1  0.5578510000000  0.5384470000000  0.5119070000000 1.0
C      1  0.5020900000000  0.4595430000000  0.5070020000000 1.0
C      1  0.5300110000000  0.4685250000000  0.4974820000000 1.0
C      1  0.5395080000000  0.4944420000000  0.5085520000000 1.0
C      1  0.5349600000000  0.5217860000000  0.4978640000000 1.0
C      1  0.5094860000000  0.5370930000000  0.5067450000000 1.0
C      1  0.4800700000000  0.5419140000000  0.4952040000000 1.0
C      1  0.4571410000000  0.5212760000000  0.4932470000000 1.0
C      1  0.4592910000000  0.4911780000000  0.5038330000000 1.0
C      1  0.4733040000000  0.4644470000000  0.4954070000000 1.0
C      1  0.5031020000000  0.4645580000000  0.4530340000000 1.0
C      1  0.5310900000000  0.4688510000000  0.4444960000000 1.0
C      1  0.5468660000000  0.4937630000000  0.4438610000000 1.0
C      1  0.5349080000000  0.5210040000000  0.4448100000000 1.0
C      1  0.5079740000000  0.5323020000000  0.4518160000000 1.0
C      1  0.4809630000000  0.5410150000000  0.4432020000000 1.0
C      1  0.4583640000000  0.5216570000000  0.4421150000000 1.0
C      1  0.4619640000000  0.4941680000000  0.4518530000000 1.0
C      1  0.4755760000000  0.4691660000000  0.4443390000000 1.0
C      1  0.5326910000000  0.4222170000000  0.5015870000000 1.0
C      1  0.5755340000000  0.4635190000000  0.5027270000000 1.0
C      1  0.5812110000000  0.5175610000000  0.5024110000000 1.0
C      1  0.5486230000000  0.5663400000000  0.5004670000000 1.0
C      1  0.4950780000000  0.5828320000000  0.5052230000000 1.0
C      1  0.4389980000000  0.5640650000000  0.4989550000000 1.0
C      1  0.4152950000000  0.5095440000000  0.5045470000000 1.0
C      1  0.4278370000000  0.4547350000000  0.4995520000000 1.0
C      1  0.4761400000000  0.4201730000000  0.5043470000000 1.0
C      1  0.5302900000000  0.4277600000000  0.4733250000000 1.0
C      1  0.5738430000000  0.4637020000000  0.4730390000000 1.0
C      1  0.5791770000000  0.5177380000000  0.4726850000000 1.0
C      1  0.5444140000000  0.5610110000000  0.4724300000000 1.0
C      1  0.4960560000000  0.5781860000000  0.4756440000000 1.0
C      1  0.4423400000000  0.5610470000000  0.4701810000000 1.0
C      1  0.4186960000000  0.5092960000000  0.4748040000000 1.0
C      1  0.4326420000000  0.4586670000000  0.4711850000000 1.0
C      1  0.4782590000000  0.4252920000000  0.4749610000000 1.0
C      1  0.4395030000000  0.4877580000000  0.4701230000000 1.0
C      1  0.4606210000000  0.4486280000000  0.4623640000000 1.0
C      1  0.5035040000000  0.4415540000000  0.4720970000000 1.0
C      1  0.5459860000000  0.4531170000000  0.4653830000000 1.0
C      1  0.5727300000000  0.4911120000000  0.4594090000000 1.0
C      1  0.5533600000000  0.5328720000000  0.4652700000000 1.0
C      1  0.5150310000000  0.5544830000000  0.4716260000000 1.0
C      1  0.4722140000000  0.5624130000000  0.4629690000000 1.0
C      1  0.4371220000000  0.5319010000000  0.4617790000000 1.0
END
