TITL C-3578207-9274-515 -4.42738963623316e-06 125000 -533.937433633011 0 0 88 (C1) n - 1
REM
REM in /home/bkarasulu/work/CARBON/AIRSS/Generating-Clusters/EDIP-Nigel-Params/with-SteepDescent/Higher-Symm/SD-CG/HFTN-CG
REM
REM
REM
REM
REM
REM ./C.cell (12c818d87b63d06a65506943cc24bca4)
REM
REM compiler GCC version 9.2.1 20190827 (Red Hat 9.2.1-1)
REM options -cpp -mtune=generic -march=x86-64 -g -O0 -fpre-include=/usr/include/finclude/math-vector-fortran.h
REM seed 524319351 -1055843750 35822059 1451701745 -1972634352 -739754160 -553024946 1195567410 435853650 657413018 -964502019 -821761924 1695553976 -547154445 724630343 1315950380 -603007 -342378722 1094702669 -1197944493 -870462354 589367770 1078312959 -546727335 1444345481 -1608052758 -1670722501 737254281 -992144223 650419206 -1170824373 244790693 187510842
REM
CELL 1.54180   50.00000   50.00000   50.00000   90.00000   90.00000   90.00000
LATT -1
SFAC C  
C      1  0.5564130000000  0.5048920000000  0.4608740000000 1.0
C      1  0.5084160000000  0.4602260000000  0.5551500000000 1.0
C      1  0.4585750000000  0.5684740000000  0.4995100000000 1.0
C      1  0.4418370000000  0.4928660000000  0.4623580000000 1.0
C      1  0.5613550000000  0.4985050000000  0.5422690000000 1.0
C      1  0.4311240000000  0.5103840000000  0.5409070000000 1.0
C      1  0.4937130000000  0.5373770000000  0.5587520000000 1.0
C      1  0.4984430000000  0.5342060000000  0.4323140000000 1.0
C      1  0.4966370000000  0.4586470000000  0.4436280000000 1.0
C      1  0.5464960000000  0.4432770000000  0.5113440000000 1.0
C      1  0.4615950000000  0.4512160000000  0.4887850000000 1.0
C      1  0.5387150000000  0.5581210000000  0.5049350000000 1.0
C      1  0.5327180000000  0.5012060000000  0.5319760000000 1.0
C      1  0.4884050000000  0.5289930000000  0.5305760000000 1.0
C      1  0.5324500000000  0.5277230000000  0.5092660000000 1.0
C      1  0.4785580000000  0.4997340000000  0.5243920000000 1.0
C      1  0.5276700000000  0.4959990000000  0.4717110000000 1.0
C      1  0.4687100000000  0.5010850000000  0.4736920000000 1.0
C      1  0.5052030000000  0.4684560000000  0.5223640000000 1.0
C      1  0.5038240000000  0.4657170000000  0.4752650000000 1.0
C      1  0.5151740000000  0.5183890000000  0.4871510000000 1.0
C      1  0.4796090000000  0.4764530000000  0.4903090000000 1.0
C      1  0.5333020000000  0.4708000000000  0.5071900000000 1.0
C      1  0.4671490000000  0.5400930000000  0.4937040000000 1.0
C      1  0.4277420000000  0.4799670000000  0.5027580000000 1.0
C      1  0.4671470000000  0.4933890000000  0.4254430000000 1.0
C      1  0.4959010000000  0.4212630000000  0.4675080000000 1.0
C      1  0.5807290000000  0.5398330000000  0.4931280000000 1.0
C      1  0.4224570000000  0.5392720000000  0.5083860000000 1.0
C      1  0.5846190000000  0.4689890000000  0.5059260000000 1.0
C      1  0.5304470000000  0.5041160000000  0.4220850000000 1.0
C      1  0.4671480000000  0.5050890000000  0.5737770000000 1.0
C      1  0.5324400000000  0.4924700000000  0.5774410000000 1.0
C      1  0.5035300000000  0.5647990000000  0.4730940000000 1.0
C      1  0.4963700000000  0.5780400000000  0.5332820000000 1.0
C      1  0.5079840000000  0.4217200000000  0.5331300000000 1.0
C      1  0.4393790000000  0.4974710000000  0.5668060000000 1.0
C      1  0.4924410000000  0.5611330000000  0.4442360000000 1.0
C      1  0.5734510000000  0.4423580000000  0.4982610000000 1.0
C      1  0.5592550000000  0.5040910000000  0.5711670000000 1.0
C      1  0.4402130000000  0.5025260000000  0.4346130000000 1.0
C      1  0.5572650000000  0.4962020000000  0.4325980000000 1.0
C      1  0.5068690000000  0.4302960000000  0.4410670000000 1.0
C      1  0.4969610000000  0.4327330000000  0.5586090000000 1.0
C      1  0.5046950000000  0.5655680000000  0.5587960000000 1.0
C      1  0.4293800000000  0.5651450000000  0.4951930000000 1.0
C      1  0.5676660000000  0.5613770000000  0.5100710000000 1.0
C      1  0.4358200000000  0.4518430000000  0.5028650000000 1.0
C      1  0.4690630000000  0.4285800000000  0.4730140000000 1.0
C      1  0.4185660000000  0.4896660000000  0.4777830000000 1.0
C      1  0.4720640000000  0.4657900000000  0.4298120000000 1.0
C      1  0.5299910000000  0.5690530000000  0.4804710000000 1.0
C      1  0.4685870000000  0.5787150000000  0.5246510000000 1.0
C      1  0.5360730000000  0.4235500000000  0.5292300000000 1.0
C      1  0.5685330000000  0.5311680000000  0.4672650000000 1.0
C      1  0.4224840000000  0.5372270000000  0.5369520000000 1.0
C      1  0.5791790000000  0.4775340000000  0.5331690000000 1.0
C      1  0.5235240000000  0.5311990000000  0.4195730000000 1.0
C      1  0.4714950000000  0.5328350000000  0.5763870000000 1.0
C      1  0.5312040000000  0.4650050000000  0.5722630000000 1.0
C      1  0.4967300000000  0.5531350000000  0.5153520000000 1.0
C      1  0.5607820000000  0.5174840000000  0.5025930000000 1.0
C      1  0.5151400000000  0.5049430000000  0.5567440000000 1.0
C      1  0.4968820000000  0.4405670000000  0.5132050000000 1.0
C      1  0.5100630000000  0.4386680000000  0.4868630000000 1.0
C      1  0.4931730000000  0.5365920000000  0.4761970000000 1.0
C      1  0.4464340000000  0.4996450000000  0.5178610000000 1.0
C      1  0.5600820000000  0.4862080000000  0.4996310000000 1.0
C      1  0.4433680000000  0.5209360000000  0.4961450000000 1.0
C      1  0.4860430000000  0.4915690000000  0.5541440000000 1.0
C      1  0.5132280000000  0.4937520000000  0.4436490000000 1.0
C      1  0.4862960000000  0.5081100000000  0.4436040000000 1.0
C      1  0.5349160000000  0.4299190000000  0.4404140000000 1.0
C      1  0.4354940000000  0.4408130000000  0.5286020000000 1.0
C      1  0.4358810000000  0.5303300000000  0.4337400000000 1.0
C      1  0.4646500000000  0.5665030000000  0.4417790000000 1.0
C      1  0.5320210000000  0.5670780000000  0.5644100000000 1.0
C      1  0.4691020000000  0.4329690000000  0.5606570000000 1.0
C      1  0.5710950000000  0.5598740000000  0.5380390000000 1.0
C      1  0.4251640000000  0.5632170000000  0.4673360000000 1.0
C      1  0.5713650000000  0.4397310000000  0.4701780000000 1.0
C      1  0.5617030000000  0.4683950000000  0.4326160000000 1.0
C      1  0.4383980000000  0.4693300000000  0.5656180000000 1.0
C      1  0.5610650000000  0.5317620000000  0.5754670000000 1.0
C      1  0.4448830000000  0.4448660000000  0.5542590000000 1.0
C      1  0.5582960000000  0.4440500000000  0.4458320000000 1.0
C      1  0.5573030000000  0.5558740000000  0.5620620000000 1.0
C      1  0.4392250000000  0.5558420000000  0.4443290000000 1.0
END
