TITL C-3578206-1180-41 1.69162889048831e-06 125000 -464.556352035884 0 0 75 (C1) n - 1
REM
REM in /home/bkarasulu/work/CARBON/AIRSS/Generating-Clusters/EDIP-Nigel-Params/with-SteepDescent/Higher-Symm/SD-CG/HFTN-CG
REM
REM
REM
REM
REM
REM ./C.cell (12c818d87b63d06a65506943cc24bca4)
REM
REM compiler GCC version 9.2.1 20190827 (Red Hat 9.2.1-1)
REM options -cpp -mtune=generic -march=x86-64 -g -O0 -fpre-include=/usr/include/finclude/math-vector-fortran.h
REM seed 611657231 -1401163734 1182626252 -487000911 405915555 1119960977 -1898033892 -1132810609 -1045852509 -1901879502 -1640639968 489290090 -1041155354 973411936 -303570809 -787215572 -1933784982 -906653083 -1828412446 -286196846 220152827 510186392 15109443 -943943506 264347052 870318827 -854884651 -277654859 1375835915 1714915526 243342197 2098889297 1120851236
REM
CELL 1.54180   50.00000   50.00000   50.00000   90.00000   90.00000   90.00000
LATT -1
SFAC C  
C      1  0.4850180000000  0.5273800000000  0.5235680000000 1.0
C      1  0.4736890000000  0.5272970000000  0.4933340000000 1.0
C      1  0.4988900000000  0.5274720000000  0.4731730000000 1.0
C      1  0.5258500000000  0.5275800000000  0.4907910000000 1.0
C      1  0.5172160000000  0.5273860000000  0.5219220000000 1.0
C      1  0.4850950000000  0.4780200000000  0.5206490000000 1.0
C      1  0.4740690000000  0.4708950000000  0.4928620000000 1.0
C      1  0.4999000000000  0.4702400000000  0.4729300000000 1.0
C      1  0.5241900000000  0.4765560000000  0.4912620000000 1.0
C      1  0.5153270000000  0.4715690000000  0.5205720000000 1.0
C      1  0.5397590000000  0.5639020000000  0.4854830000000 1.0
C      1  0.5268980000000  0.5635750000000  0.5337490000000 1.0
C      1  0.4769910000000  0.5635850000000  0.5363770000000 1.0
C      1  0.4589330000000  0.5635570000000  0.4897180000000 1.0
C      1  0.4976990000000  0.5639220000000  0.4584610000000 1.0
C      1  0.5423300000000  0.4297830000000  0.4817530000000 1.0
C      1  0.5225110000000  0.4336940000000  0.5270400000000 1.0
C      1  0.4747380000000  0.4291130000000  0.5378810000000 1.0
C      1  0.4613990000000  0.4338230000000  0.4905810000000 1.0
C      1  0.4990730000000  0.4337050000000  0.4587110000000 1.0
C      1  0.4550880000000  0.5586300000000  0.5179730000000 1.0
C      1  0.4696540000000  0.5587850000000  0.4632890000000 1.0
C      1  0.5261480000000  0.5591680000000  0.4602970000000 1.0
C      1  0.5467440000000  0.5587320000000  0.5131650000000 1.0
C      1  0.5027150000000  0.5585670000000  0.5489160000000 1.0
C      1  0.4572270000000  0.4392160000000  0.5183990000000 1.0
C      1  0.4709930000000  0.4384170000000  0.4636620000000 1.0
C      1  0.5272800000000  0.4385050000000  0.4596370000000 1.0
C      1  0.5432560000000  0.4400210000000  0.5079130000000 1.0
C      1  0.5004100000000  0.4381170000000  0.5450110000000 1.0
C      1  0.4984160000000  0.5145660000000  0.4431860000000 1.0
C      1  0.5544540000000  0.5151670000000  0.4804820000000 1.0
C      1  0.5349770000000  0.5138480000000  0.5453960000000 1.0
C      1  0.4676540000000  0.5148350000000  0.5484860000000 1.0
C      1  0.4450460000000  0.5143230000000  0.4844130000000 1.0
C      1  0.4986780000000  0.4832410000000  0.4431790000000 1.0
C      1  0.5532240000000  0.4842070000000  0.4806110000000 1.0
C      1  0.5340340000000  0.4826810000000  0.5442560000000 1.0
C      1  0.4680260000000  0.4840660000000  0.5465880000000 1.0
C      1  0.4454700000000  0.4830790000000  0.4841050000000 1.0
C      1  0.5365810000000  0.4597590000000  0.4417280000000 1.0
C      1  0.5648700000000  0.4584920000000  0.5149580000000 1.0
C      1  0.5041820000000  0.4580350000000  0.5663520000000 1.0
C      1  0.4373650000000  0.4592470000000  0.5259180000000 1.0
C      1  0.4566550000000  0.4591440000000  0.4482040000000 1.0
C      1  0.5362100000000  0.5384210000000  0.4420450000000 1.0
C      1  0.5668770000000  0.5374890000000  0.5170030000000 1.0
C      1  0.5052200000000  0.5372150000000  0.5691350000000 1.0
C      1  0.4362910000000  0.5376470000000  0.5265200000000 1.0
C      1  0.4557890000000  0.5377810000000  0.4480310000000 1.0
C      1  0.4337580000000  0.5253460000000  0.4597700000000 1.0
C      1  0.5182640000000  0.5257440000000  0.4248770000000 1.0
C      1  0.5780270000000  0.5256270000000  0.4943120000000 1.0
C      1  0.5298080000000  0.5243960000000  0.5721680000000 1.0
C      1  0.4405780000000  0.5255960000000  0.5513510000000 1.0
C      1  0.4344630000000  0.4716860000000  0.4595300000000 1.0
C      1  0.5184330000000  0.4723380000000  0.4246880000000 1.0
C      1  0.5767100000000  0.4723800000000  0.4939760000000 1.0
C      1  0.5289310000000  0.4703050000000  0.5700710000000 1.0
C      1  0.4409820000000  0.4729130000000  0.5497560000000 1.0
C      1  0.5636720000000  0.5197390000000  0.5397140000000 1.0
C      1  0.4821780000000  0.5203520000000  0.5739020000000 1.0
C      1  0.4252640000000  0.5204110000000  0.5059360000000 1.0
C      1  0.4718580000000  0.5207520000000  0.4309880000000 1.0
C      1  0.5578540000000  0.5217630000000  0.4515630000000 1.0
C      1  0.5621800000000  0.4753790000000  0.5383390000000 1.0
C      1  0.4821920000000  0.4759980000000  0.5716130000000 1.0
C      1  0.4257620000000  0.4760200000000  0.5053210000000 1.0
C      1  0.4723290000000  0.4763550000000  0.4310140000000 1.0
C      1  0.5570620000000  0.4773890000000  0.4517330000000 1.0
C      1  0.4109010000000  0.4979530000000  0.5148780000000 1.0
C      1  0.4586410000000  0.4984030000000  0.4201790000000 1.0
C      1  0.5802050000000  0.4969640000000  0.5399320000000 1.0
C      1  0.5635360000000  0.4994150000000  0.4354400000000 1.0
C      1  0.4873030000000  0.4973290000000  0.5892730000000 1.0
END
