TITL C-3577080-309-685 4.70393079008227e-06 125000 -387.487665701089 0 0 64 (C1) n - 1
REM
REM in /home/bkarasulu/work/CARBON/AIRSS/Generating-Clusters/EDIP-Nigel-Params/with-SteepDescent/Higher-Symm/SD-CG/HFTN-CG
REM
REM
REM
REM
REM
REM ./C.cell (12c818d87b63d06a65506943cc24bca4)
REM
REM compiler GCC version 9.2.1 20190827 (Red Hat 9.2.1-1)
REM options -cpp -mtune=generic -march=x86-64 -g -O0 -fpre-include=/usr/include/finclude/math-vector-fortran.h
REM seed 773420589 2039353255 101283249 67644108 -1523351140 1231604509 -163355511 750792357 1742002359 -897703783 986229927 1754179296 594734157 1689902217 794289795 -749184922 -1668851492 665284701 -1602277322 1841167421 1378793978 959885876 341135237 -1568390523 1291181601 297306671 694226803 -1469123187 -2041279590 -445110612 -1334940083 -1216583607 -2126998699
REM
CELL 1.54180   50.00000   50.00000   50.00000   90.00000   90.00000   90.00000
LATT -1
SFAC C  
C      1  0.5272010000000  0.5651340000000  0.4761320000000 1.0
C      1  0.5156330000000  0.5450060000000  0.4576620000000 1.0
C      1  0.5041280000000  0.4821000000000  0.4466270000000 1.0
C      1  0.5446270000000  0.4608920000000  0.4685080000000 1.0
C      1  0.5337850000000  0.4714140000000  0.5641380000000 1.0
C      1  0.5416870000000  0.5109000000000  0.4334160000000 1.0
C      1  0.4618520000000  0.4453370000000  0.5369150000000 1.0
C      1  0.5812160000000  0.5111380000000  0.5268500000000 1.0
C      1  0.4863170000000  0.4645710000000  0.5788710000000 1.0
C      1  0.4847480000000  0.5553720000000  0.5362910000000 1.0
C      1  0.5222810000000  0.5014760000000  0.5289290000000 1.0
C      1  0.4821460000000  0.4499740000000  0.4440070000000 1.0
C      1  0.4722090000000  0.5135050000000  0.5382500000000 1.0
C      1  0.4890260000000  0.5327680000000  0.4502900000000 1.0
C      1  0.4421860000000  0.5326480000000  0.4573270000000 1.0
C      1  0.5260230000000  0.4439450000000  0.5240710000000 1.0
C      1  0.4940310000000  0.5384330000000  0.5585330000000 1.0
C      1  0.5164610000000  0.4983940000000  0.4235130000000 1.0
C      1  0.5118740000000  0.4522900000000  0.5685970000000 1.0
C      1  0.5031200000000  0.4297130000000  0.5382990000000 1.0
C      1  0.5586060000000  0.5206240000000  0.5051830000000 1.0
C      1  0.4446370000000  0.4902980000000  0.5540870000000 1.0
C      1  0.4455310000000  0.4795430000000  0.5033120000000 1.0
C      1  0.5513600000000  0.5166880000000  0.5635540000000 1.0
C      1  0.4748290000000  0.4406350000000  0.5632750000000 1.0
C      1  0.5440480000000  0.4946660000000  0.5096870000000 1.0
C      1  0.4597550000000  0.5519360000000  0.5205050000000 1.0
C      1  0.5208970000000  0.4539890000000  0.4511170000000 1.0
C      1  0.5648180000000  0.4729670000000  0.4538920000000 1.0
C      1  0.4648640000000  0.5510020000000  0.4514930000000 1.0
C      1  0.4356700000000  0.5180950000000  0.5491710000000 1.0
C      1  0.5627750000000  0.4928000000000  0.4359040000000 1.0
C      1  0.4631190000000  0.4684310000000  0.4557020000000 1.0
C      1  0.4358860000000  0.5332870000000  0.5242350000000 1.0
C      1  0.5032260000000  0.5713200000000  0.5228710000000 1.0
C      1  0.4933950000000  0.5174230000000  0.4227900000000 1.0
C      1  0.4796420000000  0.4309860000000  0.5175470000000 1.0
C      1  0.4793470000000  0.4923580000000  0.5714920000000 1.0
C      1  0.5018990000000  0.5122910000000  0.5702620000000 1.0
C      1  0.4986000000000  0.4362020000000  0.4659700000000 1.0
C      1  0.4875150000000  0.5136450000000  0.4845170000000 1.0
C      1  0.5685910000000  0.4815490000000  0.5233200000000 1.0
C      1  0.5131630000000  0.4991380000000  0.4710380000000 1.0
C      1  0.4617860000000  0.4947840000000  0.4438920000000 1.0
C      1  0.4701770000000  0.5010580000000  0.4169470000000 1.0
C      1  0.5549670000000  0.5599150000000  0.4786230000000 1.0
C      1  0.4781000000000  0.4988250000000  0.5110810000000 1.0
C      1  0.5130710000000  0.5751030000000  0.4981110000000 1.0
C      1  0.5297010000000  0.4788880000000  0.4872500000000 1.0
C      1  0.5562620000000  0.5316890000000  0.4783600000000 1.0
C      1  0.4654470000000  0.5702730000000  0.4717020000000 1.0
C      1  0.4318050000000  0.5151310000000  0.5018580000000 1.0
C      1  0.5110580000000  0.4626060000000  0.5051740000000 1.0
C      1  0.4873390000000  0.4475780000000  0.4924450000000 1.0
C      1  0.4589280000000  0.5680610000000  0.4977080000000 1.0
C      1  0.4394050000000  0.5122150000000  0.4377550000000 1.0
C      1  0.5463070000000  0.4584540000000  0.5409900000000 1.0
C      1  0.4647980000000  0.4661560000000  0.4845570000000 1.0
C      1  0.5005060000000  0.4838370000000  0.5220050000000 1.0
C      1  0.4495310000000  0.4715640000000  0.5314190000000 1.0
C      1  0.4508730000000  0.5169340000000  0.4805400000000 1.0
C      1  0.5333100000000  0.5214190000000  0.4603180000000 1.0
C      1  0.5278140000000  0.5008780000000  0.5580970000000 1.0
C      1  0.5760910000000  0.5197500000000  0.5530200000000 1.0
END
