TITL C-3578198-8939-345 1.05260160286345e-06 125000 -352.700425418683 0 0 58 (C1) n - 1
REM
REM in /home/bkarasulu/work/CARBON/AIRSS/Generating-Clusters/EDIP-Nigel-Params/with-SteepDescent/Higher-Symm/SD-CG/HFTN-CG
REM
REM
REM
REM
REM
REM ./C.cell (12c818d87b63d06a65506943cc24bca4)
REM
REM compiler GCC version 9.2.1 20190827 (Red Hat 9.2.1-1)
REM options -cpp -mtune=generic -march=x86-64 -g -O0 -fpre-include=/usr/include/finclude/math-vector-fortran.h
REM seed 776876167 104752570 1220654320 727761970 1726987117 26638258 201315092 1436440058 -607592339 -1637438776 -1320313941 117864330 -812745432 -1644081362 770781781 427203417 -481059117 -1837126597 1025135771 635017420 435410871 1439288899 2130727162 1905776422 690562042 1940118296 -786448937 -1224518309 1883707580 -1646527491 -1199989026 1685604388 1559400945
REM
CELL 1.54180   50.00000   50.00000   50.00000   90.00000   90.00000   90.00000
LATT -1
SFAC C  
C      1  0.5651570000000  0.5168740000000  0.4976220000000 1.0
C      1  0.5370810000000  0.4611200000000  0.5095440000000 1.0
C      1  0.5241420000000  0.4650430000000  0.5582060000000 1.0
C      1  0.4782210000000  0.5434860000000  0.5286790000000 1.0
C      1  0.4272380000000  0.5056480000000  0.4789780000000 1.0
C      1  0.5282920000000  0.5427760000000  0.5202910000000 1.0
C      1  0.5572110000000  0.4906710000000  0.4630130000000 1.0
C      1  0.4537310000000  0.5483500000000  0.4865520000000 1.0
C      1  0.4905330000000  0.4748220000000  0.4949120000000 1.0
C      1  0.4638410000000  0.5117940000000  0.5609420000000 1.0
C      1  0.4838170000000  0.4502370000000  0.4590710000000 1.0
C      1  0.4626750000000  0.5304490000000  0.5077260000000 1.0
C      1  0.5370860000000  0.5159180000000  0.5689170000000 1.0
C      1  0.5100680000000  0.5270780000000  0.5663640000000 1.0
C      1  0.4919360000000  0.5529980000000  0.4481970000000 1.0
C      1  0.5246360000000  0.4481000000000  0.5330750000000 1.0
C      1  0.4484850000000  0.4976210000000  0.5411310000000 1.0
C      1  0.5698860000000  0.4784440000000  0.5430120000000 1.0
C      1  0.4456010000000  0.5077440000000  0.5128880000000 1.0
C      1  0.4672340000000  0.4927680000000  0.4844630000000 1.0
C      1  0.4981980000000  0.4819730000000  0.5566930000000 1.0
C      1  0.4540830000000  0.4693710000000  0.5412500000000 1.0
C      1  0.4749830000000  0.4619650000000  0.5600660000000 1.0
C      1  0.4319630000000  0.4777810000000  0.4840360000000 1.0
C      1  0.5558280000000  0.5192590000000  0.4696620000000 1.0
C      1  0.4626890000000  0.5366460000000  0.4603330000000 1.0
C      1  0.5428390000000  0.5172250000000  0.5178490000000 1.0
C      1  0.5489420000000  0.4796790000000  0.5642350000000 1.0
C      1  0.4844140000000  0.4351750000000  0.5555730000000 1.0
C      1  0.4943440000000  0.5595360000000  0.4972900000000 1.0
C      1  0.5134060000000  0.5331410000000  0.4416800000000 1.0
C      1  0.5032600000000  0.4422200000000  0.4782710000000 1.0
C      1  0.4831920000000  0.5144580000000  0.4681700000000 1.0
C      1  0.5641340000000  0.4709670000000  0.5153300000000 1.0
C      1  0.5005730000000  0.5015270000000  0.5311860000000 1.0
C      1  0.4965100000000  0.4383360000000  0.5296990000000 1.0
C      1  0.4793520000000  0.4580140000000  0.5164360000000 1.0
C      1  0.4719900000000  0.4828980000000  0.4245570000000 1.0
C      1  0.5373750000000  0.5635580000000  0.5031290000000 1.0
C      1  0.4423190000000  0.4657990000000  0.4604160000000 1.0
C      1  0.4893080000000  0.5069260000000  0.5737410000000 1.0
C      1  0.5285620000000  0.5329870000000  0.4680860000000 1.0
C      1  0.4510690000000  0.4879790000000  0.4437780000000 1.0
C      1  0.5316650000000  0.4777380000000  0.4629040000000 1.0
C      1  0.5009580000000  0.5071900000000  0.4345070000000 1.0
C      1  0.5038430000000  0.5308800000000  0.5367330000000 1.0
C      1  0.4673310000000  0.5721620000000  0.4934890000000 1.0
C      1  0.5551480000000  0.5133200000000  0.5453450000000 1.0
C      1  0.5162300000000  0.4811720000000  0.4380620000000 1.0
C      1  0.5756270000000  0.4891100000000  0.4953920000000 1.0
C      1  0.4412040000000  0.5142900000000  0.4542670000000 1.0
C      1  0.5324970000000  0.5620600000000  0.4754440000000 1.0
C      1  0.5055000000000  0.5238560000000  0.4874100000000 1.0
C      1  0.4920640000000  0.4640000000000  0.4347490000000 1.0
C      1  0.5280880000000  0.4557670000000  0.4817740000000 1.0
C      1  0.5122370000000  0.4969230000000  0.5048460000000 1.0
C      1  0.4570590000000  0.4418050000000  0.4605890000000 1.0
C      1  0.5043430000000  0.5703730000000  0.4694390000000 1.0
END
