TITL C-3577083-591-259 9.2972531645136e-07 125000 -886.225936583633 0 0 144 (C1) n - 1
REM
REM in /home/bkarasulu/work/CARBON/AIRSS/Generating-Clusters/EDIP-Nigel-Params/with-SteepDescent/Higher-Symm/SD-CG/HFTN-CG
REM
REM
REM
REM
REM
REM ./C.cell (12c818d87b63d06a65506943cc24bca4)
REM
REM compiler GCC version 9.2.1 20190827 (Red Hat 9.2.1-1)
REM options -cpp -mtune=generic -march=x86-64 -g -O0 -fpre-include=/usr/include/finclude/math-vector-fortran.h
REM seed 287394346 1680553851 25078095 1085265570 1101156027 509727780 1481531956 1028608150 736128774 -457224953 -1230279205 1553273478 -1537059087 -701281818 -387796533 -22346725 -1706640704 662899963 -1180309168 597602640 -205357764 -1832145784 207275765 1894935300 -1036043221 -581204154 -1769089369 -1174350568 127169996 -6542734 1021904105 -1332078281 46600348
REM
CELL 1.54180   50.00000   50.00000   50.00000   90.00000   90.00000   90.00000
LATT -1
SFAC C  
C      1  0.5751590000000  0.4408050000000  0.4753910000000 1.0
C      1  0.4839900000000  0.5762980000000  0.4325320000000 1.0
C      1  0.4330650000000  0.4787320000000  0.5791730000000 1.0
C      1  0.5762640000000  0.5548980000000  0.5080300000000 1.0
C      1  0.4226130000000  0.5696870000000  0.4762460000000 1.0
C      1  0.4264090000000  0.4412300000000  0.5171570000000 1.0
C      1  0.4777300000000  0.4247710000000  0.5678310000000 1.0
C      1  0.5146580000000  0.4267220000000  0.4382080000000 1.0
C      1  0.5259290000000  0.5717470000000  0.5665290000000 1.0
C      1  0.4370810000000  0.5160950000000  0.4241190000000 1.0
C      1  0.5562690000000  0.4999800000000  0.5830470000000 1.0
C      1  0.5634820000000  0.4868290000000  0.4211730000000 1.0
C      1  0.4282980000000  0.4414480000000  0.4865100000000 1.0
C      1  0.5147970000000  0.5772850000000  0.4321060000000 1.0
C      1  0.5658430000000  0.4720990000000  0.5803460000000 1.0
C      1  0.4204690000000  0.5682790000000  0.5058970000000 1.0
C      1  0.5717210000000  0.5600630000000  0.4781930000000 1.0
C      1  0.5818610000000  0.4439500000000  0.5040250000000 1.0
C      1  0.5069840000000  0.4268530000000  0.5598160000000 1.0
C      1  0.4841620000000  0.4281380000000  0.4409760000000 1.0
C      1  0.5002580000000  0.5665060000000  0.5524720000000 1.0
C      1  0.5624200000000  0.5174000000000  0.4225790000000 1.0
C      1  0.4491450000000  0.5028680000000  0.5744650000000 1.0
C      1  0.4374590000000  0.4853250000000  0.4270990000000 1.0
C      1  0.4716990000000  0.5747240000000  0.4828790000000 1.0
C      1  0.4804760000000  0.4721420000000  0.5749240000000 1.0
C      1  0.5694560000000  0.4840350000000  0.4692740000000 1.0
C      1  0.4763770000000  0.4343880000000  0.5186460000000 1.0
C      1  0.5298970000000  0.4267580000000  0.4864880000000 1.0
C      1  0.5255750000000  0.5620650000000  0.5168110000000 1.0
C      1  0.4860450000000  0.5291380000000  0.4214070000000 1.0
C      1  0.5186870000000  0.5274840000000  0.5808910000000 1.0
C      1  0.5130530000000  0.4760460000000  0.4296610000000 1.0
C      1  0.5694900000000  0.5107420000000  0.5300800000000 1.0
C      1  0.4284490000000  0.5188650000000  0.4724380000000 1.0
C      1  0.4241420000000  0.4867610000000  0.5306880000000 1.0
C      1  0.5225880000000  0.5660440000000  0.4863470000000 1.0
C      1  0.5113610000000  0.4718960000000  0.5758470000000 1.0
C      1  0.4269980000000  0.4881480000000  0.4746350000000 1.0
C      1  0.5343400000000  0.4326980000000  0.5172930000000 1.0
C      1  0.4757880000000  0.4302930000000  0.4876930000000 1.0
C      1  0.4701490000000  0.5689410000000  0.5144320000000 1.0
C      1  0.5158100000000  0.5302870000000  0.4229800000000 1.0
C      1  0.4889310000000  0.5248820000000  0.5734940000000 1.0
C      1  0.4819630000000  0.4745010000000  0.4267950000000 1.0
C      1  0.4286410000000  0.5171730000000  0.5308180000000 1.0
C      1  0.5732290000000  0.5142470000000  0.4706880000000 1.0
C      1  0.5806930000000  0.4825560000000  0.5347620000000 1.0
C      1  0.5105630000000  0.5977690000000  0.5175070000000 1.0
C      1  0.5312270000000  0.5066130000000  0.5985050000000 1.0
C      1  0.5894740000000  0.5288440000000  0.5154860000000 1.0
C      1  0.5172190000000  0.4011760000000  0.4809580000000 1.0
C      1  0.4926070000000  0.4074510000000  0.5218920000000 1.0
C      1  0.4881370000000  0.5974050000000  0.4759640000000 1.0
C      1  0.5156160000000  0.4872110000000  0.4009880000000 1.0
C      1  0.4848760000000  0.4914390000000  0.6080990000000 1.0
C      1  0.4812360000000  0.5144640000000  0.3977070000000 1.0
C      1  0.6010120000000  0.4861800000000  0.4912650000000 1.0
C      1  0.4020970000000  0.4780240000000  0.5146040000000 1.0
C      1  0.3978810000000  0.5187910000000  0.4928090000000 1.0
C      1  0.4905190000000  0.5834830000000  0.5313630000000 1.0
C      1  0.4708240000000  0.5108990000000  0.5923450000000 1.0
C      1  0.4031790000000  0.5296970000000  0.5190380000000 1.0
C      1  0.4923910000000  0.4033010000000  0.4914640000000 1.0
C      1  0.5178580000000  0.4143100000000  0.5350570000000 1.0
C      1  0.5113730000000  0.5933870000000  0.4892450000000 1.0
C      1  0.4851570000000  0.4873550000000  0.3972300000000 1.0
C      1  0.5129820000000  0.4844120000000  0.6026030000000 1.0
C      1  0.5235070000000  0.5134390000000  0.4015300000000 1.0
C      1  0.4009540000000  0.4896210000000  0.4901450000000 1.0
C      1  0.5945850000000  0.4691030000000  0.5130140000000 1.0
C      1  0.5967500000000  0.5151670000000  0.4899180000000 1.0
C      1  0.5477900000000  0.5744230000000  0.4726370000000 1.0
C      1  0.4795130000000  0.5514910000000  0.5666490000000 1.0
C      1  0.5871610000000  0.4709010000000  0.5608840000000 1.0
C      1  0.5637580000000  0.4296330000000  0.5228050000000 1.0
C      1  0.4492340000000  0.4230030000000  0.4781250000000 1.0
C      1  0.4424950000000  0.5770880000000  0.5226980000000 1.0
C      1  0.4734800000000  0.4473790000000  0.4218520000000 1.0
C      1  0.5237260000000  0.4448530000000  0.5760190000000 1.0
C      1  0.5255190000000  0.5559990000000  0.4146610000000 1.0
C      1  0.5800200000000  0.5265030000000  0.4442900000000 1.0
C      1  0.4368940000000  0.5250960000000  0.5589210000000 1.0
C      1  0.4204610000000  0.4760820000000  0.4490870000000 1.0
C      1  0.4469000000000  0.5831910000000  0.4690230000000 1.0
C      1  0.5291010000000  0.5543420000000  0.5897190000000 1.0
C      1  0.4161600000000  0.4739920000000  0.5565000000000 1.0
C      1  0.4492960000000  0.4271990000000  0.5282450000000 1.0
C      1  0.5552210000000  0.4217290000000  0.4715810000000 1.0
C      1  0.5534920000000  0.5634000000000  0.5256670000000 1.0
C      1  0.5246310000000  0.4499900000000  0.4236110000000 1.0
C      1  0.4693910000000  0.4466920000000  0.5849380000000 1.0
C      1  0.4744880000000  0.5548740000000  0.4151100000000 1.0
C      1  0.4216050000000  0.5287980000000  0.4455590000000 1.0
C      1  0.5607730000000  0.5204660000000  0.5591910000000 1.0
C      1  0.5797750000000  0.4761710000000  0.4430000000000 1.0
C      1  0.4511660000000  0.4220670000000  0.4487750000000 1.0
C      1  0.4442220000000  0.4507330000000  0.4233680000000 1.0
C      1  0.4214910000000  0.4468800000000  0.4545290000000 1.0
C      1  0.4383350000000  0.5742920000000  0.5501780000000 1.0
C      1  0.5472580000000  0.5786570000000  0.4435360000000 1.0
C      1  0.5727220000000  0.4255790000000  0.5499450000000 1.0
C      1  0.4521510000000  0.5505260000000  0.5567190000000 1.0
C      1  0.5551100000000  0.5505270000000  0.4178830000000 1.0
C      1  0.5530320000000  0.4456970000000  0.5748360000000 1.0
C      1  0.3986690000000  0.5574490000000  0.5198190000000 1.0
C      1  0.5790560000000  0.5560500000000  0.4479110000000 1.0
C      1  0.5923340000000  0.4432930000000  0.5590100000000 1.0
C      1  0.5508360000000  0.4217410000000  0.4424600000000 1.0
C      1  0.5537880000000  0.4516920000000  0.4188090000000 1.0
C      1  0.5808060000000  0.4468750000000  0.4460150000000 1.0
C      1  0.5538960000000  0.5681940000000  0.5544400000000 1.0
C      1  0.4511910000000  0.5817740000000  0.4396270000000 1.0
C      1  0.4479510000000  0.4214010000000  0.5568590000000 1.0
C      1  0.5569580000000  0.5525280000000  0.5962240000000 1.0
C      1  0.4449430000000  0.5509380000000  0.4167130000000 1.0
C      1  0.4400930000000  0.4489850000000  0.5833810000000 1.0
C      1  0.5683610000000  0.5481140000000  0.5704050000000 1.0
C      1  0.4201940000000  0.5586630000000  0.4451760000000 1.0
C      1  0.4175100000000  0.4446860000000  0.5518060000000 1.0
C      1  0.5301940000000  0.5195990000000  0.5528570000000 1.0
C      1  0.5404850000000  0.5129650000000  0.5094910000000 1.0
C      1  0.5171960000000  0.5325940000000  0.5231280000000 1.0
C      1  0.5201990000000  0.4924330000000  0.4560380000000 1.0
C      1  0.4744330000000  0.4805110000000  0.5416990000000 1.0
C      1  0.4744660000000  0.5178570000000  0.4475650000000 1.0
C      1  0.5349400000000  0.4764710000000  0.4759740000000 1.0
C      1  0.4508730000000  0.4780270000000  0.5195660000000 1.0
C      1  0.4535530000000  0.5278360000000  0.4856460000000 1.0
C      1  0.5169240000000  0.4519630000000  0.4742460000000 1.0
C      1  0.4913390000000  0.4616260000000  0.5255060000000 1.0
C      1  0.4769640000000  0.5386860000000  0.4694650000000 1.0
C      1  0.4876760000000  0.5103030000000  0.5454060000000 1.0
C      1  0.4547270000000  0.5217490000000  0.5134610000000 1.0
C      1  0.4787970000000  0.5351400000000  0.5253740000000 1.0
C      1  0.4718050000000  0.4872090000000  0.4546060000000 1.0
C      1  0.5202860000000  0.4878440000000  0.5505160000000 1.0
C      1  0.5249860000000  0.5223010000000  0.4597400000000 1.0
C      1  0.4550620000000  0.4764680000000  0.4876190000000 1.0
C      1  0.5293000000000  0.4863350000000  0.5034160000000 1.0
C      1  0.5471530000000  0.5236030000000  0.4814020000000 1.0
C      1  0.4860340000000  0.4570560000000  0.4745700000000 1.0
C      1  0.5210370000000  0.4679100000000  0.5252860000000 1.0
C      1  0.5066870000000  0.5405180000000  0.4755990000000 1.0
END
