TITL C-3577077-324-493 -4.06741272216676e-06 125000 -522.227014140709 0 0 84 (C1) n - 1
REM
REM in /home/bkarasulu/work/CARBON/AIRSS/Generating-Clusters/EDIP-Nigel-Params/with-SteepDescent/Higher-Symm/SD-CG/HFTN-CG
REM
REM
REM
REM
REM
REM ./C.cell (12c818d87b63d06a65506943cc24bca4)
REM
REM compiler GCC version 9.2.1 20190827 (Red Hat 9.2.1-1)
REM options -cpp -mtune=generic -march=x86-64 -g -O0 -fpre-include=/usr/include/finclude/math-vector-fortran.h
REM seed -1818398884 693395494 1415287790 -1714507838 -1560574035 -1388766407 1706763758 1166091688 1443751177 1557147587 -58461697 -328384170 -1315027207 -1998839869 -1384815972 1395245584 -1621058181 1377112961 -1336804739 -164513625 1848679816 369721034 1848722518 944876274 -1912094490 -1697057595 1508716292 1600356237 462080433 1952736937 933238326 -567557682 2094847011
REM
CELL 1.54180   50.00000   50.00000   50.00000   90.00000   90.00000   90.00000
LATT -1
SFAC C  
C      1  0.5272770000000  0.5387270000000  0.5607380000000 1.0
C      1  0.5236720000000  0.4809280000000  0.4254140000000 1.0
C      1  0.4759690000000  0.5217800000000  0.4258850000000 1.0
C      1  0.4706360000000  0.4644930000000  0.5715710000000 1.0
C      1  0.5327330000000  0.5655590000000  0.5192130000000 1.0
C      1  0.5275180000000  0.4368770000000  0.4802500000000 1.0
C      1  0.4730470000000  0.5575110000000  0.4781640000000 1.0
C      1  0.4703240000000  0.4446560000000  0.5248080000000 1.0
C      1  0.4838380000000  0.5536690000000  0.5277070000000 1.0
C      1  0.4776730000000  0.4434200000000  0.4706540000000 1.0
C      1  0.5234480000000  0.5580800000000  0.4683560000000 1.0
C      1  0.5205690000000  0.4374880000000  0.5352890000000 1.0
C      1  0.5421460000000  0.5278840000000  0.4371280000000 1.0
C      1  0.5359290000000  0.4730140000000  0.5567810000000 1.0
C      1  0.4646200000000  0.5138520000000  0.5579560000000 1.0
C      1  0.4581840000000  0.4743610000000  0.4383060000000 1.0
C      1  0.5189940000000  0.5180240000000  0.4869790000000 1.0
C      1  0.4930310000000  0.4869580000000  0.5089860000000 1.0
C      1  0.5054990000000  0.5135760000000  0.5135070000000 1.0
C      1  0.4809810000000  0.4859140000000  0.4829640000000 1.0
C      1  0.4305720000000  0.5278080000000  0.5219660000000 1.0
C      1  0.4296850000000  0.4705740000000  0.4811700000000 1.0
C      1  0.5726170000000  0.5311140000000  0.4791980000000 1.0
C      1  0.5750590000000  0.4685780000000  0.5231020000000 1.0
C      1  0.4383510000000  0.5541570000000  0.5090320000000 1.0
C      1  0.4354060000000  0.4431900000000  0.4927040000000 1.0
C      1  0.5684320000000  0.5596650000000  0.4886600000000 1.0
C      1  0.5627140000000  0.4449470000000  0.5085720000000 1.0
C      1  0.4641990000000  0.4354310000000  0.4953730000000 1.0
C      1  0.4665840000000  0.5632040000000  0.5063370000000 1.0
C      1  0.5340340000000  0.4384750000000  0.5091530000000 1.0
C      1  0.5394630000000  0.5685050000000  0.4906340000000 1.0
C      1  0.5177940000000  0.5099060000000  0.4341710000000 1.0
C      1  0.5123630000000  0.4913470000000  0.5552780000000 1.0
C      1  0.4808080000000  0.4874020000000  0.5545790000000 1.0
C      1  0.4822340000000  0.4932870000000  0.4354100000000 1.0
C      1  0.4096510000000  0.4681590000000  0.5264700000000 1.0
C      1  0.4190100000000  0.5260790000000  0.4761140000000 1.0
C      1  0.5801560000000  0.4749660000000  0.4761950000000 1.0
C      1  0.5890560000000  0.5323400000000  0.5257880000000 1.0
C      1  0.5559250000000  0.5462190000000  0.5581300000000 1.0
C      1  0.5487830000000  0.4683790000000  0.4406220000000 1.0
C      1  0.4501560000000  0.5341520000000  0.4388520000000 1.0
C      1  0.4427000000000  0.4585170000000  0.5625010000000 1.0
C      1  0.4104450000000  0.4839880000000  0.4998430000000 1.0
C      1  0.4135890000000  0.5139560000000  0.5022280000000 1.0
C      1  0.5875690000000  0.4861660000000  0.5022530000000 1.0
C      1  0.5795510000000  0.5150260000000  0.5034920000000 1.0
C      1  0.5349550000000  0.4448100000000  0.5583420000000 1.0
C      1  0.5375670000000  0.5545700000000  0.4442610000000 1.0
C      1  0.4621120000000  0.4483320000000  0.4478880000000 1.0
C      1  0.4731800000000  0.5391130000000  0.5493660000000 1.0
C      1  0.5628580000000  0.5164280000000  0.4546330000000 1.0
C      1  0.5609540000000  0.4848060000000  0.5450640000000 1.0
C      1  0.4367410000000  0.5115800000000  0.5482980000000 1.0
C      1  0.4369530000000  0.4851330000000  0.4553980000000 1.0
C      1  0.5514730000000  0.5089180000000  0.5303230000000 1.0
C      1  0.5304600000000  0.4910510000000  0.4796290000000 1.0
C      1  0.4697860000000  0.5132030000000  0.4775830000000 1.0
C      1  0.4446400000000  0.4870850000000  0.5189850000000 1.0
C      1  0.4250830000000  0.4808030000000  0.5510440000000 1.0
C      1  0.4432730000000  0.5138120000000  0.4617160000000 1.0
C      1  0.5560450000000  0.4886170000000  0.4628720000000 1.0
C      1  0.5719780000000  0.5225890000000  0.5483980000000 1.0
C      1  0.5048200000000  0.4380460000000  0.4628170000000 1.0
C      1  0.5077510000000  0.5684740000000  0.5343140000000 1.0
C      1  0.4925620000000  0.4334900000000  0.5414940000000 1.0
C      1  0.4960500000000  0.5662410000000  0.4624310000000 1.0
C      1  0.5225210000000  0.5150750000000  0.5397010000000 1.0
C      1  0.5050810000000  0.4817470000000  0.4649780000000 1.0
C      1  0.4968900000000  0.5228660000000  0.4645440000000 1.0
C      1  0.4727380000000  0.4762260000000  0.5266990000000 1.0
C      1  0.5799420000000  0.5600690000000  0.5176170000000 1.0
C      1  0.5717530000000  0.4467730000000  0.4798870000000 1.0
C      1  0.4277260000000  0.5540340000000  0.4803870000000 1.0
C      1  0.4229640000000  0.4419170000000  0.5203580000000 1.0
C      1  0.5569470000000  0.5664680000000  0.5357630000000 1.0
C      1  0.5490810000000  0.4424110000000  0.4609680000000 1.0
C      1  0.4500350000000  0.5580530000000  0.4603320000000 1.0
C      1  0.4449830000000  0.4387230000000  0.5401070000000 1.0
C      1  0.5114680000000  0.5623730000000  0.5616100000000 1.0
C      1  0.5125560000000  0.4538020000000  0.4382820000000 1.0
C      1  0.4866630000000  0.5490460000000  0.4372620000000 1.0
C      1  0.4864240000000  0.4410070000000  0.5681670000000 1.0
END
