TITL C-3577091-527-725 -3.83238306132139e-06 125000 -423.487711417797 0 0 70 (C1) n - 1
REM
REM in /home/bkarasulu/work/CARBON/AIRSS/Generating-Clusters/EDIP-Nigel-Params/with-SteepDescent/Higher-Symm/SD-CG/HFTN-CG
REM
REM
REM
REM
REM
REM ./C.cell (12c818d87b63d06a65506943cc24bca4)
REM
REM compiler GCC version 9.2.1 20190827 (Red Hat 9.2.1-1)
REM options -cpp -mtune=generic -march=x86-64 -g -O0 -fpre-include=/usr/include/finclude/math-vector-fortran.h
REM seed -1359397071 -1850298278 642389345 644043219 1087218700 -1126090143 1407124089 1559781363 -220266557 -892523827 223546183 -1415078743 664046242 1575358828 -2118964386 -1166226049 -793452555 -1746023117 907818186 -2091025427 -341312063 1987222892 1262107574 -1837709274 -2086057549 -1964328691 1406189604 1701520952 -1517604558 -2135788053 1312599913 -1406972927 1385738799
REM
CELL 1.54180   50.00000   50.00000   50.00000   90.00000   90.00000   90.00000
LATT -1
SFAC C  
C      1  0.5384970000000  0.5509060000000  0.4789380000000 1.0
C      1  0.5387620000000  0.4925330000000  0.5539960000000 1.0
C      1  0.5398050000000  0.4564450000000  0.4653570000000 1.0
C      1  0.4661740000000  0.4506370000000  0.4811780000000 1.0
C      1  0.4630090000000  0.5075220000000  0.5522530000000 1.0
C      1  0.4624170000000  0.5423280000000  0.4642660000000 1.0
C      1  0.4261780000000  0.5277180000000  0.5118110000000 1.0
C      1  0.4201340000000  0.4782330000000  0.5177320000000 1.0
C      1  0.4192680000000  0.5010020000000  0.4703750000000 1.0
C      1  0.5763560000000  0.4747880000000  0.5122140000000 1.0
C      1  0.5764050000000  0.5244070000000  0.5158710000000 1.0
C      1  0.5761510000000  0.5026790000000  0.4709270000000 1.0
C      1  0.5366430000000  0.4812170000000  0.4871310000000 1.0
C      1  0.5366210000000  0.5196240000000  0.4916930000000 1.0
C      1  0.5363930000000  0.5001100000000  0.5204400000000 1.0
C      1  0.4622640000000  0.5064150000000  0.4790040000000 1.0
C      1  0.4532140000000  0.4773230000000  0.4891660000000 1.0
C      1  0.4625420000000  0.5006920000000  0.5188800000000 1.0
C      1  0.4874420000000  0.4933070000000  0.5648590000000 1.0
C      1  0.4894640000000  0.4486870000000  0.4629850000000 1.0
C      1  0.4870220000000  0.5579960000000  0.4722330000000 1.0
C      1  0.5143980000000  0.5064880000000  0.5670220000000 1.0
C      1  0.5139940000000  0.5541400000000  0.4598960000000 1.0
C      1  0.5158680000000  0.4370280000000  0.4712300000000 1.0
C      1  0.5125390000000  0.5857290000000  0.5001980000000 1.0
C      1  0.5138690000000  0.4556760000000  0.5735740000000 1.0
C      1  0.5131700000000  0.4590460000000  0.4244520000000 1.0
C      1  0.4879560000000  0.4129940000000  0.5011000000000 1.0
C      1  0.4871790000000  0.5435310000000  0.5745420000000 1.0
C      1  0.4870310000000  0.5428790000000  0.4232460000000 1.0
C      1  0.5673510000000  0.4770980000000  0.4837440000000 1.0
C      1  0.5670520000000  0.5258420000000  0.4874720000000 1.0
C      1  0.5669080000000  0.4986040000000  0.5277250000000 1.0
C      1  0.4339750000000  0.5243550000000  0.4831870000000 1.0
C      1  0.4231380000000  0.4766170000000  0.4876550000000 1.0
C      1  0.4330700000000  0.5037960000000  0.5276120000000 1.0
C      1  0.5374540000000  0.4629150000000  0.5601830000000 1.0
C      1  0.5374000000000  0.4664260000000  0.4366070000000 1.0
C      1  0.5365200000000  0.5712240000000  0.5011470000000 1.0
C      1  0.4639750000000  0.5367820000000  0.5601760000000 1.0
C      1  0.4630180000000  0.5350640000000  0.4356520000000 1.0
C      1  0.4650570000000  0.4295550000000  0.5016380000000 1.0
C      1  0.5164110000000  0.4446480000000  0.5201920000000 1.0
C      1  0.5157630000000  0.5099580000000  0.4388950000000 1.0
C      1  0.5157940000000  0.5442090000000  0.5365920000000 1.0
C      1  0.4854000000000  0.5530070000000  0.5203950000000 1.0
C      1  0.4846630000000  0.4922200000000  0.4440480000000 1.0
C      1  0.4856990000000  0.4553540000000  0.5352800000000 1.0
C      1  0.5411140000000  0.5588300000000  0.5273460000000 1.0
C      1  0.5421940000000  0.4462620000000  0.5365680000000 1.0
C      1  0.5421790000000  0.4952660000000  0.4335470000000 1.0
C      1  0.4589620000000  0.4420460000000  0.5275420000000 1.0
C      1  0.4601670000000  0.5541940000000  0.5370670000000 1.0
C      1  0.4584380000000  0.5061050000000  0.4350820000000 1.0
C      1  0.5134810000000  0.4243970000000  0.4980910000000 1.0
C      1  0.5125100000000  0.5393190000000  0.4343460000000 1.0
C      1  0.5123250000000  0.5357020000000  0.5651220000000 1.0
C      1  0.4884240000000  0.5719230000000  0.4977290000000 1.0
C      1  0.4891960000000  0.4635360000000  0.4380440000000 1.0
C      1  0.4893450000000  0.4642990000000  0.5633920000000 1.0
C      1  0.5657370000000  0.5459170000000  0.5295560000000 1.0
C      1  0.5662830000000  0.4518150000000  0.5237540000000 1.0
C      1  0.5658060000000  0.5040760000000  0.4453620000000 1.0
C      1  0.4348510000000  0.4567230000000  0.5284950000000 1.0
C      1  0.4360890000000  0.5504490000000  0.5237400000000 1.0
C      1  0.4338050000000  0.4982470000000  0.4463450000000 1.0
C      1  0.5026020000000  0.4728440000000  0.5134620000000 1.0
C      1  0.4999170000000  0.5245150000000  0.5158340000000 1.0
C      1  0.5041280000000  0.5026310000000  0.4679060000000 1.0
C      1  0.4982160000000  0.4995120000000  0.4984460000000 1.0
END
