TITL C-3577089-586-337 -2.62634465426835e-08 125000 -784.711798351475 0 0 126 (C1) n - 1
REM
REM in /home/bkarasulu/work/CARBON/AIRSS/Generating-Clusters/EDIP-Nigel-Params/with-SteepDescent/Higher-Symm/SD-CG/HFTN-CG
REM
REM
REM
REM
REM
REM ./C.cell (12c818d87b63d06a65506943cc24bca4)
REM
REM compiler GCC version 9.2.1 20190827 (Red Hat 9.2.1-1)
REM options -cpp -mtune=generic -march=x86-64 -g -O0 -fpre-include=/usr/include/finclude/math-vector-fortran.h
REM seed -690104452 1358263206 -1626696149 2085094850 -984128185 1068453238 591790202 2091331328 -1521556507 -168503226 -1834792245 1667623530 -231427857 -1838740480 -1741623627 -240006371 645339860 -1236777272 -1087727147 -1077472303 1300738769 -1057192503 894416718 1272982679 -1353039733 1584683515 689985802 722651154 70602785 -624953694 -970525698 -1989780543 597134310
REM
CELL 1.54180   50.00000   50.00000   50.00000   90.00000   90.00000   90.00000
LATT -1
SFAC C  
C      1  0.4819660000000  0.4914400000000  0.5440850000000 1.0
C      1  0.4588810000000  0.5127180000000  0.5416220000000 1.0
C      1  0.4712950000000  0.4961120000000  0.4908270000000 1.0
C      1  0.4862880000000  0.4878800000000  0.4676960000000 1.0
C      1  0.5077690000000  0.5044190000000  0.4565690000000 1.0
C      1  0.5387690000000  0.5035620000000  0.4672780000000 1.0
C      1  0.5382060000000  0.5102160000000  0.4966070000000 1.0
C      1  0.5201690000000  0.4940940000000  0.5113530000000 1.0
C      1  0.5069640000000  0.5044720000000  0.5345780000000 1.0
C      1  0.4617000000000  0.4699950000000  0.5042910000000 1.0
C      1  0.4673200000000  0.4473820000000  0.4841580000000 1.0
C      1  0.4856470000000  0.4587970000000  0.4634010000000 1.0
C      1  0.5130740000000  0.4447650000000  0.4617590000000 1.0
C      1  0.5508730000000  0.4748420000000  0.4631180000000 1.0
C      1  0.5349450000000  0.4538500000000  0.4809710000000 1.0
C      1  0.5205700000000  0.4661480000000  0.5052950000000 1.0
C      1  0.5040610000000  0.4493290000000  0.5229130000000 1.0
C      1  0.4768700000000  0.4641450000000  0.5306940000000 1.0
C      1  0.5278380000000  0.5746310000000  0.5681420000000 1.0
C      1  0.4757570000000  0.5717840000000  0.5739180000000 1.0
C      1  0.4399870000000  0.5704730000000  0.5403690000000 1.0
C      1  0.4343600000000  0.5767560000000  0.4934640000000 1.0
C      1  0.4535020000000  0.5680060000000  0.4533050000000 1.0
C      1  0.4948210000000  0.5752980000000  0.4287170000000 1.0
C      1  0.5451520000000  0.5673130000000  0.4373230000000 1.0
C      1  0.5761800000000  0.5731270000000  0.4751910000000 1.0
C      1  0.5666310000000  0.5708980000000  0.5285080000000 1.0
C      1  0.5702050000000  0.5368650000000  0.5631290000000 1.0
C      1  0.5133320000000  0.5473600000000  0.6048510000000 1.0
C      1  0.4429680000000  0.5389070000000  0.5934840000000 1.0
C      1  0.4033910000000  0.5421030000000  0.5354190000000 1.0
C      1  0.4058540000000  0.5464960000000  0.4699970000000 1.0
C      1  0.4503910000000  0.5383520000000  0.4151330000000 1.0
C      1  0.5183730000000  0.5482110000000  0.3970050000000 1.0
C      1  0.5744470000000  0.5285050000000  0.4388090000000 1.0
C      1  0.6049120000000  0.5449770000000  0.5008720000000 1.0
C      1  0.5430710000000  0.4557340000000  0.5597800000000 1.0
C      1  0.4954840000000  0.4483220000000  0.5718240000000 1.0
C      1  0.4490680000000  0.4517490000000  0.5549720000000 1.0
C      1  0.4307240000000  0.4458490000000  0.5093530000000 1.0
C      1  0.4324030000000  0.4471720000000  0.4571760000000 1.0
C      1  0.4744520000000  0.4522820000000  0.4353870000000 1.0
C      1  0.5229500000000  0.4494140000000  0.4322050000000 1.0
C      1  0.5769420000000  0.4478210000000  0.4712370000000 1.0
C      1  0.5670420000000  0.4501590000000  0.5188590000000 1.0
C      1  0.5392980000000  0.4024400000000  0.5119670000000 1.0
C      1  0.5234660000000  0.3930530000000  0.5330790000000 1.0
C      1  0.4981350000000  0.3973180000000  0.5441550000000 1.0
C      1  0.4781540000000  0.3852780000000  0.5287070000000 1.0
C      1  0.4632360000000  0.3967460000000  0.5079570000000 1.0
C      1  0.4745750000000  0.3941310000000  0.4825680000000 1.0
C      1  0.4902370000000  0.4073000000000  0.4632950000000 1.0
C      1  0.5189740000000  0.4011360000000  0.4623630000000 1.0
C      1  0.5309330000000  0.3940170000000  0.4866360000000 1.0
C      1  0.4448610000000  0.4626170000000  0.4352420000000 1.0
C      1  0.4989970000000  0.4625650000000  0.4172020000000 1.0
C      1  0.5465090000000  0.4671040000000  0.4345930000000 1.0
C      1  0.5783880000000  0.4627290000000  0.4953830000000 1.0
C      1  0.5635770000000  0.4673090000000  0.5419200000000 1.0
C      1  0.5195600000000  0.4660440000000  0.5733740000000 1.0
C      1  0.4701450000000  0.4625340000000  0.5747200000000 1.0
C      1  0.4300640000000  0.4633000000000  0.5337690000000 1.0
C      1  0.4254180000000  0.4611380000000  0.4826830000000 1.0
C      1  0.5428870000000  0.5071240000000  0.5903780000000 1.0
C      1  0.4945670000000  0.5033270000000  0.5929760000000 1.0
C      1  0.4251930000000  0.5051000000000  0.5593380000000 1.0
C      1  0.4149600000000  0.5045180000000  0.5081140000000 1.0
C      1  0.4208590000000  0.5025240000000  0.4556990000000 1.0
C      1  0.4839040000000  0.5084500000000  0.3982650000000 1.0
C      1  0.5313350000000  0.5013520000000  0.4051200000000 1.0
C      1  0.5970930000000  0.5031350000000  0.4743250000000 1.0
C      1  0.5904090000000  0.5025810000000  0.5227440000000 1.0
C      1  0.4943340000000  0.5562850000000  0.4076200000000 1.0
C      1  0.5521160000000  0.5412630000000  0.4288700000000 1.0
C      1  0.5934610000000  0.5511450000000  0.4766310000000 1.0
C      1  0.5794240000000  0.5486670000000  0.5401330000000 1.0
C      1  0.5331990000000  0.5547670000000  0.5871850000000 1.0
C      1  0.4697880000000  0.5454340000000  0.5854260000000 1.0
C      1  0.4212930000000  0.5538140000000  0.5529750000000 1.0
C      1  0.4155280000000  0.5559700000000  0.4934880000000 1.0
C      1  0.4439920000000  0.5434300000000  0.4414190000000 1.0
C      1  0.4759600000000  0.5413520000000  0.4711750000000 1.0
C      1  0.5017240000000  0.5325480000000  0.4588490000000 1.0
C      1  0.5289610000000  0.5422540000000  0.4669170000000 1.0
C      1  0.5339830000000  0.5386350000000  0.4970310000000 1.0
C      1  0.5194140000000  0.5517410000000  0.5204540000000 1.0
C      1  0.5043710000000  0.5327630000000  0.5381360000000 1.0
C      1  0.4765880000000  0.5387220000000  0.5477780000000 1.0
C      1  0.4522540000000  0.5347430000000  0.5182410000000 1.0
C      1  0.4661160000000  0.5244950000000  0.4938860000000 1.0
C      1  0.4720810000000  0.4903560000000  0.5812490000000 1.0
C      1  0.4216590000000  0.4909810000000  0.5337260000000 1.0
C      1  0.4181980000000  0.4898810000000  0.4822830000000 1.0
C      1  0.4342820000000  0.4883270000000  0.4357450000000 1.0
C      1  0.5038360000000  0.4904290000000  0.4062100000000 1.0
C      1  0.5515970000000  0.4849930000000  0.4142810000000 1.0
C      1  0.5924460000000  0.4881550000000  0.4975180000000 1.0
C      1  0.5813140000000  0.4886350000000  0.5453940000000 1.0
C      1  0.5203540000000  0.4905910000000  0.5893560000000 1.0
C      1  0.5440080000000  0.4309160000000  0.5181810000000 1.0
C      1  0.5319450000000  0.4342440000000  0.5446060000000 1.0
C      1  0.4889400000000  0.4257330000000  0.5503040000000 1.0
C      1  0.4595750000000  0.4265810000000  0.5445560000000 1.0
C      1  0.4516300000000  0.4224930000000  0.5167040000000 1.0
C      1  0.4492870000000  0.4239130000000  0.4621740000000 1.0
C      1  0.4726580000000  0.4210670000000  0.4429930000000 1.0
C      1  0.5388070000000  0.4182760000000  0.4491560000000 1.0
C      1  0.5585110000000  0.4259450000000  0.4702100000000 1.0
C      1  0.4614730000000  0.5823240000000  0.4989960000000 1.0
C      1  0.4760820000000  0.5725880000000  0.4728570000000 1.0
C      1  0.5010690000000  0.5818670000000  0.4557030000000 1.0
C      1  0.5304400000000  0.5723770000000  0.4617470000000 1.0
C      1  0.5507360000000  0.5824560000000  0.4827800000000 1.0
C      1  0.5459970000000  0.5786380000000  0.5112970000000 1.0
C      1  0.5128830000000  0.5804330000000  0.5453540000000 1.0
C      1  0.4842960000000  0.5820070000000  0.5487660000000 1.0
C      1  0.4645130000000  0.5754920000000  0.5277250000000 1.0
C      1  0.5494480000000  0.5323230000000  0.5802840000000 1.0
C      1  0.4911870000000  0.5314640000000  0.6001140000000 1.0
C      1  0.4307660000000  0.5321340000000  0.5692250000000 1.0
C      1  0.4203980000000  0.5343640000000  0.5130710000000 1.0
C      1  0.4195540000000  0.5313380000000  0.4514860000000 1.0
C      1  0.4755950000000  0.5342300000000  0.4054890000000 1.0
C      1  0.5370280000000  0.5302790000000  0.4068110000000 1.0
C      1  0.5887420000000  0.5269610000000  0.4622390000000 1.0
C      1  0.5948210000000  0.5315800000000  0.5229800000000 1.0
END
