TITL C-3578206-1180-520 -3.24080800063123e-07 125000 -127.607994471321 0 0 22 (D2d) n - 1
REM
REM in /home/bkarasulu/work/CARBON/AIRSS/Generating-Clusters/EDIP-Nigel-Params/with-SteepDescent/Higher-Symm/SD-CG/HFTN-CG
REM
REM
REM
REM
REM
REM ./C.cell (12c818d87b63d06a65506943cc24bca4)
REM
REM compiler GCC version 9.2.1 20190827 (Red Hat 9.2.1-1)
REM options -cpp -mtune=generic -march=x86-64 -g -O0 -fpre-include=/usr/include/finclude/math-vector-fortran.h
REM seed -1334091659 660550195 -393251292 -881349412 -1079484268 -1474661043 -1030742085 -563610137 -692218446 -1452828587 1797532619 1113110268 583372940 2017496491 607042695 1746811594 -213611779 763829424 -1970126575 -834993360 -557968139 -459969903 -956898854 -1011433782 -984630129 -174004067 914859136 2019576276 2088198130 639710700 528448868 -396538998 -1348739528
REM
CELL 1.54180   50.00000   50.00000   50.00000   90.00000   90.00000   90.00000
LATT -1
SFAC C  
C      1  0.5193770000000  0.5169810000000  0.5449500000000 1.0
C      1  0.5193790000000  0.5439990000000  0.5179290000000 1.0
C      1  0.5384730000000  0.5212160000000  0.5221680000000 1.0
C      1  0.4769440000000  0.5169770000000  0.4534110000000 1.0
C      1  0.4769380000000  0.4794840000000  0.5449500000000 1.0
C      1  0.5193820000000  0.4794790000000  0.4534150000000 1.0
C      1  0.4769430000000  0.5439980000000  0.4804290000000 1.0
C      1  0.4769390000000  0.4524630000000  0.5179310000000 1.0
C      1  0.5193800000000  0.4524600000000  0.4804370000000 1.0
C      1  0.4578480000000  0.5212140000000  0.4761930000000 1.0
C      1  0.4578440000000  0.4752470000000  0.5221650000000 1.0
C      1  0.5384760000000  0.4752430000000  0.4762010000000 1.0
C      1  0.4981580000000  0.4982320000000  0.5339130000000 1.0
C      1  0.4981630000000  0.4982280000000  0.4644500000000 1.0
C      1  0.4981600000000  0.4634980000000  0.4991830000000 1.0
C      1  0.4981610000000  0.5329620000000  0.4991800000000 1.0
C      1  0.4637810000000  0.4982310000000  0.4991790000000 1.0
C      1  0.5325390000000  0.4982300000000  0.4991840000000 1.0
C      1  0.5145220000000  0.4812680000000  0.5161470000000 1.0
C      1  0.4817970000000  0.5151950000000  0.5161430000000 1.0
C      1  0.5145240000000  0.5151920000000  0.4822190000000 1.0
C      1  0.4817980000000  0.4812660000000  0.4822180000000 1.0
END
