TITL C-3578194-7807-303 -0.0611026033655274 125000 -215.986047521891 0 0 38 (C1) n - 1
REM
REM in /home/bkarasulu/work/CARBON/AIRSS/Generating-Clusters/EDIP-Nigel-Params/with-SteepDescent/Higher-Symm/SD-CG/HFTN-CG
REM
REM
REM
REM
REM
REM ./C.cell (12c818d87b63d06a65506943cc24bca4)
REM
REM compiler GCC version 9.2.1 20190827 (Red Hat 9.2.1-1)
REM options -cpp -mtune=generic -march=x86-64 -g -O0 -fpre-include=/usr/include/finclude/math-vector-fortran.h
REM seed 1870030732 -829774805 290194315 1305414055 454375537 145942312 1340348792 1169135015 528253807 -1281001895 -802084506 1049403642 1433569393 -1275509876 1149714123 -811579501 667749446 -835868286 -184394188 -1515656090 -577089817 243468898 346082268 -1016380442 1823718246 637417987 -175211105 816493359 283514223 -831123102 -122717889 1062833305 -642884471
REM
CELL 1.54180   50.00000   50.00000   50.00000   90.00000   90.00000   90.00000
LATT -1
SFAC C  
C      1  0.5545460000000  0.4809390000000  0.4726010000000 1.0
C      1  0.4426800000000  0.4884390000000  0.4745310000000 1.0
C      1  0.4903620000000  0.4689370000000  0.5523430000000 1.0
C      1  0.4960720000000  0.5158420000000  0.5386120000000 1.0
C      1  0.4517180000000  0.5058580000000  0.4559210000000 1.0
C      1  0.5460030000000  0.5036670000000  0.4602310000000 1.0
C      1  0.5346980000000  0.4736920000000  0.4910850000000 1.0
C      1  0.4543050000000  0.4954720000000  0.4990480000000 1.0
C      1  0.5245200000000  0.5163880000000  0.4477770000000 1.0
C      1  0.4746960000000  0.5166480000000  0.4447830000000 1.0
C      1  0.4778430000000  0.5150270000000  0.4172770000000 1.0
C      1  0.5239910000000  0.5155720000000  0.4200480000000 1.0
C      1  0.5284990000000  0.4957100000000  0.5087300000000 1.0
C      1  0.4801070000000  0.4830800000000  0.5059330000000 1.0
C      1  0.4776510000000  0.5653690000000  0.5237330000000 1.0
C      1  0.5225040000000  0.4237450000000  0.5468640000000 1.0
C      1  0.4551770000000  0.5233000000000  0.5023650000000 1.0
C      1  0.5326300000000  0.4479720000000  0.5010210000000 1.0
C      1  0.5451130000000  0.5161420000000  0.5046260000000 1.0
C      1  0.4812560000000  0.4645410000000  0.5265220000000 1.0
C      1  0.5052110000000  0.5627230000000  0.5249350000000 1.0
C      1  0.4972220000000  0.4206440000000  0.5578280000000 1.0
C      1  0.5009950000000  0.5433670000000  0.5444190000000 1.0
C      1  0.4995020000000  0.4465930000000  0.5673650000000 1.0
C      1  0.4616860000000  0.5484220000000  0.5092260000000 1.0
C      1  0.5275730000000  0.4311340000000  0.5209830000000 1.0
C      1  0.4967760000000  0.4960710000000  0.5595880000000 1.0
C      1  0.5032480000000  0.5099020000000  0.6111990000000 1.0
C      1  0.4991750000000  0.5035970000000  0.5858590000000 1.0
C      1  0.4986450000000  0.5176930000000  0.4611020000000 1.0
C      1  0.5018120000000  0.5155970000000  0.4037430000000 1.0
C      1  0.5050880000000  0.5093910000000  0.3504630000000 1.0
C      1  0.5104100000000  0.5227580000000  0.6610250000000 1.0
C      1  0.4999950000000  0.5049850000000  0.5107380000000 1.0
C      1  0.5034860000000  0.5113120000000  0.3767620000000 1.0
C      1  0.5066450000000  0.5165610000000  0.6365030000000 1.0
C      1  0.5066480000000  0.5063230000000  0.3251250000000 1.0
C      1  0.4965520000000  0.5236880000000  0.4887690000000 1.0
END
