TITL C-3577086-586-202 -2.70553588148433e-06 125000 -1169.31730995917 0 0 189 (C1) n - 1
REM
REM in /home/bkarasulu/work/CARBON/AIRSS/Generating-Clusters/EDIP-Nigel-Params/with-SteepDescent/Higher-Symm/SD-CG/HFTN-CG
REM
REM
REM
REM
REM
REM ./C.cell (12c818d87b63d06a65506943cc24bca4)
REM
REM compiler GCC version 9.2.1 20190827 (Red Hat 9.2.1-1)
REM options -cpp -mtune=generic -march=x86-64 -g -O0 -fpre-include=/usr/include/finclude/math-vector-fortran.h
REM seed 1726664016 -1066574894 -1341253282 -563125374 -972549066 -938361995 -1761654443 -1781305402 1235032774 -786795053 -589732044 -1496192745 1845760035 105818566 -1172806321 -532452455 -1009436031 1388486585 1488126545 1039855121 -1323658602 1301982691 1818262250 -239604566 -1846901499 156942509 372798990 -362434892 2040965098 -142690727 1967901225 -120989375 605876419
REM
CELL 1.54180   50.00000   50.00000   50.00000   90.00000   90.00000   90.00000
LATT -1
SFAC C  
C      1  0.5678470000000  0.4914000000000  0.4963040000000 1.0
C      1  0.5411020000000  0.5619260000000  0.4973610000000 1.0
C      1  0.5146240000000  0.5804070000000  0.4943960000000 1.0
C      1  0.4816550000000  0.5736280000000  0.4839100000000 1.0
C      1  0.4573300000000  0.5592960000000  0.4988050000000 1.0
C      1  0.4396450000000  0.5001330000000  0.4902980000000 1.0
C      1  0.4350840000000  0.4681680000000  0.4921590000000 1.0
C      1  0.4616080000000  0.4540130000000  0.4864290000000 1.0
C      1  0.5102790000000  0.4208550000000  0.5011070000000 1.0
C      1  0.5450340000000  0.4460360000000  0.4978180000000 1.0
C      1  0.5662250000000  0.4635470000000  0.4837500000000 1.0
C      1  0.6123570000000  0.4739060000000  0.4404550000000 1.0
C      1  0.5749800000000  0.5205110000000  0.4233270000000 1.0
C      1  0.5544870000000  0.5839420000000  0.4252600000000 1.0
C      1  0.5042710000000  0.6260720000000  0.4353780000000 1.0
C      1  0.4400250000000  0.6194680000000  0.4409060000000 1.0
C      1  0.4034350000000  0.5644740000000  0.4359990000000 1.0
C      1  0.3840470000000  0.5071210000000  0.4375690000000 1.0
C      1  0.4292140000000  0.4629770000000  0.4260470000000 1.0
C      1  0.4708890000000  0.4042410000000  0.4332700000000 1.0
C      1  0.5345400000000  0.3837070000000  0.4376920000000 1.0
C      1  0.5948950000000  0.4029380000000  0.4466060000000 1.0
C      1  0.5621890000000  0.5687120000000  0.4738660000000 1.0
C      1  0.5241900000000  0.6052820000000  0.4779080000000 1.0
C      1  0.4695570000000  0.6051430000000  0.4849140000000 1.0
C      1  0.4290500000000  0.5727390000000  0.4782850000000 1.0
C      1  0.4093780000000  0.5147750000000  0.4868930000000 1.0
C      1  0.4117270000000  0.4627650000000  0.4723620000000 1.0
C      1  0.4522170000000  0.4230120000000  0.4776980000000 1.0
C      1  0.5087540000000  0.3964660000000  0.4794020000000 1.0
C      1  0.5701570000000  0.3933960000000  0.4917550000000 1.0
C      1  0.5965170000000  0.4543210000000  0.4842860000000 1.0
C      1  0.5902980000000  0.5091010000000  0.4813620000000 1.0
C      1  0.6043960000000  0.4990960000000  0.4335320000000 1.0
C      1  0.5726960000000  0.5498310000000  0.4254600000000 1.0
C      1  0.5362420000000  0.6049910000000  0.4278350000000 1.0
C      1  0.4770730000000  0.6308190000000  0.4401130000000 1.0
C      1  0.4216430000000  0.5990520000000  0.4359570000000 1.0
C      1  0.3886860000000  0.5437840000000  0.4481480000000 1.0
C      1  0.3958870000000  0.4830630000000  0.4288530000000 1.0
C      1  0.4298230000000  0.4343980000000  0.4379200000000 1.0
C      1  0.4963550000000  0.3948550000000  0.4315500000000 1.0
C      1  0.5618710000000  0.3825040000000  0.4432630000000 1.0
C      1  0.6073080000000  0.4271720000000  0.4452750000000 1.0
C      1  0.4613710000000  0.5179820000000  0.3582600000000 1.0
C      1  0.4514100000000  0.4966430000000  0.3735750000000 1.0
C      1  0.4585700000000  0.4706710000000  0.3658480000000 1.0
C      1  0.4801920000000  0.4603140000000  0.3800780000000 1.0
C      1  0.5044120000000  0.4531930000000  0.3685850000000 1.0
C      1  0.5292590000000  0.4498250000000  0.3813310000000 1.0
C      1  0.5496910000000  0.4708120000000  0.3774690000000 1.0
C      1  0.5425520000000  0.4921020000000  0.3605720000000 1.0
C      1  0.5305900000000  0.5156860000000  0.3686960000000 1.0
C      1  0.5090740000000  0.5269010000000  0.3549430000000 1.0
C      1  0.4839370000000  0.5328540000000  0.3658470000000 1.0
C      1  0.4522080000000  0.5019260000000  0.4023510000000 1.0
C      1  0.4568020000000  0.4781860000000  0.4207020000000 1.0
C      1  0.4786860000000  0.4613290000000  0.4086560000000 1.0
C      1  0.5031510000000  0.4577160000000  0.4236940000000 1.0
C      1  0.5280200000000  0.4505620000000  0.4106160000000 1.0
C      1  0.5537760000000  0.4778090000000  0.4056570000000 1.0
C      1  0.5483820000000  0.5056240000000  0.4158870000000 1.0
C      1  0.5314660000000  0.5216410000000  0.3967180000000 1.0
C      1  0.5106390000000  0.5383740000000  0.4051690000000 1.0
C      1  0.4846040000000  0.5386780000000  0.3944110000000 1.0
C      1  0.4631210000000  0.5271500000000  0.4084400000000 1.0
C      1  0.5218590000000  0.4887850000000  0.5189600000000 1.0
C      1  0.5419490000000  0.5061060000000  0.5067550000000 1.0
C      1  0.5309710000000  0.5336590000000  0.5050430000000 1.0
C      1  0.5126490000000  0.5391660000000  0.5260200000000 1.0
C      1  0.4862620000000  0.5463620000000  0.5357760000000 1.0
C      1  0.4668610000000  0.5349820000000  0.5152230000000 1.0
C      1  0.4564990000000  0.5072380000000  0.5145380000000 1.0
C      1  0.4717100000000  0.4843170000000  0.5299720000000 1.0
C      1  0.4778950000000  0.4601680000000  0.5117160000000 1.0
C      1  0.5043030000000  0.4481500000000  0.5143620000000 1.0
C      1  0.5278830000000  0.4616670000000  0.5278720000000 1.0
C      1  0.5193440000000  0.5240150000000  0.4508480000000 1.0
C      1  0.5046160000000  0.5461970000000  0.4515530000000 1.0
C      1  0.4804600000000  0.5561040000000  0.4598140000000 1.0
C      1  0.4610630000000  0.5360170000000  0.4609780000000 1.0
C      1  0.4532260000000  0.5090840000000  0.4641080000000 1.0
C      1  0.4670630000000  0.4884210000000  0.4478470000000 1.0
C      1  0.4781420000000  0.4672770000000  0.4649070000000 1.0
C      1  0.5009290000000  0.4529560000000  0.4525400000000 1.0
C      1  0.5264980000000  0.4560260000000  0.4665600000000 1.0
C      1  0.5366470000000  0.4794880000000  0.4558230000000 1.0
C      1  0.5333340000000  0.5026490000000  0.4409790000000 1.0
C      1  0.4819640000000  0.5865280000000  0.5646910000000 1.0
C      1  0.4393090000000  0.5602450000000  0.5672830000000 1.0
C      1  0.4149930000000  0.5170540000000  0.5706490000000 1.0
C      1  0.4180380000000  0.4690530000000  0.5663390000000 1.0
C      1  0.4478030000000  0.4295240000000  0.5608610000000 1.0
C      1  0.4943110000000  0.4110370000000  0.5643440000000 1.0
C      1  0.5428950000000  0.4191810000000  0.5670900000000 1.0
C      1  0.5765320000000  0.4578410000000  0.5642700000000 1.0
C      1  0.5837680000000  0.5069390000000  0.5647400000000 1.0
C      1  0.5744480000000  0.5544150000000  0.5671620000000 1.0
C      1  0.5306400000000  0.5784720000000  0.5668930000000 1.0
C      1  0.5431960000000  0.4869330000000  0.6074290000000 1.0
C      1  0.5365320000000  0.5099200000000  0.6215810000000 1.0
C      1  0.5192690000000  0.5296440000000  0.6272220000000 1.0
C      1  0.4983380000000  0.5441070000000  0.6162630000000 1.0
C      1  0.4730610000000  0.5363630000000  0.6240610000000 1.0
C      1  0.4596890000000  0.5133050000000  0.6249670000000 1.0
C      1  0.4582110000000  0.4901920000000  0.6100660000000 1.0
C      1  0.4678580000000  0.4666270000000  0.6205130000000 1.0
C      1  0.4910780000000  0.4541020000000  0.6240220000000 1.0
C      1  0.5142970000000  0.4532410000000  0.6092240000000 1.0
C      1  0.5383500000000  0.4624260000000  0.6195250000000 1.0
C      1  0.4832040000000  0.5775410000000  0.5358880000000 1.0
C      1  0.4310390000000  0.5653180000000  0.5398200000000 1.0
C      1  0.4094070000000  0.5184630000000  0.5427850000000 1.0
C      1  0.4129730000000  0.4696460000000  0.5380240000000 1.0
C      1  0.4495290000000  0.4331810000000  0.5317970000000 1.0
C      1  0.4938520000000  0.4020030000000  0.5369870000000 1.0
C      1  0.5408030000000  0.4208440000000  0.5387360000000 1.0
C      1  0.5755030000000  0.4578060000000  0.5353790000000 1.0
C      1  0.5905240000000  0.5074260000000  0.5369530000000 1.0
C      1  0.5715880000000  0.5533520000000  0.5384170000000 1.0
C      1  0.5329740000000  0.5847660000000  0.5387140000000 1.0
C      1  0.5874470000000  0.5593670000000  0.4814470000000 1.0
C      1  0.5504740000000  0.6140500000000  0.4839730000000 1.0
C      1  0.4880780000000  0.6245160000000  0.4953670000000 1.0
C      1  0.4228440000000  0.5989230000000  0.4900400000000 1.0
C      1  0.4080930000000  0.5411920000000  0.5014090000000 1.0
C      1  0.3876160000000  0.4705910000000  0.4864010000000 1.0
C      1  0.4236210000000  0.4189410000000  0.4824020000000 1.0
C      1  0.4836210000000  0.3847810000000  0.4817570000000 1.0
C      1  0.5477150000000  0.3790800000000  0.4999710000000 1.0
C      1  0.6004810000000  0.4287460000000  0.4966390000000 1.0
C      1  0.6166800000000  0.4973250000000  0.4866580000000 1.0
C      1  0.4511560000000  0.4937630000000  0.5813220000000 1.0
C      1  0.4616400000000  0.4715160000000  0.5606710000000 1.0
C      1  0.4833890000000  0.4534190000000  0.5718490000000 1.0
C      1  0.5116460000000  0.4480170000000  0.5801640000000 1.0
C      1  0.5332430000000  0.4619160000000  0.5621650000000 1.0
C      1  0.5464860000000  0.4879480000000  0.5772930000000 1.0
C      1  0.5302020000000  0.5119840000000  0.5685780000000 1.0
C      1  0.5300770000000  0.5370240000000  0.5824940000000 1.0
C      1  0.5037250000000  0.5497650000000  0.5875050000000 1.0
C      1  0.4796940000000  0.5422110000000  0.5670970000000 1.0
C      1  0.4591700000000  0.5211300000000  0.5732210000000 1.0
C      1  0.5726480000000  0.3988790000000  0.4633590000000 1.0
C      1  0.6082440000000  0.4521390000000  0.4567270000000 1.0
C      1  0.5857580000000  0.5112720000000  0.4515210000000 1.0
C      1  0.5559660000000  0.5630610000000  0.4445910000000 1.0
C      1  0.5175760000000  0.6052010000000  0.4486310000000 1.0
C      1  0.4626030000000  0.6132110000000  0.4566580000000 1.0
C      1  0.4272000000000  0.5740810000000  0.4480210000000 1.0
C      1  0.4008950000000  0.5196270000000  0.4577040000000 1.0
C      1  0.4164160000000  0.4790430000000  0.4480060000000 1.0
C      1  0.4550360000000  0.4220170000000  0.4475340000000 1.0
C      1  0.5159290000000  0.3997560000000  0.4504140000000 1.0
C      1  0.3922950000000  0.4947920000000  0.5001670000000 1.0
C      1  0.4122820000000  0.4348200000000  0.4624160000000 1.0
C      1  0.4655310000000  0.4023250000000  0.4940340000000 1.0
C      1  0.5222650000000  0.3749530000000  0.4913280000000 1.0
C      1  0.5811710000000  0.4138740000000  0.5095770000000 1.0
C      1  0.6100260000000  0.4749750000000  0.5019850000000 1.0
C      1  0.5889510000000  0.5349560000000  0.4952980000000 1.0
C      1  0.5700930000000  0.5955880000000  0.4774250000000 1.0
C      1  0.5146840000000  0.6287470000000  0.4906310000000 1.0
C      1  0.4465730000000  0.6037030000000  0.5046830000000 1.0
C      1  0.4032770000000  0.5652600000000  0.4881330000000 1.0
C      1  0.5541570000000  0.5717400000000  0.5233500000000 1.0
C      1  0.5085730000000  0.5889170000000  0.5227100000000 1.0
C      1  0.4527390000000  0.5791640000000  0.5217330000000 1.0
C      1  0.4133810000000  0.5435790000000  0.5293150000000 1.0
C      1  0.4004360000000  0.4941860000000  0.5284780000000 1.0
C      1  0.4304060000000  0.4545140000000  0.5200170000000 1.0
C      1  0.4741730000000  0.4169730000000  0.5181500000000 1.0
C      1  0.5210680000000  0.4043740000000  0.5243520000000 1.0
C      1  0.5618350000000  0.4336960000000  0.5216650000000 1.0
C      1  0.5865980000000  0.4824290000000  0.5203830000000 1.0
C      1  0.5871100000000  0.5334970000000  0.5240890000000 1.0
C      1  0.5598740000000  0.4392050000000  0.5785850000000 1.0
C      1  0.5844860000000  0.4818970000000  0.5777180000000 1.0
C      1  0.5858420000000  0.5313300000000  0.5784730000000 1.0
C      1  0.5532320000000  0.5675070000000  0.5813810000000 1.0
C      1  0.5065730000000  0.5867090000000  0.5800410000000 1.0
C      1  0.4611010000000  0.5739560000000  0.5790410000000 1.0
C      1  0.4268790000000  0.5397900000000  0.5832680000000 1.0
C      1  0.4127790000000  0.4916220000000  0.5830750000000 1.0
C      1  0.4342380000000  0.4487210000000  0.5763420000000 1.0
C      1  0.4692420000000  0.4177170000000  0.5760400000000 1.0
C      1  0.5187180000000  0.4102420000000  0.5798360000000 1.0
C      1  0.4981590000000  0.4982940000000  0.5343120000000 1.0
C      1  0.5047360000000  0.5049240000000  0.5604930000000 1.0
END
