TITL C-3578201-9217-40 -7.5430702663651e-07 125000 -277.810349038987 0 0 48 (D6h) n - 1
REM
REM in /home/bkarasulu/work/CARBON/AIRSS/Generating-Clusters/EDIP-Nigel-Params/with-SteepDescent/Higher-Symm/SD-CG/HFTN-CG
REM
REM
REM
REM
REM
REM ./C.cell (12c818d87b63d06a65506943cc24bca4)
REM
REM compiler GCC version 9.2.1 20190827 (Red Hat 9.2.1-1)
REM options -cpp -mtune=generic -march=x86-64 -g -O0 -fpre-include=/usr/include/finclude/math-vector-fortran.h
REM seed -511107793 -941776186 -497023206 -1620794398 389943677 -2145876844 -1825415251 -692843199 -1835108676 -414048953 284964759 -1357021280 607117808 -1861599925 -1235807114 697956997 718404645 -1220118953 -141463388 2132695093 -1629750513 -1939727911 -1419416364 -32227794 1962979130 793072364 621369820 -1796825803 1034499406 -1713348034 -2138230474 2010024882 187729955
REM
CELL 1.54180   50.00000   50.00000   50.00000   90.00000   90.00000   90.00000
LATT -1
SFAC C  
C      1  0.5493150000000  0.5070140000000  0.5527230000000 1.0
C      1  0.5185830000000  0.5462150000000  0.5527230000000 1.0
C      1  0.4692680000000  0.5392010000000  0.5527230000000 1.0
C      1  0.4506850000000  0.4929860000000  0.5527230000000 1.0
C      1  0.4814170000000  0.4537850000000  0.5527230000000 1.0
C      1  0.5307320000000  0.4607990000000  0.5527230000000 1.0
C      1  0.5493150000000  0.5070140000000  0.4472770000000 1.0
C      1  0.5185830000000  0.5462150000000  0.4472770000000 1.0
C      1  0.4692680000000  0.5392010000000  0.4472770000000 1.0
C      1  0.4506850000000  0.4929860000000  0.4472770000000 1.0
C      1  0.4814170000000  0.4537850000000  0.4472770000000 1.0
C      1  0.5307320000000  0.4607990000000  0.4472770000000 1.0
C      1  0.4882110000000  0.4706800000000  0.5297570000000 1.0
C      1  0.5194980000000  0.4751300000000  0.5297570000000 1.0
C      1  0.5312870000000  0.5044500000000  0.5297570000000 1.0
C      1  0.5117900000000  0.5293200000000  0.5297570000000 1.0
C      1  0.4805030000000  0.5248700000000  0.5297580000000 1.0
C      1  0.4687130000000  0.4955500000000  0.5297580000000 1.0
C      1  0.4882100000000  0.4706800000000  0.4702430000000 1.0
C      1  0.5194970000000  0.4751300000000  0.4702420000000 1.0
C      1  0.5312870000000  0.5044500000000  0.4702420000000 1.0
C      1  0.5117890000000  0.5293200000000  0.4702430000000 1.0
C      1  0.4805020000000  0.5248700000000  0.4702430000000 1.0
C      1  0.4687130000000  0.4955500000000  0.4702430000000 1.0
C      1  0.4792480000000  0.4483890000000  0.5139450000000 1.0
C      1  0.5343200000000  0.4562220000000  0.5139450000000 1.0
C      1  0.5550730000000  0.5078330000000  0.5139450000000 1.0
C      1  0.5207520000000  0.5516110000000  0.5139450000000 1.0
C      1  0.4656800000000  0.5437780000000  0.5139460000000 1.0
C      1  0.4449270000000  0.4921670000000  0.5139460000000 1.0
C      1  0.4792480000000  0.4483890000000  0.4860550000000 1.0
C      1  0.5343200000000  0.4562220000000  0.4860540000000 1.0
C      1  0.5550730000000  0.5078330000000  0.4860540000000 1.0
C      1  0.5207520000000  0.5516110000000  0.4860550000000 1.0
C      1  0.4656800000000  0.5437780000000  0.4860550000000 1.0
C      1  0.4449270000000  0.4921670000000  0.4860550000000 1.0
C      1  0.4814270000000  0.5236920000000  0.5742470000000 1.0
C      1  0.4701960000000  0.4957610000000  0.5742470000000 1.0
C      1  0.4887690000000  0.4720690000000  0.5742470000000 1.0
C      1  0.5185740000000  0.4763080000000  0.5742470000000 1.0
C      1  0.5298050000000  0.5042390000000  0.5742470000000 1.0
C      1  0.5112310000000  0.5279310000000  0.5742470000000 1.0
C      1  0.4814260000000  0.5236920000000  0.4257530000000 1.0
C      1  0.4701950000000  0.4957610000000  0.4257530000000 1.0
C      1  0.4887690000000  0.4720690000000  0.4257530000000 1.0
C      1  0.5185730000000  0.4763080000000  0.4257530000000 1.0
C      1  0.5298040000000  0.5042390000000  0.4257530000000 1.0
C      1  0.5112310000000  0.5279310000000  0.4257530000000 1.0
END
