TITL C-3578202-4305-561 -1.07505813386061e-06 125000 -819.725057001762 0 0 132 (C1) n - 1
REM
REM in /home/bkarasulu/work/CARBON/AIRSS/Generating-Clusters/EDIP-Nigel-Params/with-SteepDescent/Higher-Symm/SD-CG/HFTN-CG
REM
REM
REM
REM
REM
REM ./C.cell (12c818d87b63d06a65506943cc24bca4)
REM
REM compiler GCC version 9.2.1 20190827 (Red Hat 9.2.1-1)
REM options -cpp -mtune=generic -march=x86-64 -g -O0 -fpre-include=/usr/include/finclude/math-vector-fortran.h
REM seed -1589677067 -1677824692 1724444215 1120835501 157769042 -831378254 -320930462 -1389675095 1846585808 1609081540 751034466 -1122006482 1528781152 -508568917 375220366 952377459 1514661468 1554249339 344890508 -2033774171 -386013629 484675784 -1032159030 6510469 -1239731061 -699460232 640587990 -1392917341 -322880266 939747267 -57870162 1154322529 775588968
REM
CELL 1.54180   50.00000   50.00000   50.00000   90.00000   90.00000   90.00000
LATT -1
SFAC C  
C      1  0.5222810000000  0.6033820000000  0.4871620000000 1.0
C      1  0.5115030000000  0.3683380000000  0.5043790000000 1.0
C      1  0.4757670000000  0.6179450000000  0.4735550000000 1.0
C      1  0.4932410000000  0.3776010000000  0.5239710000000 1.0
C      1  0.5109480000000  0.3885340000000  0.4711870000000 1.0
C      1  0.5034810000000  0.6031170000000  0.5101330000000 1.0
C      1  0.4914670000000  0.3738740000000  0.4854180000000 1.0
C      1  0.4778460000000  0.6131290000000  0.5013290000000 1.0
C      1  0.4298610000000  0.5586990000000  0.5246030000000 1.0
C      1  0.4312000000000  0.4441860000000  0.4735960000000 1.0
C      1  0.5745650000000  0.5551890000000  0.5390900000000 1.0
C      1  0.5652710000000  0.4436470000000  0.4635070000000 1.0
C      1  0.4350250000000  0.4431820000000  0.5407200000000 1.0
C      1  0.4283390000000  0.5551210000000  0.4648020000000 1.0
C      1  0.5704430000000  0.4413830000000  0.5282040000000 1.0
C      1  0.5762230000000  0.5548270000000  0.4705600000000 1.0
C      1  0.5287850000000  0.5200120000000  0.5795930000000 1.0
C      1  0.5478010000000  0.4763200000000  0.4396080000000 1.0
C      1  0.4203710000000  0.5272990000000  0.5582330000000 1.0
C      1  0.4563980000000  0.4742780000000  0.4365060000000 1.0
C      1  0.5524960000000  0.4808710000000  0.5647240000000 1.0
C      1  0.5346340000000  0.5169120000000  0.4253400000000 1.0
C      1  0.4466000000000  0.4875100000000  0.5627770000000 1.0
C      1  0.4723350000000  0.5290240000000  0.4254810000000 1.0
C      1  0.4814740000000  0.4479120000000  0.4854940000000 1.0
C      1  0.4823280000000  0.5522100000000  0.5168430000000 1.0
C      1  0.5175280000000  0.4479630000000  0.4882710000000 1.0
C      1  0.5171860000000  0.5525200000000  0.5194210000000 1.0
C      1  0.4839250000000  0.5521610000000  0.4854490000000 1.0
C      1  0.4835000000000  0.4477630000000  0.5173120000000 1.0
C      1  0.5161920000000  0.5523010000000  0.4875750000000 1.0
C      1  0.5196520000000  0.4460380000000  0.5198990000000 1.0
C      1  0.5389100000000  0.4157720000000  0.5582560000000 1.0
C      1  0.5290720000000  0.5749430000000  0.4451610000000 1.0
C      1  0.4841990000000  0.4175640000000  0.5531830000000 1.0
C      1  0.4684480000000  0.5801930000000  0.4439310000000 1.0
C      1  0.5242740000000  0.5804180000000  0.5521180000000 1.0
C      1  0.5177660000000  0.4289460000000  0.4422570000000 1.0
C      1  0.4660490000000  0.5780260000000  0.5546660000000 1.0
C      1  0.4629260000000  0.4241230000000  0.4435470000000 1.0
C      1  0.5258870000000  0.5460670000000  0.5882520000000 1.0
C      1  0.5093400000000  0.4762260000000  0.4122760000000 1.0
C      1  0.4654810000000  0.5336780000000  0.5798000000000 1.0
C      1  0.4879310000000  0.4951170000000  0.4029240000000 1.0
C      1  0.5205160000000  0.4696860000000  0.5896270000000 1.0
C      1  0.5200490000000  0.5359090000000  0.4083500000000 1.0
C      1  0.4911220000000  0.4657260000000  0.5761450000000 1.0
C      1  0.4963180000000  0.5225380000000  0.3967310000000 1.0
C      1  0.5504800000000  0.4850930000000  0.4876450000000 1.0
C      1  0.5519530000000  0.5163710000000  0.5195160000000 1.0
C      1  0.4513830000000  0.4850440000000  0.4853260000000 1.0
C      1  0.4506820000000  0.5153120000000  0.5181720000000 1.0
C      1  0.5521230000000  0.5164530000000  0.4865740000000 1.0
C      1  0.5513390000000  0.4845200000000  0.5181380000000 1.0
C      1  0.4511050000000  0.5159250000000  0.4860930000000 1.0
C      1  0.4504920000000  0.4835000000000  0.5176080000000 1.0
C      1  0.5493730000000  0.4074390000000  0.4832870000000 1.0
C      1  0.5610330000000  0.5904960000000  0.5157630000000 1.0
C      1  0.4548810000000  0.4062570000000  0.4885660000000 1.0
C      1  0.4547940000000  0.5975990000000  0.5097600000000 1.0
C      1  0.5485260000000  0.5913200000000  0.4887820000000 1.0
C      1  0.5444150000000  0.4055660000000  0.5108760000000 1.0
C      1  0.4405770000000  0.5929310000000  0.4843100000000 1.0
C      1  0.4485160000000  0.4087890000000  0.5157930000000 1.0
C      1  0.4232750000000  0.4249940000000  0.5199390000000 1.0
C      1  0.4143610000000  0.5805620000000  0.4890550000000 1.0
C      1  0.5845310000000  0.4319390000000  0.5062040000000 1.0
C      1  0.5934810000000  0.5682000000000  0.4881310000000 1.0
C      1  0.4084160000000  0.5734910000000  0.5150510000000 1.0
C      1  0.4160380000000  0.4374050000000  0.4958830000000 1.0
C      1  0.5879880000000  0.5784310000000  0.5134900000000 1.0
C      1  0.5762310000000  0.4221700000000  0.4812260000000 1.0
C      1  0.5062600000000  0.5998640000000  0.5393680000000 1.0
C      1  0.5025940000000  0.4051320000000  0.4493440000000 1.0
C      1  0.4821370000000  0.6011510000000  0.5537670000000 1.0
C      1  0.4777820000000  0.4010790000000  0.4373110000000 1.0
C      1  0.5253930000000  0.3909920000000  0.5581240000000 1.0
C      1  0.5126470000000  0.5941330000000  0.4606780000000 1.0
C      1  0.5016080000000  0.3960100000000  0.5441530000000 1.0
C      1  0.4861720000000  0.6027510000000  0.4522010000000 1.0
C      1  0.5998180000000  0.5130060000000  0.5225970000000 1.0
C      1  0.5972700000000  0.4825560000000  0.4871160000000 1.0
C      1  0.4028710000000  0.5151690000000  0.5148590000000 1.0
C      1  0.4062110000000  0.4842390000000  0.4834930000000 1.0
C      1  0.5969480000000  0.4838270000000  0.5181020000000 1.0
C      1  0.6006560000000  0.5120850000000  0.4843960000000 1.0
C      1  0.4060030000000  0.4848530000000  0.5157120000000 1.0
C      1  0.4029550000000  0.5150530000000  0.4836360000000 1.0
C      1  0.5100130000000  0.5630110000000  0.5725360000000 1.0
C      1  0.5014430000000  0.4519420000000  0.4293400000000 1.0
C      1  0.4808880000000  0.5560840000000  0.5678590000000 1.0
C      1  0.4715000000000  0.4481070000000  0.4287790000000 1.0
C      1  0.5255870000000  0.4341070000000  0.5764320000000 1.0
C      1  0.5115950000000  0.5587050000000  0.4261960000000 1.0
C      1  0.4989350000000  0.4388710000000  0.5668320000000 1.0
C      1  0.4819870000000  0.5591760000000  0.4272450000000 1.0
C      1  0.5731490000000  0.4708140000000  0.5339320000000 1.0
C      1  0.5771750000000  0.5257250000000  0.4739450000000 1.0
C      1  0.4299490000000  0.4733400000000  0.5387150000000 1.0
C      1  0.4274170000000  0.5273090000000  0.4725580000000 1.0
C      1  0.5763060000000  0.5268200000000  0.5324150000000 1.0
C      1  0.5716760000000  0.4729950000000  0.4697630000000 1.0
C      1  0.4254900000000  0.5295940000000  0.5296700000000 1.0
C      1  0.4310240000000  0.4727580000000  0.4662770000000 1.0
C      1  0.4654130000000  0.4285100000000  0.5329950000000 1.0
C      1  0.4539320000000  0.5706730000000  0.4686390000000 1.0
C      1  0.5436260000000  0.4271600000000  0.5300730000000 1.0
C      1  0.5479510000000  0.5671100000000  0.4703660000000 1.0
C      1  0.4575640000000  0.5718010000000  0.5264830000000 1.0
C      1  0.4575100000000  0.4301140000000  0.4726200000000 1.0
C      1  0.5483230000000  0.5708810000000  0.5343080000000 1.0
C      1  0.5350440000000  0.4318960000000  0.4678930000000 1.0
C      1  0.5279510000000  0.5278520000000  0.4749820000000 1.0
C      1  0.5255860000000  0.4740090000000  0.5262060000000 1.0
C      1  0.4763080000000  0.5259750000000  0.4756940000000 1.0
C      1  0.4764630000000  0.4745600000000  0.5276330000000 1.0
C      1  0.5239310000000  0.4756260000000  0.4817680000000 1.0
C      1  0.5267930000000  0.5265560000000  0.5300640000000 1.0
C      1  0.4773020000000  0.4759590000000  0.4785080000000 1.0
C      1  0.4764200000000  0.5250220000000  0.5273240000000 1.0
C      1  0.4759660000000  0.4842660000000  0.5564120000000 1.0
C      1  0.4861670000000  0.5150920000000  0.4502130000000 1.0
C      1  0.5237760000000  0.4832790000000  0.5531340000000 1.0
C      1  0.5174050000000  0.5133760000000  0.4509930000000 1.0
C      1  0.4858000000000  0.5140840000000  0.5537820000000 1.0
C      1  0.4821710000000  0.4842250000000  0.4515790000000 1.0
C      1  0.5160500000000  0.5126060000000  0.5540030000000 1.0
C      1  0.5208690000000  0.4823660000000  0.4543400000000 1.0
C      1  0.4437970000000  0.5164660000000  0.5681210000000 1.0
C      1  0.5373800000000  0.4885480000000  0.4142440000000 1.0
C      1  0.4604760000000  0.4949280000000  0.4146810000000 1.0
C      1  0.5456190000000  0.4978190000000  0.5884350000000 1.0
END
