TITL C-3577078-809-416 -7.1701165625706e-07 125000 -611.822639746641 0 0 98 (C1) n - 1
REM
REM in /home/bkarasulu/work/CARBON/AIRSS/Generating-Clusters/EDIP-Nigel-Params/with-SteepDescent/Higher-Symm/SD-CG/HFTN-CG
REM
REM
REM
REM
REM
REM ./C.cell (12c818d87b63d06a65506943cc24bca4)
REM
REM compiler GCC version 9.2.1 20190827 (Red Hat 9.2.1-1)
REM options -cpp -mtune=generic -march=x86-64 -g -O0 -fpre-include=/usr/include/finclude/math-vector-fortran.h
REM seed -298771994 1869203746 -1883320952 -1975766418 1569716692 490028149 1557414877 -1911739660 2139589052 1045925369 2053396841 1058024334 742560016 -2016231284 -682213015 -306659120 2086731151 -37793623 -2096912273 1204799567 -1589704362 87357725 -1526138073 1707531402 1113732302 -356487034 81705499 540676682 560399841 994966264 2093086361 -2029494469 -2033953901
REM
CELL 1.54180   50.00000   50.00000   50.00000   90.00000   90.00000   90.00000
LATT -1
SFAC C  
C      1  0.4538960000000  0.5731900000000  0.4802380000000 1.0
C      1  0.4508910000000  0.5243770000000  0.4367940000000 1.0
C      1  0.4505580000000  0.4676500000000  0.4411510000000 1.0
C      1  0.4495310000000  0.4328180000000  0.4882870000000 1.0
C      1  0.4505200000000  0.4488260000000  0.5427990000000 1.0
C      1  0.4504800000000  0.5030450000000  0.5638090000000 1.0
C      1  0.4569610000000  0.5715200000000  0.5507130000000 1.0
C      1  0.5163490000000  0.5358600000000  0.5738270000000 1.0
C      1  0.5176800000000  0.5805580000000  0.5175930000000 1.0
C      1  0.5148000000000  0.5638580000000  0.4475220000000 1.0
C      1  0.5135060000000  0.4992690000000  0.4233640000000 1.0
C      1  0.5147800000000  0.4343450000000  0.4498430000000 1.0
C      1  0.5137950000000  0.4238400000000  0.5181010000000 1.0
C      1  0.5145030000000  0.4655550000000  0.5747710000000 1.0
C      1  0.5261720000000  0.4667900000000  0.4914930000000 1.0
C      1  0.5330950000000  0.4737120000000  0.5196870000000 1.0
C      1  0.5258390000000  0.4994190000000  0.5337200000000 1.0
C      1  0.5238490000000  0.5308940000000  0.5251860000000 1.0
C      1  0.5238820000000  0.5394510000000  0.4946220000000 1.0
C      1  0.5248260000000  0.5161400000000  0.4707690000000 1.0
C      1  0.5337840000000  0.4872630000000  0.4712660000000 1.0
C      1  0.4966840000000  0.4961940000000  0.5321780000000 1.0
C      1  0.4853790000000  0.5238210000000  0.5242500000000 1.0
C      1  0.4860040000000  0.5351030000000  0.4929080000000 1.0
C      1  0.4950270000000  0.5139480000000  0.4728560000000 1.0
C      1  0.4858490000000  0.4852520000000  0.4681560000000 1.0
C      1  0.4961880000000  0.4668010000000  0.4902370000000 1.0
C      1  0.4862880000000  0.4701400000000  0.5192080000000 1.0
C      1  0.5507830000000  0.5413750000000  0.5396780000000 1.0
C      1  0.5508100000000  0.5572930000000  0.4921580000000 1.0
C      1  0.5512070000000  0.5302740000000  0.4504140000000 1.0
C      1  0.5528580000000  0.4800130000000  0.4476000000000 1.0
C      1  0.5516700000000  0.4450580000000  0.4820240000000 1.0
C      1  0.5527880000000  0.4527570000000  0.5316090000000 1.0
C      1  0.5520040000000  0.4944150000000  0.5581260000000 1.0
C      1  0.5090690000000  0.5729940000000  0.5430560000000 1.0
C      1  0.5066760000000  0.5801000000000  0.4686050000000 1.0
C      1  0.5049470000000  0.5252670000000  0.4177740000000 1.0
C      1  0.5050900000000  0.4522840000000  0.4310620000000 1.0
C      1  0.5052660000000  0.4134890000000  0.4936370000000 1.0
C      1  0.5044590000000  0.4435410000000  0.5611020000000 1.0
C      1  0.5063810000000  0.5126900000000  0.5857390000000 1.0
C      1  0.5561940000000  0.4205950000000  0.4975820000000 1.0
C      1  0.5569130000000  0.4484280000000  0.5603130000000 1.0
C      1  0.5582130000000  0.5144440000000  0.5784620000000 1.0
C      1  0.5586030000000  0.5695420000000  0.5372830000000 1.0
C      1  0.5563510000000  0.5728970000000  0.4680290000000 1.0
C      1  0.5559230000000  0.5200000000000  0.4233720000000 1.0
C      1  0.5572520000000  0.4530000000000  0.4370060000000 1.0
C      1  0.4613450000000  0.5808110000000  0.5261460000000 1.0
C      1  0.4562760000000  0.5684760000000  0.4541690000000 1.0
C      1  0.4591140000000  0.5066070000000  0.4169950000000 1.0
C      1  0.4572490000000  0.4408630000000  0.4428930000000 1.0
C      1  0.4577270000000  0.4180100000000  0.5104660000000 1.0
C      1  0.4584850000000  0.4576150000000  0.5679060000000 1.0
C      1  0.4580050000000  0.5289590000000  0.5708610000000 1.0
C      1  0.4555820000000  0.5201820000000  0.5188590000000 1.0
C      1  0.4474190000000  0.5320750000000  0.4912460000000 1.0
C      1  0.4437350000000  0.5115590000000  0.4639200000000 1.0
C      1  0.4551010000000  0.4822100000000  0.4672990000000 1.0
C      1  0.4430260000000  0.4628340000000  0.4928940000000 1.0
C      1  0.4551850000000  0.4702640000000  0.5218310000000 1.0
C      1  0.4433340000000  0.4976130000000  0.5341720000000 1.0
C      1  0.5709850000000  0.5236700000000  0.5242920000000 1.0
C      1  0.5717360000000  0.5348930000000  0.4964560000000 1.0
C      1  0.5736240000000  0.5203340000000  0.4702460000000 1.0
C      1  0.5776020000000  0.4898080000000  0.4662590000000 1.0
C      1  0.5754840000000  0.4665770000000  0.4876460000000 1.0
C      1  0.5770840000000  0.4693000000000  0.5184060000000 1.0
C      1  0.5735480000000  0.4955040000000  0.5347500000000 1.0
C      1  0.5434850000000  0.4694640000000  0.5716830000000 1.0
C      1  0.5448850000000  0.5366010000000  0.5685290000000 1.0
C      1  0.5462590000000  0.5770530000000  0.5137280000000 1.0
C      1  0.5434390000000  0.5586710000000  0.4483640000000 1.0
C      1  0.5424040000000  0.4958310000000  0.4244380000000 1.0
C      1  0.5436720000000  0.4371210000000  0.4547510000000 1.0
C      1  0.5427600000000  0.4265040000000  0.5210600000000 1.0
C      1  0.4946010000000  0.4787400000000  0.4354390000000 1.0
C      1  0.4960000000000  0.4268320000000  0.4709460000000 1.0
C      1  0.4944230000000  0.4406440000000  0.5342410000000 1.0
C      1  0.4966000000000  0.4884060000000  0.5760050000000 1.0
C      1  0.4989490000000  0.5503450000000  0.5558870000000 1.0
C      1  0.4995570000000  0.5763050000000  0.4953060000000 1.0
C      1  0.4958340000000  0.5468060000000  0.4329260000000 1.0
C      1  0.4674140000000  0.4268540000000  0.5348150000000 1.0
C      1  0.4675950000000  0.4827460000000  0.5756820000000 1.0
C      1  0.4713440000000  0.5521890000000  0.5640690000000 1.0
C      1  0.4714800000000  0.5761930000000  0.5010350000000 1.0
C      1  0.4669290000000  0.5487510000000  0.4380660000000 1.0
C      1  0.4678170000000  0.4807250000000  0.4217690000000 1.0
C      1  0.4669460000000  0.4278140000000  0.4654180000000 1.0
C      1  0.4052680000000  0.5198040000000  0.5157670000000 1.0
C      1  0.4154960000000  0.5308900000000  0.4921730000000 1.0
C      1  0.4140950000000  0.5117070000000  0.4692040000000 1.0
C      1  0.4045210000000  0.4864230000000  0.4760760000000 1.0
C      1  0.4134900000000  0.4675250000000  0.4943900000000 1.0
C      1  0.4047310000000  0.4731820000000  0.5202620000000 1.0
C      1  0.4137850000000  0.4976150000000  0.5302860000000 1.0
END
