TITL C-3578204-4308-377 -5.32832629964376e-06 125000 -312.936921715462 0 0 55 (Cs) n - 1
REM
REM in /home/bkarasulu/work/CARBON/AIRSS/Generating-Clusters/EDIP-Nigel-Params/with-SteepDescent/Higher-Symm/SD-CG/HFTN-CG
REM
REM
REM
REM
REM
REM ./C.cell (12c818d87b63d06a65506943cc24bca4)
REM
REM compiler GCC version 9.2.1 20190827 (Red Hat 9.2.1-1)
REM options -cpp -mtune=generic -march=x86-64 -g -O0 -fpre-include=/usr/include/finclude/math-vector-fortran.h
REM seed 837336232 -2096595504 56408791 1250402788 607820420 -1873906282 1925626554 871827912 -1764942994 -1902414003 -180712713 1871991410 1028561442 1167805610 2109128906 582915195 757993884 366319856 -1269330430 -1413739968 -1887741934 1762131109 -371722170 612824973 997987584 678859329 1841935276 -1291227526 -1790256934 -157568562 -2071517475 -1214186930 -268602192
REM
CELL 1.54180   50.00000   50.00000   50.00000   90.00000   90.00000   90.00000
LATT -1
SFAC C  
C      1  0.5014890000000  0.5142020000000  0.5479950000000 1.0
C      1  0.5014820000000  0.5141770000000  0.4521200000000 1.0
C      1  0.4904130000000  0.5583310000000  0.4588820000000 1.0
C      1  0.4904180000000  0.5583530000000  0.5412120000000 1.0
C      1  0.5771790000000  0.4975740000000  0.5220660000000 1.0
C      1  0.5771760000000  0.4975630000000  0.4780480000000 1.0
C      1  0.5430980000000  0.5302230000000  0.4734860000000 1.0
C      1  0.5431020000000  0.5302370000000  0.5266160000000 1.0
C      1  0.4404830000000  0.4773950000000  0.5257020000000 1.0
C      1  0.4404790000000  0.4773810000000  0.4744400000000 1.0
C      1  0.5143450000000  0.5237440000000  0.5230520000000 1.0
C      1  0.5143420000000  0.5237320000000  0.4770560000000 1.0
C      1  0.5575670000000  0.5087660000000  0.5409070000000 1.0
C      1  0.5575610000000  0.5087450000000  0.4592040000000 1.0
C      1  0.4546860000000  0.5228080000000  0.4439010000000 1.0
C      1  0.4546930000000  0.5228370000000  0.5562150000000 1.0
C      1  0.4659360000000  0.5127800000000  0.5216820000000 1.0
C      1  0.4659340000000  0.5127690000000  0.4784380000000 1.0
C      1  0.5097120000000  0.4642600000000  0.4485730000000 1.0
C      1  0.5097190000000  0.4642880000000  0.5515670000000 1.0
C      1  0.4663530000000  0.4392660000000  0.5447800000000 1.0
C      1  0.4663480000000  0.4392420000000  0.4553790000000 1.0
C      1  0.4934960000000  0.4866050000000  0.4512640000000 1.0
C      1  0.4935020000000  0.4866310000000  0.5488670000000 1.0
C      1  0.5654340000000  0.5132150000000  0.5659960000000 1.0
C      1  0.5654260000000  0.5131800000000  0.4341120000000 1.0
C      1  0.5057710000000  0.5749280000000  0.5236390000000 1.0
C      1  0.5057680000000  0.5749150000000  0.4764430000000 1.0
C      1  0.4774570000000  0.4243230000000  0.5241490000000 1.0
C      1  0.4774540000000  0.4243100000000  0.4760170000000 1.0
C      1  0.5161880000000  0.4674250000000  0.4754210000000 1.0
C      1  0.5161920000000  0.4674380000000  0.5247170000000 1.0
C      1  0.4487750000000  0.4497460000000  0.4738800000000 1.0
C      1  0.4487780000000  0.4497600000000  0.5262770000000 1.0
C      1  0.4824440000000  0.5347750000000  0.5555900000000 1.0
C      1  0.4824360000000  0.5347460000000  0.4445170000000 1.0
C      1  0.4454750000000  0.4952130000000  0.4510160000000 1.0
C      1  0.4454810000000  0.4952390000000  0.5491160000000 1.0
C      1  0.4822420000000  0.4947660000000  0.5000640000000 1.0
C      1  0.4674830000000  0.5633020000000  0.5000470000000 1.0
C      1  0.4898740000000  0.5416270000000  0.5000510000000 1.0
C      1  0.5236970000000  0.5596040000000  0.5000440000000 1.0
C      1  0.5630990000000  0.4502090000000  0.5000710000000 1.0
C      1  0.4936710000000  0.4311530000000  0.5000800000000 1.0
C      1  0.4479140000000  0.5291160000000  0.5000570000000 1.0
C      1  0.5448770000000  0.4302350000000  0.5000770000000 1.0
C      1  0.4224430000000  0.5156460000000  0.5000620000000 1.0
C      1  0.5668400000000  0.4781210000000  0.5000630000000 1.0
C      1  0.5111970000000  0.5036080000000  0.5000600000000 1.0
C      1  0.5200630000000  0.4192120000000  0.5000820000000 1.0
C      1  0.5011250000000  0.4605190000000  0.5000720000000 1.0
C      1  0.4883240000000  0.5850740000000  0.5000400000000 1.0
C      1  0.4305680000000  0.4884460000000  0.5000690000000 1.0
C      1  0.5563620000000  0.5378110000000  0.5000480000000 1.0
C      1  0.5816090000000  0.5196630000000  0.5000510000000 1.0
END
