TITL C-3578197-9521-91 -6.86140878546372e-07 125000 -1056.25702436239 0 0 173 (C1) n - 1
REM
REM in /home/bkarasulu/work/CARBON/AIRSS/Generating-Clusters/EDIP-Nigel-Params/with-SteepDescent/Higher-Symm/SD-CG/HFTN-CG
REM
REM
REM
REM
REM
REM ./C.cell (12c818d87b63d06a65506943cc24bca4)
REM
REM compiler GCC version 9.2.1 20190827 (Red Hat 9.2.1-1)
REM options -cpp -mtune=generic -march=x86-64 -g -O0 -fpre-include=/usr/include/finclude/math-vector-fortran.h
REM seed -1488884838 -1964359513 -1951956004 750006528 1602723028 1972581256 -570703030 59704071 -185759182 -633726349 -547441122 1855035489 493319889 -2143878694 604778375 -962379221 -2081411289 379629200 225062275 -1414780209 -1625504988 -994955022 -757450197 -383923059 -1702373285 -421124909 -1532533226 -1062694085 -370578174 -225334323 775011024 646783221 -1486248428
REM
CELL 1.54180   50.00000   50.00000   50.00000   90.00000   90.00000   90.00000
LATT -1
SFAC C  
C      1  0.5123030000000  0.4225730000000  0.4387200000000 1.0
C      1  0.5613920000000  0.4301330000000  0.4417310000000 1.0
C      1  0.5916340000000  0.4729810000000  0.4380210000000 1.0
C      1  0.5792730000000  0.5208640000000  0.4352850000000 1.0
C      1  0.5551290000000  0.5659840000000  0.4336440000000 1.0
C      1  0.5075820000000  0.5871770000000  0.4338080000000 1.0
C      1  0.4571120000000  0.5857840000000  0.4426630000000 1.0
C      1  0.4318760000000  0.5450830000000  0.4341560000000 1.0
C      1  0.4167200000000  0.4956700000000  0.4365570000000 1.0
C      1  0.4313730000000  0.4502710000000  0.4370820000000 1.0
C      1  0.4651920000000  0.4148830000000  0.4416700000000 1.0
C      1  0.5487000000000  0.4759820000000  0.5125530000000 1.0
C      1  0.5433720000000  0.5019080000000  0.5269740000000 1.0
C      1  0.5471650000000  0.5299700000000  0.5178930000000 1.0
C      1  0.5203860000000  0.5388770000000  0.5066460000000 1.0
C      1  0.4967970000000  0.5458640000000  0.5256100000000 1.0
C      1  0.4671090000000  0.5362610000000  0.5126990000000 1.0
C      1  0.4637490000000  0.5042220000000  0.5198110000000 1.0
C      1  0.4565660000000  0.4753050000000  0.5086920000000 1.0
C      1  0.4798300000000  0.4580020000000  0.5193780000000 1.0
C      1  0.5037150000000  0.4440070000000  0.5084870000000 1.0
C      1  0.5289370000000  0.4554570000000  0.5225140000000 1.0
C      1  0.4405340000000  0.5442070000000  0.5260900000000 1.0
C      1  0.4239380000000  0.5200540000000  0.5319650000000 1.0
C      1  0.4349530000000  0.4577760000000  0.5207080000000 1.0
C      1  0.4462410000000  0.4300030000000  0.5253420000000 1.0
C      1  0.5278200000000  0.4134730000000  0.5106970000000 1.0
C      1  0.5592330000000  0.4272730000000  0.5377780000000 1.0
C      1  0.5785160000000  0.4703530000000  0.5187310000000 1.0
C      1  0.5872070000000  0.5008120000000  0.5230870000000 1.0
C      1  0.5483480000000  0.5847880000000  0.5219630000000 1.0
C      1  0.5013960000000  0.5763540000000  0.5319300000000 1.0
C      1  0.4745910000000  0.5875130000000  0.5362790000000 1.0
C      1  0.4587630000000  0.5714280000000  0.6019200000000 1.0
C      1  0.4296840000000  0.5369030000000  0.5986780000000 1.0
C      1  0.4208010000000  0.4945620000000  0.5964900000000 1.0
C      1  0.4352720000000  0.4521730000000  0.5950110000000 1.0
C      1  0.4737060000000  0.4262890000000  0.5933960000000 1.0
C      1  0.5167450000000  0.4273580000000  0.5989120000000 1.0
C      1  0.5558350000000  0.4468410000000  0.6082950000000 1.0
C      1  0.5826800000000  0.4919020000000  0.6002050000000 1.0
C      1  0.5772240000000  0.5340970000000  0.5906860000000 1.0
C      1  0.5461480000000  0.5692140000000  0.5921640000000 1.0
C      1  0.5000060000000  0.5835330000000  0.6025340000000 1.0
C      1  0.5784020000000  0.4500580000000  0.5399970000000 1.0
C      1  0.6165090000000  0.5054060000000  0.5213880000000 1.0
C      1  0.5706270000000  0.5923660000000  0.5080970000000 1.0
C      1  0.5211540000000  0.5920160000000  0.5159560000000 1.0
C      1  0.4675980000000  0.6111430000000  0.5248500000000 1.0
C      1  0.4232470000000  0.5778790000000  0.5346480000000 1.0
C      1  0.3996300000000  0.5170390000000  0.5185290000000 1.0
C      1  0.3980720000000  0.4660290000000  0.5293980000000 1.0
C      1  0.4272850000000  0.4075990000000  0.5222640000000 1.0
C      1  0.5030660000000  0.4030610000000  0.5242410000000 1.0
C      1  0.5648060000000  0.4052920000000  0.5194450000000 1.0
C      1  0.4833340000000  0.5475000000000  0.3860370000000 1.0
C      1  0.4616670000000  0.5317690000000  0.3955940000000 1.0
C      1  0.4621120000000  0.5049170000000  0.3812280000000 1.0
C      1  0.4594200000000  0.4786940000000  0.3958890000000 1.0
C      1  0.4782660000000  0.4591980000000  0.3876480000000 1.0
C      1  0.5042480000000  0.4539940000000  0.3974220000000 1.0
C      1  0.5242740000000  0.4721540000000  0.3859590000000 1.0
C      1  0.5440280000000  0.4888860000000  0.3999380000000 1.0
C      1  0.5479490000000  0.5143220000000  0.3885780000000 1.0
C      1  0.5302650000000  0.5338770000000  0.3794400000000 1.0
C      1  0.5101590000000  0.5481420000000  0.3950860000000 1.0
C      1  0.4557320000000  0.4735580000000  0.5559860000000 1.0
C      1  0.4754650000000  0.4545680000000  0.5477520000000 1.0
C      1  0.4998980000000  0.4531750000000  0.5627550000000 1.0
C      1  0.5267090000000  0.4541940000000  0.5521120000000 1.0
C      1  0.5443900000000  0.4725720000000  0.5678850000000 1.0
C      1  0.5424780000000  0.4996140000000  0.5555720000000 1.0
C      1  0.5411700000000  0.5255990000000  0.5686760000000 1.0
C      1  0.5153180000000  0.5366710000000  0.5717520000000 1.0
C      1  0.4942830000000  0.5336870000000  0.5543100000000 1.0
C      1  0.4869780000000  0.5055950000000  0.5580240000000 1.0
C      1  0.4595620000000  0.5008860000000  0.5497780000000 1.0
C      1  0.5633000000000  0.5030700000000  0.4751200000000 1.0
C      1  0.5658000000000  0.5268240000000  0.4942700000000 1.0
C      1  0.5183370000000  0.5488870000000  0.4768010000000 1.0
C      1  0.4874150000000  0.5540240000000  0.4689160000000 1.0
C      1  0.4635620000000  0.5398300000000  0.4829250000000 1.0
C      1  0.4530050000000  0.5078700000000  0.4694130000000 1.0
C      1  0.4515400000000  0.4774580000000  0.4797520000000 1.0
C      1  0.4702940000000  0.4541290000000  0.4675110000000 1.0
C      1  0.5004620000000  0.4499890000000  0.4791860000000 1.0
C      1  0.5227370000000  0.4688030000000  0.4692630000000 1.0
C      1  0.5495970000000  0.4760590000000  0.4825890000000 1.0
C      1  0.4140590000000  0.5230100000000  0.4457470000000 1.0
C      1  0.4146630000000  0.4702390000000  0.4496770000000 1.0
C      1  0.4410180000000  0.4261210000000  0.4502370000000 1.0
C      1  0.4904900000000  0.4092290000000  0.4527900000000 1.0
C      1  0.5376670000000  0.4210110000000  0.4547100000000 1.0
C      1  0.5796990000000  0.4498360000000  0.4503420000000 1.0
C      1  0.5985990000000  0.4995730000000  0.4460330000000 1.0
C      1  0.5762510000000  0.5496130000000  0.4478300000000 1.0
C      1  0.5342250000000  0.5829130000000  0.4455490000000 1.0
C      1  0.4834410000000  0.5935400000000  0.4504820000000 1.0
C      1  0.4357560000000  0.5694510000000  0.4527590000000 1.0
C      1  0.5606570000000  0.5768240000000  0.4856320000000 1.0
C      1  0.5152550000000  0.5959070000000  0.4880690000000 1.0
C      1  0.4700770000000  0.6081940000000  0.4973230000000 1.0
C      1  0.4256370000000  0.5645420000000  0.5077000000000 1.0
C      1  0.4056860000000  0.5125220000000  0.4920670000000 1.0
C      1  0.4097840000000  0.4577140000000  0.5026450000000 1.0
C      1  0.4373160000000  0.4065040000000  0.4955390000000 1.0
C      1  0.4837810000000  0.3990850000000  0.5040760000000 1.0
C      1  0.5658360000000  0.4032810000000  0.4914690000000 1.0
C      1  0.5924310000000  0.4588560000000  0.4957390000000 1.0
C      1  0.6107080000000  0.5116500000000  0.4940190000000 1.0
C      1  0.4980690000000  0.4100430000000  0.5535860000000 1.0
C      1  0.5514430000000  0.4201430000000  0.5659340000000 1.0
C      1  0.5731780000000  0.4619460000000  0.5661160000000 1.0
C      1  0.5950810000000  0.5081380000000  0.5537090000000 1.0
C      1  0.5568940000000  0.5448190000000  0.5495110000000 1.0
C      1  0.5151350000000  0.5785010000000  0.5578910000000 1.0
C      1  0.4713050000000  0.5990680000000  0.5626600000000 1.0
C      1  0.4309780000000  0.5677520000000  0.5612430000000 1.0
C      1  0.4073880000000  0.5205320000000  0.5568010000000 1.0
C      1  0.4116620000000  0.4682820000000  0.5558130000000 1.0
C      1  0.4424250000000  0.4224690000000  0.5549100000000 1.0
C      1  0.4706940000000  0.4150900000000  0.5672790000000 1.0
C      1  0.5218380000000  0.4157370000000  0.5731610000000 1.0
C      1  0.5680490000000  0.4383830000000  0.5844710000000 1.0
C      1  0.5912090000000  0.4850200000000  0.5742280000000 1.0
C      1  0.5836880000000  0.5351790000000  0.5628310000000 1.0
C      1  0.5434770000000  0.5702030000000  0.5637420000000 1.0
C      1  0.4987080000000  0.5938770000000  0.5762410000000 1.0
C      1  0.4502240000000  0.5829070000000  0.5773550000000 1.0
C      1  0.4188650000000  0.5437430000000  0.5735360000000 1.0
C      1  0.4083110000000  0.4935620000000  0.5712090000000 1.0
C      1  0.4252450000000  0.4447300000000  0.5695920000000 1.0
C      1  0.5734130000000  0.5510090000000  0.4783850000000 1.0
C      1  0.5323400000000  0.5768870000000  0.4742110000000 1.0
C      1  0.4873650000000  0.5927050000000  0.4802860000000 1.0
C      1  0.4417610000000  0.5611960000000  0.4818460000000 1.0
C      1  0.4246270000000  0.5214280000000  0.4729260000000 1.0
C      1  0.4210500000000  0.4733370000000  0.4788920000000 1.0
C      1  0.4446310000000  0.4284400000000  0.4785500000000 1.0
C      1  0.4953430000000  0.4116420000000  0.4814830000000 1.0
C      1  0.5394310000000  0.4068130000000  0.4815720000000 1.0
C      1  0.5709120000000  0.4544130000000  0.4779460000000 1.0
C      1  0.5932500000000  0.4977760000000  0.4749070000000 1.0
C      1  0.4476500000000  0.4966500000000  0.6049330000000 1.0
C      1  0.4560060000000  0.4683580000000  0.6051510000000 1.0
C      1  0.4804770000000  0.4524640000000  0.6025400000000 1.0
C      1  0.5103730000000  0.4547530000000  0.6059800000000 1.0
C      1  0.5397850000000  0.4702020000000  0.5997850000000 1.0
C      1  0.5563780000000  0.4947540000000  0.6109370000000 1.0
C      1  0.5535060000000  0.5251260000000  0.6055670000000 1.0
C      1  0.5337330000000  0.5501520000000  0.6095340000000 1.0
C      1  0.5032290000000  0.5560130000000  0.6098320000000 1.0
C      1  0.4736450000000  0.5482360000000  0.6088940000000 1.0
C      1  0.4543450000000  0.5256370000000  0.6069280000000 1.0
C      1  0.4832810000000  0.5508050000000  0.4384470000000 1.0
C      1  0.4590530000000  0.5332270000000  0.4263200000000 1.0
C      1  0.4596240000000  0.5057980000000  0.4398450000000 1.0
C      1  0.4546850000000  0.4783100000000  0.4256370000000 1.0
C      1  0.4748420000000  0.4579340000000  0.4379680000000 1.0
C      1  0.5037450000000  0.4507530000000  0.4276480000000 1.0
C      1  0.5237100000000  0.4694210000000  0.4406690000000 1.0
C      1  0.5420490000000  0.4888270000000  0.4290310000000 1.0
C      1  0.5530110000000  0.5117150000000  0.4467820000000 1.0
C      1  0.5336240000000  0.5386470000000  0.4486360000000 1.0
C      1  0.5118520000000  0.5507330000000  0.4256610000000 1.0
C      1  0.4942060000000  0.5063600000000  0.4118420000000 1.0
C      1  0.4928610000000  0.5001970000000  0.5143390000000 1.0
C      1  0.5024720000000  0.5029420000000  0.4885070000000 1.0
C      1  0.5059930000000  0.5052790000000  0.3850150000000 1.0
C      1  0.4850800000000  0.5041880000000  0.3639970000000 1.0
C      1  0.5035110000000  0.5089400000000  0.4372830000000 1.0
C      1  0.5025700000000  0.4906310000000  0.5390270000000 1.0
C      1  0.4968740000000  0.5104620000000  0.4634250000000 1.0
END
