TITL C-3577083-591-81 4.30604793709874e-06 125000 -94.2407072684713 0 0 18 (C3) n - 1
REM
REM in /home/bkarasulu/work/CARBON/AIRSS/Generating-Clusters/EDIP-Nigel-Params/with-SteepDescent/Higher-Symm/SD-CG/HFTN-CG
REM
REM
REM
REM
REM
REM ./C.cell (12c818d87b63d06a65506943cc24bca4)
REM
REM compiler GCC version 9.2.1 20190827 (Red Hat 9.2.1-1)
REM options -cpp -mtune=generic -march=x86-64 -g -O0 -fpre-include=/usr/include/finclude/math-vector-fortran.h
REM seed -456749073 1570453194 1742125525 1399724939 -1510730160 510302870 1904166856 1784269922 -1042547156 -1423297324 -1181805881 2113084726 -1727760156 2037951291 118493471 194752630 -1374533310 1600141998 -2062435238 -1911661359 658767312 -1136164148 574879030 -1661481242 -657592299 887218698 -34733185 -942739251 719733404 1303234822 806306781 534883470 -308993516
REM
CELL 1.54180   50.00000   50.00000   50.00000   90.00000   90.00000   90.00000
LATT -1
SFAC C  
C      1  0.4461490000000  0.5126490000000  0.4972330000000 1.0
C      1  0.5293120000000  0.5126630000000  0.4547450000000 1.0
C      1  0.5245260000000  0.5126910000000  0.5480110000000 1.0
C      1  0.5577650000000  0.5011020000000  0.5080810000000 1.0
C      1  0.4641180000000  0.5010830000000  0.5459850000000 1.0
C      1  0.4781160000000  0.5010560000000  0.4459330000000 1.0
C      1  0.5462790000000  0.5065010000000  0.5324250000000 1.0
C      1  0.4487750000000  0.5064660000000  0.5238650000000 1.0
C      1  0.5049400000000  0.5064600000000  0.4437040000000 1.0
C      1  0.5399930000000  0.4964690000000  0.4862810000000 1.0
C      1  0.4918870000000  0.4964700000000  0.5414950000000 1.0
C      1  0.4681240000000  0.4964410000000  0.4722270000000 1.0
C      1  0.4656920000000  0.4898000000000  0.4255040000000 1.0
C      1  0.5816780000000  0.4898640000000  0.5075380000000 1.0
C      1  0.4526410000000  0.4898400000000  0.5669670000000 1.0
C      1  0.4408880000000  0.4934550000000  0.4775810000000 1.0
C      1  0.5489760000000  0.4934860000000  0.4600180000000 1.0
C      1  0.5101420000000  0.4935040000000  0.5624070000000 1.0
END
