TITL C-3577090-796-262 -1.4547339619282e-06 125000 -1251.78808739632 0 0 200 (C1) n - 1
REM
REM in /home/bkarasulu/work/CARBON/AIRSS/Generating-Clusters/EDIP-Nigel-Params/with-SteepDescent/Higher-Symm/SD-CG/HFTN-CG
REM
REM
REM
REM
REM
REM ./C.cell (12c818d87b63d06a65506943cc24bca4)
REM
REM compiler GCC version 9.2.1 20190827 (Red Hat 9.2.1-1)
REM options -cpp -mtune=generic -march=x86-64 -g -O0 -fpre-include=/usr/include/finclude/math-vector-fortran.h
REM seed -574091078 -49360169 -1171445066 -59380481 -1940947194 822054603 1561735400 -8787532 -1370266475 -2032415319 435196332 2026365582 -146620587 1629971041 -333836061 1720659583 -49594605 640892575 321778950 635086965 -657898977 -971797070 416021008 987194112 272863515 785971902 640530841 885897283 1803351604 1307436463 -1868488402 629813258 468121696
REM
CELL 1.54180   50.00000   50.00000   50.00000   90.00000   90.00000   90.00000
LATT -1
SFAC C  
C      1  0.5297840000000  0.4079900000000  0.5200830000000 1.0
C      1  0.4076510000000  0.5236500000000  0.5303890000000 1.0
C      1  0.5184390000000  0.5286160000000  0.4036930000000 1.0
C      1  0.4690680000000  0.5986530000000  0.5188650000000 1.0
C      1  0.5297230000000  0.5894020000000  0.4832410000000 1.0
C      1  0.4724920000000  0.4075480000000  0.4803840000000 1.0
C      1  0.5989080000000  0.4807560000000  0.5340530000000 1.0
C      1  0.4081050000000  0.4799870000000  0.4705880000000 1.0
C      1  0.5934550000000  0.5132850000000  0.4709880000000 1.0
C      1  0.4804270000000  0.4689850000000  0.4027070000000 1.0
C      1  0.5160630000000  0.4713790000000  0.5942280000000 1.0
C      1  0.4810740000000  0.5313540000000  0.5999330000000 1.0
C      1  0.5297440000000  0.4074210000000  0.4813680000000 1.0
C      1  0.4058330000000  0.5188010000000  0.4675700000000 1.0
C      1  0.5196760000000  0.5292390000000  0.5959060000000 1.0
C      1  0.4689010000000  0.5960200000000  0.4801350000000 1.0
C      1  0.5279030000000  0.5918590000000  0.5221040000000 1.0
C      1  0.4702310000000  0.4051650000000  0.5197120000000 1.0
C      1  0.5950270000000  0.4820800000000  0.4711150000000 1.0
C      1  0.4086110000000  0.4851780000000  0.5293450000000 1.0
C      1  0.5956380000000  0.5196220000000  0.5317450000000 1.0
C      1  0.4846870000000  0.4713630000000  0.5948780000000 1.0
C      1  0.5196230000000  0.4675610000000  0.4016000000000 1.0
C      1  0.4793480000000  0.5286750000000  0.4009940000000 1.0
C      1  0.5160630000000  0.4414910000000  0.6047630000000 1.0
C      1  0.4397450000000  0.6078350000000  0.5153730000000 1.0
C      1  0.6045760000000  0.5139010000000  0.4414920000000 1.0
C      1  0.4863060000000  0.5608600000000  0.6064190000000 1.0
C      1  0.5114500000000  0.5580440000000  0.3954730000000 1.0
C      1  0.4856360000000  0.4395020000000  0.3963690000000 1.0
C      1  0.5574510000000  0.3952570000000  0.5135800000000 1.0
C      1  0.4430550000000  0.4003030000000  0.4850520000000 1.0
C      1  0.5568620000000  0.6022130000000  0.4902930000000 1.0
C      1  0.3981410000000  0.4836320000000  0.4416740000000 1.0
C      1  0.6056750000000  0.4855320000000  0.5635560000000 1.0
C      1  0.3963310000000  0.5154400000000  0.5589280000000 1.0
C      1  0.5153690000000  0.4379980000000  0.3945980000000 1.0
C      1  0.4411000000000  0.6079930000000  0.4853730000000 1.0
C      1  0.6035470000000  0.5153100000000  0.5613550000000 1.0
C      1  0.4812370000000  0.5580580000000  0.3906230000000 1.0
C      1  0.5158780000000  0.5584560000000  0.6047380000000 1.0
C      1  0.4851350000000  0.4415760000000  0.6060320000000 1.0
C      1  0.5578450000000  0.3949090000000  0.4833270000000 1.0
C      1  0.4408800000000  0.3984030000000  0.5145240000000 1.0
C      1  0.5569670000000  0.6019260000000  0.5203440000000 1.0
C      1  0.3964240000000  0.4849740000000  0.5577320000000 1.0
C      1  0.6064270000000  0.4830260000000  0.4409950000000 1.0
C      1  0.3941110000000  0.5132430000000  0.4397130000000 1.0
C      1  0.5131020000000  0.4865220000000  0.5408340000000 1.0
C      1  0.4800250000000  0.5449870000000  0.5131260000000 1.0
C      1  0.5411580000000  0.5134240000000  0.4853670000000 1.0
C      1  0.4796640000000  0.5183220000000  0.5507040000000 1.0
C      1  0.5089160000000  0.5357040000000  0.4523680000000 1.0
C      1  0.4897130000000  0.4906500000000  0.4461990000000 1.0
C      1  0.5307230000000  0.4628420000000  0.5149250000000 1.0
C      1  0.4915450000000  0.4543030000000  0.4908490000000 1.0
C      1  0.5202210000000  0.5359690000000  0.4842670000000 1.0
C      1  0.4546160000000  0.4952480000000  0.4872140000000 1.0
C      1  0.5544220000000  0.4803020000000  0.5140180000000 1.0
C      1  0.4621370000000  0.5228810000000  0.5271760000000 1.0
C      1  0.5175720000000  0.4877760000000  0.4468790000000 1.0
C      1  0.4740180000000  0.5453400000000  0.4851730000000 1.0
C      1  0.5505560000000  0.5080600000000  0.5125790000000 1.0
C      1  0.4824660000000  0.5183160000000  0.4504410000000 1.0
C      1  0.5085540000000  0.5161070000000  0.5447940000000 1.0
C      1  0.4858700000000  0.4764110000000  0.5364580000000 1.0
C      1  0.5202600000000  0.4596700000000  0.4871460000000 1.0
C      1  0.4878180000000  0.4522250000000  0.5188970000000 1.0
C      1  0.5100120000000  0.5397250000000  0.5146730000000 1.0
C      1  0.4579990000000  0.4947810000000  0.5162250000000 1.0
C      1  0.5311010000000  0.4860720000000  0.4729700000000 1.0
C      1  0.4614100000000  0.5209900000000  0.4737860000000 1.0
C      1  0.4165740000000  0.5867760000000  0.5526890000000 1.0
C      1  0.5815570000000  0.5507800000000  0.4195300000000 1.0
C      1  0.5516030000000  0.4155450000000  0.5839610000000 1.0
C      1  0.5839340000000  0.4127160000000  0.5506270000000 1.0
C      1  0.4171580000000  0.4201230000000  0.4500830000000 1.0
C      1  0.5810870000000  0.5830820000000  0.4533420000000 1.0
C      1  0.4178340000000  0.4483900000000  0.4143070000000 1.0
C      1  0.5850430000000  0.4471520000000  0.5832080000000 1.0
C      1  0.4162570000000  0.5516630000000  0.5836460000000 1.0
C      1  0.4498770000000  0.5839510000000  0.5849660000000 1.0
C      1  0.5440900000000  0.5787330000000  0.4247830000000 1.0
C      1  0.4501380000000  0.4156220000000  0.4184830000000 1.0
C      1  0.4168190000000  0.5903630000000  0.4454900000000 1.0
C      1  0.5825510000000  0.5499930000000  0.5874340000000 1.0
C      1  0.5522380000000  0.4150130000000  0.4146040000000 1.0
C      1  0.5853370000000  0.4113630000000  0.4461080000000 1.0
C      1  0.4172110000000  0.4171150000000  0.5511520000000 1.0
C      1  0.5851210000000  0.5823050000000  0.5549770000000 1.0
C      1  0.4124510000000  0.4471810000000  0.5849390000000 1.0
C      1  0.5874410000000  0.4458080000000  0.4153360000000 1.0
C      1  0.4091710000000  0.5528730000000  0.4171470000000 1.0
C      1  0.4412290000000  0.5841580000000  0.4054760000000 1.0
C      1  0.5521460000000  0.5843380000000  0.5864270000000 1.0
C      1  0.4469300000000  0.4165290000000  0.5874540000000 1.0
C      1  0.5764260000000  0.5816720000000  0.4807490000000 1.0
C      1  0.5823190000000  0.4744310000000  0.5789120000000 1.0
C      1  0.4766320000000  0.5769550000000  0.5833670000000 1.0
C      1  0.4269160000000  0.4231890000000  0.4757410000000 1.0
C      1  0.5788700000000  0.4132130000000  0.5232780000000 1.0
C      1  0.4214780000000  0.5867240000000  0.5254230000000 1.0
C      1  0.4161310000000  0.5241530000000  0.5789960000000 1.0
C      1  0.5819320000000  0.5235340000000  0.4246370000000 1.0
C      1  0.4197780000000  0.4743410000000  0.4236730000000 1.0
C      1  0.5256400000000  0.4247570000000  0.5825340000000 1.0
C      1  0.4763730000000  0.4242180000000  0.4202330000000 1.0
C      1  0.5166410000000  0.5749510000000  0.4197780000000 1.0
C      1  0.5747370000000  0.5798660000000  0.5294820000000 1.0
C      1  0.5851520000000  0.4722320000000  0.4232910000000 1.0
C      1  0.4674250000000  0.5763400000000  0.4101800000000 1.0
C      1  0.4245670000000  0.4212610000000  0.5248020000000 1.0
C      1  0.5773620000000  0.4147100000000  0.4723200000000 1.0
C      1  0.4207590000000  0.5894010000000  0.4731040000000 1.0
C      1  0.4130870000000  0.5255240000000  0.4202090000000 1.0
C      1  0.5804020000000  0.5242890000000  0.5775150000000 1.0
C      1  0.4164030000000  0.4731150000000  0.5763230000000 1.0
C      1  0.5257570000000  0.4223550000000  0.4178290000000 1.0
C      1  0.4736110000000  0.4236430000000  0.5853490000000 1.0
C      1  0.5261280000000  0.5757850000000  0.5829550000000 1.0
C      1  0.5576740000000  0.5135420000000  0.4396400000000 1.0
C      1  0.5175220000000  0.4411760000000  0.5587230000000 1.0
C      1  0.4369690000000  0.5635870000000  0.5143170000000 1.0
C      1  0.4438840000000  0.4823460000000  0.4400250000000 1.0
C      1  0.5584780000000  0.4821470000000  0.5610410000000 1.0
C      1  0.4419450000000  0.5116930000000  0.5727900000000 1.0
C      1  0.4850120000000  0.5612620000000  0.5589200000000 1.0
C      1  0.5002310000000  0.5632640000000  0.4426880000000 1.0
C      1  0.4843100000000  0.4429500000000  0.4429460000000 1.0
C      1  0.5672740000000  0.4385060000000  0.5131870000000 1.0
C      1  0.4451140000000  0.4463940000000  0.4831340000000 1.0
C      1  0.5618390000000  0.5563400000000  0.4890900000000 1.0
C      1  0.5571480000000  0.5165670000000  0.5595670000000 1.0
C      1  0.5191280000000  0.4406110000000  0.4414720000000 1.0
C      1  0.4339000000000  0.5640670000000  0.4819830000000 1.0
C      1  0.4425820000000  0.4814950000000  0.5628970000000 1.0
C      1  0.5603790000000  0.4792540000000  0.4391550000000 1.0
C      1  0.4388830000000  0.5179240000000  0.4345500000000 1.0
C      1  0.4705840000000  0.5615680000000  0.4363370000000 1.0
C      1  0.5180880000000  0.5585300000000  0.5589930000000 1.0
C      1  0.4812000000000  0.4390690000000  0.5606620000000 1.0
C      1  0.5632990000000  0.4405670000000  0.4805760000000 1.0
C      1  0.4423540000000  0.4455450000000  0.5183960000000 1.0
C      1  0.5585580000000  0.5553520000000  0.5211520000000 1.0
C      1  0.4686270000000  0.4336190000000  0.5301670000000 1.0
C      1  0.4336610000000  0.5306420000000  0.4622790000000 1.0
C      1  0.5297800000000  0.4670950000000  0.4303560000000 1.0
C      1  0.5281400000000  0.5619860000000  0.5293570000000 1.0
C      1  0.4621310000000  0.5678900000000  0.4702640000000 1.0
C      1  0.5331320000000  0.4360580000000  0.4716070000000 1.0
C      1  0.5667570000000  0.4704900000000  0.4689450000000 1.0
C      1  0.4375870000000  0.4763660000000  0.5314300000000 1.0
C      1  0.5657200000000  0.5258500000000  0.5308350000000 1.0
C      1  0.4664800000000  0.5314170000000  0.4283220000000 1.0
C      1  0.5271860000000  0.5289920000000  0.5660280000000 1.0
C      1  0.4727490000000  0.4691630000000  0.5655600000000 1.0
C      1  0.4739550000000  0.4376020000000  0.4733390000000 1.0
C      1  0.4347380000000  0.5372640000000  0.5293600000000 1.0
C      1  0.5269020000000  0.4711520000000  0.5646280000000 1.0
C      1  0.5352460000000  0.5606650000000  0.4782590000000 1.0
C      1  0.4718110000000  0.5695170000000  0.5303630000000 1.0
C      1  0.5332920000000  0.4361290000000  0.5319840000000 1.0
C      1  0.5710540000000  0.4694420000000  0.5348790000000 1.0
C      1  0.4385080000000  0.4751540000000  0.4709690000000 1.0
C      1  0.5645640000000  0.5235500000000  0.4684240000000 1.0
C      1  0.4662650000000  0.5303950000000  0.5733390000000 1.0
C      1  0.5302280000000  0.5269910000000  0.4315510000000 1.0
C      1  0.4732730000000  0.4710610000000  0.4323650000000 1.0
C      1  0.4846100000000  0.3863540000000  0.5354860000000 1.0
C      1  0.3890810000000  0.5327940000000  0.4855990000000 1.0
C      1  0.5327700000000  0.4850450000000  0.3834160000000 1.0
C      1  0.5095420000000  0.6092080000000  0.5345380000000 1.0
C      1  0.4857630000000  0.6119610000000  0.4636030000000 1.0
C      1  0.5114840000000  0.3915100000000  0.4671200000000 1.0
C      1  0.6118470000000  0.4714790000000  0.4917250000000 1.0
C      1  0.3928620000000  0.4708460000000  0.5110570000000 1.0
C      1  0.6133200000000  0.5347490000000  0.5153290000000 1.0
C      1  0.4666650000000  0.5104520000000  0.3835330000000 1.0
C      1  0.5363030000000  0.5145500000000  0.6137710000000 1.0
C      1  0.4732580000000  0.4899450000000  0.6132720000000 1.0
C      1  0.4854230000000  0.3892060000000  0.4628820000000 1.0
C      1  0.3887940000000  0.5345060000000  0.5121610000000 1.0
C      1  0.5287570000000  0.4891810000000  0.6121850000000 1.0
C      1  0.5109600000000  0.6042630000000  0.4678730000000 1.0
C      1  0.4847690000000  0.6182990000000  0.5321530000000 1.0
C      1  0.5105480000000  0.3914630000000  0.5325430000000 1.0
C      1  0.6178530000000  0.4675340000000  0.5174150000000 1.0
C      1  0.3912790000000  0.4628000000000  0.4858850000000 1.0
C      1  0.6098300000000  0.5263380000000  0.4903060000000 1.0
C      1  0.4701080000000  0.5153600000000  0.6209530000000 1.0
C      1  0.5313140000000  0.5117110000000  0.3848190000000 1.0
C      1  0.4652770000000  0.4839290000000  0.3840180000000 1.0
C      1  0.5710540000000  0.5744130000000  0.4291340000000 1.0
C      1  0.4243630000000  0.5772220000000  0.5772790000000 1.0
C      1  0.5770310000000  0.4218200000000  0.5758020000000 1.0
C      1  0.5784000000000  0.4204250000000  0.4211580000000 1.0
C      1  0.4185310000000  0.5786910000000  0.4203230000000 1.0
C      1  0.4218010000000  0.4224540000000  0.5777370000000 1.0
C      1  0.4243580000000  0.4234760000000  0.4238400000000 1.0
C      1  0.5776690000000  0.5761350000000  0.5806450000000 1.0
END
