TITL C-3577079-311-545 2.44388552747826e-06 125000 -688.248281106396 0 0 110 (C1) n - 1
REM
REM in /home/bkarasulu/work/CARBON/AIRSS/Generating-Clusters/EDIP-Nigel-Params/with-SteepDescent/Higher-Symm/SD-CG/HFTN-CG
REM
REM
REM
REM
REM
REM ./C.cell (12c818d87b63d06a65506943cc24bca4)
REM
REM compiler GCC version 9.2.1 20190827 (Red Hat 9.2.1-1)
REM options -cpp -mtune=generic -march=x86-64 -g -O0 -fpre-include=/usr/include/finclude/math-vector-fortran.h
REM seed 378450450 2046987668 -1295362131 -1937698096 1950803069 -143480399 407686225 1533704686 1183914116 -2140408198 -1991677861 -2137426268 1237256686 695746979 -700533117 -648415347 735206727 1281840218 1185118037 290549883 -1417041287 -110565294 -2001078573 -348627138 1084296863 1920667351 -391013231 1078679893 -639291734 -763527746 -2006060877 -500172975 -76184135
REM
CELL 1.54180   50.00000   50.00000   50.00000   90.00000   90.00000   90.00000
LATT -1
SFAC C  
C      1  0.4465000000000  0.5025440000000  0.5152300000000 1.0
C      1  0.5274250000000  0.5446570000000  0.5147650000000 1.0
C      1  0.5276810000000  0.4509780000000  0.5160730000000 1.0
C      1  0.4735540000000  0.5126380000000  0.4748510000000 1.0
C      1  0.5224940000000  0.5154530000000  0.4754560000000 1.0
C      1  0.5061810000000  0.4659140000000  0.4703910000000 1.0
C      1  0.4602320000000  0.5229850000000  0.4994930000000 1.0
C      1  0.5391720000000  0.5234530000000  0.4986130000000 1.0
C      1  0.5039000000000  0.4572330000000  0.4997160000000 1.0
C      1  0.4131730000000  0.5226590000000  0.4793640000000 1.0
C      1  0.5609060000000  0.5653310000000  0.4771680000000 1.0
C      1  0.5266190000000  0.4096980000000  0.4811180000000 1.0
C      1  0.5553770000000  0.4395960000000  0.5017870000000 1.0
C      1  0.4238750000000  0.4842100000000  0.4994630000000 1.0
C      1  0.5261400000000  0.5792800000000  0.5010850000000 1.0
C      1  0.5318390000000  0.5106340000000  0.4296390000000 1.0
C      1  0.4971470000000  0.4559050000000  0.4279730000000 1.0
C      1  0.4722670000000  0.5296200000000  0.4295810000000 1.0
C      1  0.5238530000000  0.4049750000000  0.5094920000000 1.0
C      1  0.4081070000000  0.5273420000000  0.5076100000000 1.0
C      1  0.5668740000000  0.5669560000000  0.5058620000000 1.0
C      1  0.4738640000000  0.4074290000000  0.4941720000000 1.0
C      1  0.4338820000000  0.5699470000000  0.4954280000000 1.0
C      1  0.5900960000000  0.5236750000000  0.4916470000000 1.0
C      1  0.5900240000000  0.5200210000000  0.5198590000000 1.0
C      1  0.4715200000000  0.4123230000000  0.5218400000000 1.0
C      1  0.4383510000000  0.5699510000000  0.5233330000000 1.0
C      1  0.5628010000000  0.4375240000000  0.4539440000000 1.0
C      1  0.4205450000000  0.4781440000000  0.4512570000000 1.0
C      1  0.5181610000000  0.5845030000000  0.4533270000000 1.0
C      1  0.4839130000000  0.5559650000000  0.4351390000000 1.0
C      1  0.5516650000000  0.4903810000000  0.4333140000000 1.0
C      1  0.4690340000000  0.4549420000000  0.4326280000000 1.0
C      1  0.4406270000000  0.4856890000000  0.5582370000000 1.0
C      1  0.5166500000000  0.5586860000000  0.5591590000000 1.0
C      1  0.5421770000000  0.4562160000000  0.5579280000000 1.0
C      1  0.4354370000000  0.5450850000000  0.5428640000000 1.0
C      1  0.5704370000000  0.5342280000000  0.5408030000000 1.0
C      1  0.4937280000000  0.4219000000000  0.5421940000000 1.0
C      1  0.4295550000000  0.4388570000000  0.5145260000000 1.0
C      1  0.4829600000000  0.5936880000000  0.5189360000000 1.0
C      1  0.5901180000000  0.4695020000000  0.5157040000000 1.0
C      1  0.4697900000000  0.4926820000000  0.5670450000000 1.0
C      1  0.5085330000000  0.5298150000000  0.5673810000000 1.0
C      1  0.5214960000000  0.4777270000000  0.5669650000000 1.0
C      1  0.4912080000000  0.5914200000000  0.4669950000000 1.0
C      1  0.5803910000000  0.4616670000000  0.4632020000000 1.0
C      1  0.4292020000000  0.4497070000000  0.4620910000000 1.0
C      1  0.4908840000000  0.5544150000000  0.4917090000000 1.0
C      1  0.5510160000000  0.4817230000000  0.4895830000000 1.0
C      1  0.4617560000000  0.4644300000000  0.4882430000000 1.0
C      1  0.4918840000000  0.4713270000000  0.5641130000000 1.0
C      1  0.4789360000000  0.5215790000000  0.5647460000000 1.0
C      1  0.5289910000000  0.5074930000000  0.5637520000000 1.0
C      1  0.5567400000000  0.5400740000000  0.4615140000000 1.0
C      1  0.5061940000000  0.4230090000000  0.4637270000000 1.0
C      1  0.4362730000000  0.5341610000000  0.4640950000000 1.0
C      1  0.4758070000000  0.4606660000000  0.5127190000000 1.0
C      1  0.4781810000000  0.5432660000000  0.5143820000000 1.0
C      1  0.5479390000000  0.4976690000000  0.5128790000000 1.0
C      1  0.4097630000000  0.4935730000000  0.4757470000000 1.0
C      1  0.5391230000000  0.5848520000000  0.4756710000000 1.0
C      1  0.5534990000000  0.4220470000000  0.4786440000000 1.0
C      1  0.4590300000000  0.5435010000000  0.5624750000000 1.0
C      1  0.5578370000000  0.5140790000000  0.5604060000000 1.0
C      1  0.4828280000000  0.4432440000000  0.5611970000000 1.0
C      1  0.5149120000000  0.4367950000000  0.4397120000000 1.0
C      1  0.4470880000000  0.5206530000000  0.4407270000000 1.0
C      1  0.5362880000000  0.5377160000000  0.4401070000000 1.0
C      1  0.4573200000000  0.4378830000000  0.4530040000000 1.0
C      1  0.4699180000000  0.5720800000000  0.4566620000000 1.0
C      1  0.5733590000000  0.4912670000000  0.4525250000000 1.0
C      1  0.4257710000000  0.5198980000000  0.5305320000000 1.0
C      1  0.5527570000000  0.5550970000000  0.5295220000000 1.0
C      1  0.5209560000000  0.4249500000000  0.5312770000000 1.0
C      1  0.5382100000000  0.4281790000000  0.5541890000000 1.0
C      1  0.4186750000000  0.5028020000000  0.5525120000000 1.0
C      1  0.5420180000000  0.5692340000000  0.5521240000000 1.0
C      1  0.4152680000000  0.4484280000000  0.5370020000000 1.0
C      1  0.4979360000000  0.6008670000000  0.5417380000000 1.0
C      1  0.5883450000000  0.4528550000000  0.5385690000000 1.0
C      1  0.4335200000000  0.4578460000000  0.4914090000000 1.0
C      1  0.4977170000000  0.5825170000000  0.4951720000000 1.0
C      1  0.5721580000000  0.4617860000000  0.4928210000000 1.0
C      1  0.4333320000000  0.4577650000000  0.5569810000000 1.0
C      1  0.4964600000000  0.5792300000000  0.5601830000000 1.0
C      1  0.5701760000000  0.4640580000000  0.5574580000000 1.0
C      1  0.4449860000000  0.5610930000000  0.4709860000000 1.0
C      1  0.5759320000000  0.5184830000000  0.4675020000000 1.0
C      1  0.4775850000000  0.4202730000000  0.4693720000000 1.0
C      1  0.5255920000000  0.4832060000000  0.5279110000000 1.0
C      1  0.4725530000000  0.4870450000000  0.5281200000000 1.0
C      1  0.5019190000000  0.5307060000000  0.5285970000000 1.0
C      1  0.5319690000000  0.4858990000000  0.4661130000000 1.0
C      1  0.4760750000000  0.4759750000000  0.4640160000000 1.0
C      1  0.4940400000000  0.5367170000000  0.4675210000000 1.0
C      1  0.5422910000000  0.4396070000000  0.4348250000000 1.0
C      1  0.4379220000000  0.4947050000000  0.4361830000000 1.0
C      1  0.5151500000000  0.5590500000000  0.4375190000000 1.0
C      1  0.4572510000000  0.4382220000000  0.5255470000000 1.0
C      1  0.4678760000000  0.5696970000000  0.5280770000000 1.0
C      1  0.5763170000000  0.4940590000000  0.5256650000000 1.0
C      1  0.4866100000000  0.5154630000000  0.4110740000000 1.0
C      1  0.5104740000000  0.5018270000000  0.4121160000000 1.0
C      1  0.5074370000000  0.4743270000000  0.4098850000000 1.0
C      1  0.4543240000000  0.4396230000000  0.5639870000000 1.0
C      1  0.4700490000000  0.5699520000000  0.5665400000000 1.0
C      1  0.5754280000000  0.4914860000000  0.5640510000000 1.0
C      1  0.4989720000000  0.5002040000000  0.4904700000000 1.0
C      1  0.4997680000000  0.5005320000000  0.5205550000000 1.0
END
