TITL C-3578204-4308-264 5.44635657083665e-07 125000 -262.991790018346 0 0 43 (C1) n - 1
REM
REM in /home/bkarasulu/work/CARBON/AIRSS/Generating-Clusters/EDIP-Nigel-Params/with-SteepDescent/Higher-Symm/SD-CG/HFTN-CG
REM
REM
REM
REM
REM
REM ./C.cell (12c818d87b63d06a65506943cc24bca4)
REM
REM compiler GCC version 9.2.1 20190827 (Red Hat 9.2.1-1)
REM options -cpp -mtune=generic -march=x86-64 -g -O0 -fpre-include=/usr/include/finclude/math-vector-fortran.h
REM seed -514855666 517330292 -1758335296 31067882 963154963 926120485 1206547123 1398018200 1186639701 -172411328 -729895823 -1372129381 -2043026490 -1669186185 -716900129 735016564 1617147862 -300824023 -1934929931 -114026044 -527993089 -75509825 -9784184 1210544435 1119914262 1421430686 -582142263 -1419840183 1391784605 -1115111458 -129358931 1352492733 1325977624
REM
CELL 1.54180   50.00000   50.00000   50.00000   90.00000   90.00000   90.00000
LATT -1
SFAC C  
C      1  0.5251870000000  0.4439670000000  0.4797840000000 1.0
C      1  0.4539740000000  0.4662730000000  0.4842460000000 1.0
C      1  0.4398620000000  0.5395490000000  0.4773030000000 1.0
C      1  0.5147310000000  0.5603010000000  0.4778310000000 1.0
C      1  0.5632730000000  0.5061100000000  0.4761360000000 1.0
C      1  0.5380230000000  0.4661360000000  0.4655310000000 1.0
C      1  0.4794140000000  0.4595500000000  0.4703000000000 1.0
C      1  0.4563050000000  0.5129610000000  0.4723440000000 1.0
C      1  0.4917290000000  0.5512170000000  0.4628580000000 1.0
C      1  0.5461330000000  0.5263560000000  0.4630690000000 1.0
C      1  0.4462450000000  0.4468240000000  0.5031400000000 1.0
C      1  0.4228180000000  0.5375030000000  0.4990520000000 1.0
C      1  0.5074880000000  0.5762590000000  0.4996880000000 1.0
C      1  0.5803440000000  0.5163510000000  0.4960360000000 1.0
C      1  0.5413640000000  0.4315820000000  0.4992070000000 1.0
C      1  0.5404360000000  0.4883270000000  0.4861550000000 1.0
C      1  0.5019540000000  0.4611560000000  0.4903820000000 1.0
C      1  0.4600810000000  0.4936440000000  0.4955740000000 1.0
C      1  0.4700150000000  0.5451670000000  0.4835830000000 1.0
C      1  0.5258540000000  0.5328250000000  0.4849460000000 1.0
C      1  0.4921030000000  0.5681460000000  0.5203820000000 1.0
C      1  0.5646840000000  0.5268120000000  0.5154010000000 1.0
C      1  0.5479720000000  0.4504510000000  0.5173120000000 1.0
C      1  0.4670210000000  0.4436150000000  0.5200650000000 1.0
C      1  0.4268910000000  0.5201340000000  0.5190810000000 1.0
C      1  0.5249700000000  0.4897320000000  0.5354690000000 1.0
C      1  0.4994430000000  0.4742640000000  0.5396560000000 1.0
C      1  0.4685170000000  0.5062180000000  0.5418480000000 1.0
C      1  0.4896000000000  0.5182830000000  0.5236100000000 1.0
C      1  0.5189880000000  0.5189580000000  0.5325500000000 1.0
C      1  0.5373560000000  0.5327920000000  0.5134010000000 1.0
C      1  0.5438090000000  0.4780780000000  0.5151460000000 1.0
C      1  0.4925920000000  0.4547490000000  0.5186810000000 1.0
C      1  0.4463030000000  0.5004500000000  0.5222280000000 1.0
C      1  0.4793750000000  0.5445050000000  0.5123620000000 1.0
C      1  0.4886180000000  0.4796820000000  0.4499500000000 1.0
C      1  0.4771730000000  0.5066920000000  0.4513000000000 1.0
C      1  0.4978030000000  0.5270830000000  0.4462210000000 1.0
C      1  0.5265540000000  0.5149700000000  0.4423000000000 1.0
C      1  0.5189470000000  0.4837770000000  0.4476230000000 1.0
C      1  0.4789090000000  0.4845190000000  0.5563780000000 1.0
C      1  0.5102380000000  0.5026550000000  0.4807290000000 1.0
C      1  0.4896350000000  0.4957020000000  0.5026140000000 1.0
END
