TITL C-3577087-600-721 -7.75667508478558e-06 125000 -848.306304530841 0 0 135 (C1) n - 1
REM
REM in /home/bkarasulu/work/CARBON/AIRSS/Generating-Clusters/EDIP-Nigel-Params/with-SteepDescent/Higher-Symm/SD-CG/HFTN-CG
REM
REM
REM
REM
REM
REM ./C.cell (12c818d87b63d06a65506943cc24bca4)
REM
REM compiler GCC version 9.2.1 20190827 (Red Hat 9.2.1-1)
REM options -cpp -mtune=generic -march=x86-64 -g -O0 -fpre-include=/usr/include/finclude/math-vector-fortran.h
REM seed 979722816 751956134 953471820 1916325576 1923671073 211577244 -470719557 1045097820 -1101900188 586289564 1709302611 -2082697249 -779156994 -95942167 235055153 -1247508934 -1620222395 457795093 -495855846 1872325864 -1742291687 -2126394399 -772604247 -489219075 1468777712 -333811599 1552730898 -706193772 1515303562 -1830442134 -955617128 -448936694 1170183976
REM
CELL 1.54180   50.00000   50.00000   50.00000   90.00000   90.00000   90.00000
LATT -1
SFAC C  
C      1  0.4776430000000  0.4851800000000  0.5077970000000 1.0
C      1  0.4865560000000  0.5074150000000  0.4943860000000 1.0
C      1  0.5169890000000  0.4159480000000  0.5561190000000 1.0
C      1  0.5173260000000  0.5832860000000  0.4414230000000 1.0
C      1  0.4569750000000  0.5081460000000  0.4140560000000 1.0
C      1  0.4545210000000  0.4974410000000  0.5864590000000 1.0
C      1  0.5420400000000  0.4723800000000  0.4958230000000 1.0
C      1  0.5393580000000  0.5326250000000  0.5010610000000 1.0
C      1  0.4174090000000  0.4553260000000  0.5182820000000 1.0
C      1  0.4175550000000  0.5448080000000  0.4816600000000 1.0
C      1  0.4231460000000  0.4634150000000  0.5472290000000 1.0
C      1  0.4216440000000  0.5320880000000  0.4456360000000 1.0
C      1  0.5016280000000  0.5153730000000  0.5731900000000 1.0
C      1  0.5031980000000  0.4833820000000  0.4255190000000 1.0
C      1  0.5379490000000  0.5540510000000  0.5420050000000 1.0
C      1  0.5437420000000  0.4460890000000  0.4552840000000 1.0
C      1  0.4295260000000  0.5078150000000  0.4299640000000 1.0
C      1  0.4307120000000  0.4942240000000  0.5693010000000 1.0
C      1  0.5855510000000  0.5131960000000  0.4402450000000 1.0
C      1  0.5812670000000  0.4879460000000  0.5596890000000 1.0
C      1  0.4425040000000  0.5770040000000  0.5330030000000 1.0
C      1  0.4428060000000  0.4280920000000  0.4665450000000 1.0
C      1  0.5101780000000  0.4682180000000  0.5356700000000 1.0
C      1  0.5074780000000  0.5300320000000  0.4622370000000 1.0
C      1  0.5032720000000  0.5149130000000  0.5421800000000 1.0
C      1  0.5037950000000  0.4824340000000  0.4564200000000 1.0
C      1  0.5209690000000  0.5569010000000  0.4996570000000 1.0
C      1  0.5251070000000  0.4489410000000  0.4955410000000 1.0
C      1  0.5495280000000  0.5424420000000  0.4487810000000 1.0
C      1  0.5495840000000  0.4553140000000  0.5517880000000 1.0
C      1  0.4716430000000  0.4723800000000  0.5863260000000 1.0
C      1  0.4700460000000  0.5318730000000  0.4285020000000 1.0
C      1  0.5509590000000  0.4780560000000  0.4186930000000 1.0
C      1  0.5474480000000  0.5181860000000  0.5797830000000 1.0
C      1  0.4315010000000  0.4403920000000  0.5633280000000 1.0
C      1  0.4293040000000  0.5585700000000  0.4366500000000 1.0
C      1  0.5255970000000  0.4627140000000  0.4149500000000 1.0
C      1  0.5236990000000  0.5352950000000  0.5835490000000 1.0
C      1  0.4714900000000  0.5215920000000  0.5798240000000 1.0
C      1  0.4723820000000  0.4821110000000  0.4183110000000 1.0
C      1  0.5620380000000  0.5841430000000  0.4728590000000 1.0
C      1  0.5593340000000  0.4152150000000  0.5246970000000 1.0
C      1  0.5796350000000  0.5274580000000  0.5293260000000 1.0
C      1  0.5824020000000  0.4726810000000  0.4693510000000 1.0
C      1  0.5360530000000  0.4903780000000  0.4684360000000 1.0
C      1  0.5335140000000  0.5115680000000  0.5301930000000 1.0
C      1  0.4880950000000  0.4881900000000  0.5344600000000 1.0
C      1  0.4888130000000  0.5071550000000  0.4662360000000 1.0
C      1  0.4255910000000  0.4267410000000  0.5148810000000 1.0
C      1  0.4260520000000  0.5732910000000  0.4839720000000 1.0
C      1  0.5048080000000  0.5353970000000  0.4311940000000 1.0
C      1  0.5074230000000  0.4606370000000  0.5643130000000 1.0
C      1  0.4641540000000  0.4766150000000  0.5490610000000 1.0
C      1  0.4627150000000  0.5192770000000  0.4562840000000 1.0
C      1  0.5890400000000  0.5163180000000  0.4683040000000 1.0
C      1  0.5864900000000  0.4838350000000  0.5319380000000 1.0
C      1  0.4562430000000  0.5419740000000  0.4768510000000 1.0
C      1  0.4579630000000  0.4518060000000  0.5294950000000 1.0
C      1  0.4706960000000  0.4080230000000  0.4977310000000 1.0
C      1  0.4713480000000  0.5978720000000  0.5015530000000 1.0
C      1  0.4429530000000  0.5504100000000  0.5448830000000 1.0
C      1  0.4319210000000  0.4493990000000  0.4494930000000 1.0
C      1  0.5825730000000  0.4573950000000  0.5185090000000 1.0
C      1  0.5833860000000  0.5426470000000  0.4812740000000 1.0
C      1  0.4210420000000  0.4720570000000  0.4663660000000 1.0
C      1  0.4300200000000  0.5287000000000  0.5319950000000 1.0
C      1  0.4243780000000  0.5265410000000  0.5037590000000 1.0
C      1  0.4224740000000  0.4742960000000  0.4955130000000 1.0
C      1  0.4950730000000  0.4096790000000  0.5721250000000 1.0
C      1  0.4938200000000  0.5867350000000  0.4269190000000 1.0
C      1  0.4754280000000  0.5714780000000  0.5671490000000 1.0
C      1  0.4725660000000  0.4318000000000  0.4276210000000 1.0
C      1  0.4294150000000  0.5805190000000  0.4564130000000 1.0
C      1  0.4349670000000  0.4172600000000  0.5426250000000 1.0
C      1  0.4687680000000  0.5792770000000  0.4360850000000 1.0
C      1  0.4711770000000  0.4198860000000  0.5810920000000 1.0
C      1  0.5282030000000  0.4406600000000  0.5667730000000 1.0
C      1  0.5275680000000  0.5568480000000  0.4329950000000 1.0
C      1  0.4888120000000  0.6011870000000  0.4784840000000 1.0
C      1  0.4829570000000  0.4053260000000  0.5237580000000 1.0
C      1  0.5150480000000  0.5102840000000  0.4184010000000 1.0
C      1  0.5090140000000  0.4847630000000  0.5834660000000 1.0
C      1  0.4571010000000  0.4451700000000  0.5792260000000 1.0
C      1  0.4552700000000  0.5576660000000  0.4228790000000 1.0
C      1  0.5439610000000  0.5065120000000  0.4148510000000 1.0
C      1  0.5405830000000  0.4902100000000  0.5866190000000 1.0
C      1  0.5397500000000  0.4053930000000  0.4824440000000 1.0
C      1  0.5403860000000  0.5933630000000  0.5150470000000 1.0
C      1  0.5674510000000  0.5446270000000  0.5079880000000 1.0
C      1  0.5687200000000  0.4569490000000  0.4908620000000 1.0
C      1  0.4790290000000  0.4560200000000  0.5004310000000 1.0
C      1  0.4791590000000  0.5347450000000  0.5023340000000 1.0
C      1  0.5693010000000  0.4384750000000  0.5367170000000 1.0
C      1  0.5702940000000  0.5599990000000  0.4619860000000 1.0
C      1  0.5327890000000  0.5622770000000  0.5705400000000 1.0
C      1  0.5363660000000  0.4361450000000  0.4277500000000 1.0
C      1  0.4367650000000  0.5035660000000  0.5431750000000 1.0
C      1  0.4408100000000  0.4877240000000  0.4492970000000 1.0
C      1  0.4576620000000  0.4569770000000  0.4232580000000 1.0
C      1  0.4587340000000  0.5475280000000  0.5700940000000 1.0
C      1  0.4643800000000  0.5903940000000  0.5475510000000 1.0
C      1  0.4693720000000  0.4245240000000  0.4559100000000 1.0
C      1  0.4663140000000  0.5725570000000  0.4656830000000 1.0
C      1  0.4658850000000  0.4221770000000  0.5426870000000 1.0
C      1  0.5581650000000  0.5171780000000  0.5494610000000 1.0
C      1  0.5610310000000  0.4847040000000  0.4495910000000 1.0
C      1  0.4992980000000  0.4275390000000  0.4183860000000 1.0
C      1  0.4990370000000  0.5780570000000  0.5814240000000 1.0
C      1  0.5393760000000  0.5944040000000  0.4853500000000 1.0
C      1  0.5361570000000  0.4052430000000  0.5122960000000 1.0
C      1  0.5143780000000  0.5893860000000  0.4705550000000 1.0
C      1  0.5105500000000  0.4167920000000  0.5264240000000 1.0
C      1  0.5124890000000  0.5604800000000  0.5273840000000 1.0
C      1  0.5165880000000  0.4418050000000  0.4694430000000 1.0
C      1  0.5049820000000  0.4461690000000  0.5157000000000 1.0
C      1  0.4974450000000  0.5508730000000  0.4822180000000 1.0
C      1  0.5607900000000  0.4731770000000  0.5721750000000 1.0
C      1  0.5621950000000  0.5244100000000  0.4294240000000 1.0
C      1  0.4910480000000  0.5395210000000  0.5302250000000 1.0
C      1  0.4892990000000  0.4559140000000  0.4686640000000 1.0
C      1  0.5366190000000  0.4812910000000  0.5257340000000 1.0
C      1  0.5358150000000  0.5221970000000  0.4713480000000 1.0
C      1  0.4853540000000  0.4047890000000  0.4719830000000 1.0
C      1  0.4834310000000  0.6019670000000  0.5281460000000 1.0
C      1  0.5138420000000  0.4114700000000  0.4651270000000 1.0
C      1  0.5113360000000  0.5916250000000  0.5347040000000 1.0
C      1  0.4465560000000  0.5811870000000  0.5042360000000 1.0
C      1  0.4474320000000  0.4256590000000  0.4951340000000 1.0
C      1  0.6001980000000  0.4925490000000  0.4788940000000 1.0
C      1  0.5972010000000  0.5072610000000  0.5205120000000 1.0
C      1  0.5600720000000  0.4269560000000  0.4735860000000 1.0
C      1  0.5580800000000  0.5707750000000  0.5256010000000 1.0
C      1  0.5175540000000  0.4115900000000  0.4343430000000 1.0
C      1  0.5179710000000  0.5917200000000  0.5647890000000 1.0
C      1  0.4166200000000  0.5005790000000  0.5002550000000 1.0
END
