TITL C-3578198-8939-355 -1.32011091223624e-06 125000 -473.625302576272 0 0 79 (C1) n - 1
REM
REM in /home/bkarasulu/work/CARBON/AIRSS/Generating-Clusters/EDIP-Nigel-Params/with-SteepDescent/Higher-Symm/SD-CG/HFTN-CG
REM
REM
REM
REM
REM
REM ./C.cell (12c818d87b63d06a65506943cc24bca4)
REM
REM compiler GCC version 9.2.1 20190827 (Red Hat 9.2.1-1)
REM options -cpp -mtune=generic -march=x86-64 -g -O0 -fpre-include=/usr/include/finclude/math-vector-fortran.h
REM seed -138832751 880247062 -2039885742 1304491841 -1116513979 468245966 -1053578847 -491128077 -467817608 -1720430732 -987324575 -1974323511 1386598989 -1981016749 -1048888874 -422472925 -1452495011 297694964 1318357805 -333544916 -1308003942 -989728055 -128052704 1110125668 -1079843569 941108018 20625628 916389356 2013305955 -1805744249 1360137695 -808222280 -2077087213
REM
CELL 1.54180   50.00000   50.00000   50.00000   90.00000   90.00000   90.00000
LATT -1
SFAC C  
C      1  0.5194100000000  0.5196570000000  0.5724690000000 1.0
C      1  0.5184600000000  0.5569980000000  0.4713650000000 1.0
C      1  0.5250740000000  0.4786130000000  0.4327380000000 1.0
C      1  0.5203720000000  0.4405020000000  0.5292740000000 1.0
C      1  0.4799500000000  0.5343200000000  0.5593790000000 1.0
C      1  0.4809060000000  0.5644740000000  0.4796370000000 1.0
C      1  0.4676500000000  0.4615460000000  0.4395880000000 1.0
C      1  0.4926020000000  0.4255010000000  0.5240130000000 1.0
C      1  0.4649400000000  0.5242390000000  0.4844670000000 1.0
C      1  0.4580440000000  0.4853150000000  0.4831540000000 1.0
C      1  0.4625200000000  0.4897840000000  0.5148910000000 1.0
C      1  0.4612730000000  0.5216400000000  0.5154790000000 1.0
C      1  0.5408310000000  0.5142180000000  0.4824010000000 1.0
C      1  0.5423640000000  0.4808070000000  0.4822000000000 1.0
C      1  0.5386800000000  0.4847100000000  0.5191540000000 1.0
C      1  0.5360200000000  0.5178810000000  0.5150110000000 1.0
C      1  0.4913790000000  0.5123180000000  0.4718600000000 1.0
C      1  0.4760730000000  0.4617090000000  0.4684370000000 1.0
C      1  0.4913650000000  0.4816940000000  0.5180690000000 1.0
C      1  0.4826230000000  0.5390800000000  0.5293280000000 1.0
C      1  0.5184270000000  0.5271180000000  0.4657210000000 1.0
C      1  0.5139630000000  0.4664930000000  0.4730010000000 1.0
C      1  0.5152490000000  0.4709550000000  0.5335290000000 1.0
C      1  0.5115290000000  0.5359670000000  0.5187680000000 1.0
C      1  0.5702960000000  0.4539500000000  0.5139010000000 1.0
C      1  0.5667530000000  0.5146280000000  0.5517650000000 1.0
C      1  0.5683120000000  0.5493380000000  0.4895790000000 1.0
C      1  0.5745050000000  0.4871090000000  0.4499400000000 1.0
C      1  0.4294810000000  0.4532810000000  0.5153470000000 1.0
C      1  0.4272790000000  0.5178910000000  0.5509360000000 1.0
C      1  0.4310470000000  0.5534140000000  0.4875360000000 1.0
C      1  0.4264760000000  0.4881090000000  0.4522800000000 1.0
C      1  0.5003680000000  0.4021520000000  0.5400150000000 1.0
C      1  0.4906520000000  0.5535060000000  0.5778410000000 1.0
C      1  0.4852680000000  0.5806590000000  0.4561040000000 1.0
C      1  0.4887620000000  0.4556610000000  0.4220550000000 1.0
C      1  0.5222170000000  0.4173850000000  0.5495910000000 1.0
C      1  0.5148220000000  0.5440900000000  0.5848160000000 1.0
C      1  0.5114700000000  0.5756370000000  0.4498720000000 1.0
C      1  0.5158810000000  0.4556850000000  0.4192850000000 1.0
C      1  0.4404770000000  0.5324920000000  0.4689640000000 1.0
C      1  0.4325800000000  0.4691220000000  0.4739720000000 1.0
C      1  0.4416110000000  0.4745430000000  0.5319650000000 1.0
C      1  0.4358010000000  0.5335350000000  0.5270640000000 1.0
C      1  0.5641830000000  0.5287230000000  0.4693570000000 1.0
C      1  0.5665120000000  0.4674340000000  0.4697910000000 1.0
C      1  0.5631940000000  0.4745460000000  0.5329150000000 1.0
C      1  0.5586480000000  0.5314120000000  0.5293120000000 1.0
C      1  0.5257210000000  0.5224690000000  0.4374250000000 1.0
C      1  0.5187940000000  0.4384470000000  0.4847740000000 1.0
C      1  0.5169890000000  0.4768110000000  0.5623880000000 1.0
C      1  0.5211870000000  0.5631880000000  0.5150160000000 1.0
C      1  0.4837280000000  0.5022200000000  0.4450580000000 1.0
C      1  0.4696490000000  0.4362710000000  0.4827510000000 1.0
C      1  0.4723190000000  0.4968800000000  0.5650440000000 1.0
C      1  0.4730990000000  0.5675540000000  0.5228600000000 1.0
C      1  0.4209240000000  0.5116320000000  0.4691730000000 1.0
C      1  0.4141980000000  0.4716290000000  0.4967790000000 1.0
C      1  0.4191980000000  0.4934020000000  0.5352560000000 1.0
C      1  0.4154160000000  0.5399560000000  0.5082150000000 1.0
C      1  0.5850000000000  0.5084310000000  0.4692260000000 1.0
C      1  0.5843480000000  0.4683630000000  0.4926500000000 1.0
C      1  0.5827960000000  0.4950380000000  0.5367740000000 1.0
C      1  0.5800810000000  0.5340610000000  0.5113730000000 1.0
C      1  0.5435550000000  0.5044720000000  0.5666240000000 1.0
C      1  0.5400190000000  0.5656640000000  0.4918210000000 1.0
C      1  0.5508040000000  0.4940230000000  0.4334310000000 1.0
C      1  0.5394030000000  0.4369860000000  0.5063250000000 1.0
C      1  0.4498360000000  0.5140660000000  0.5699200000000 1.0
C      1  0.4560750000000  0.5698320000000  0.4968050000000 1.0
C      1  0.4513760000000  0.4862210000000  0.4354160000000 1.0
C      1  0.4483500000000  0.4376950000000  0.5011000000000 1.0
C      1  0.4973940000000  0.5790170000000  0.5114180000000 1.0
C      1  0.5075140000000  0.5016260000000  0.4285920000000 1.0
C      1  0.4939050000000  0.4247310000000  0.4942190000000 1.0
C      1  0.5001610000000  0.4976690000000  0.5730540000000 1.0
C      1  0.5880320000000  0.4983120000000  0.4984550000000 1.0
C      1  0.4137120000000  0.5013020000000  0.5057130000000 1.0
C      1  0.5005290000000  0.4893370000000  0.4907150000000 1.0
END
