TITL C-3577086-586-90 1.33356793959573e-06 125000 -602.333339556292 0 0 98 (C1) n - 1
REM
REM in /home/bkarasulu/work/CARBON/AIRSS/Generating-Clusters/EDIP-Nigel-Params/with-SteepDescent/Higher-Symm/SD-CG/HFTN-CG
REM
REM
REM
REM
REM
REM ./C.cell (12c818d87b63d06a65506943cc24bca4)
REM
REM compiler GCC version 9.2.1 20190827 (Red Hat 9.2.1-1)
REM options -cpp -mtune=generic -march=x86-64 -g -O0 -fpre-include=/usr/include/finclude/math-vector-fortran.h
REM seed 1912055229 -1171564876 -1620814070 -826118237 806817390 -924697667 1315732931 1645251795 -1479706727 -178156065 924428396 -1028920351 1998281863 1719100044 -725910667 -58845261 -1067328368 1374723008 436132208 743008460 -1619081033 -1487346336 -9562868 -612274660 -1147086320 1212944055 1426732715 -932466185 -650091757 1339122068 -1000190400 382925716 212741345
REM
CELL 1.54180   50.00000   50.00000   50.00000   90.00000   90.00000   90.00000
LATT -1
SFAC C  
C      1  0.5460040000000  0.4841070000000  0.4365910000000 1.0
C      1  0.5727960000000  0.5430610000000  0.4801790000000 1.0
C      1  0.4815740000000  0.4475250000000  0.5750960000000 1.0
C      1  0.4495550000000  0.5731200000000  0.5208880000000 1.0
C      1  0.4393890000000  0.5368390000000  0.4370400000000 1.0
C      1  0.4336000000000  0.4483850000000  0.5048970000000 1.0
C      1  0.4756100000000  0.5832850000000  0.5256280000000 1.0
C      1  0.5788430000000  0.4784050000000  0.5036610000000 1.0
C      1  0.4262770000000  0.4740280000000  0.5187060000000 1.0
C      1  0.5632040000000  0.5372350000000  0.5753230000000 1.0
C      1  0.5377550000000  0.5724460000000  0.4902730000000 1.0
C      1  0.4703490000000  0.5368830000000  0.5807630000000 1.0
C      1  0.4245660000000  0.4807720000000  0.4701340000000 1.0
C      1  0.5073230000000  0.4390670000000  0.4884430000000 1.0
C      1  0.4927520000000  0.5780040000000  0.4754100000000 1.0
C      1  0.5174080000000  0.5306440000000  0.5561190000000 1.0
C      1  0.5275100000000  0.5354150000000  0.4839850000000 1.0
C      1  0.4908250000000  0.4516120000000  0.5362330000000 1.0
C      1  0.4709180000000  0.4747340000000  0.4805730000000 1.0
C      1  0.5022860000000  0.5568850000000  0.4315550000000 1.0
C      1  0.4663240000000  0.5551680000000  0.5580320000000 1.0
C      1  0.5128590000000  0.4546190000000  0.4374480000000 1.0
C      1  0.5721490000000  0.5195840000000  0.5234860000000 1.0
C      1  0.5574530000000  0.5515690000000  0.4558730000000 1.0
C      1  0.4622040000000  0.4741550000000  0.4367860000000 1.0
C      1  0.4508810000000  0.4305230000000  0.5213820000000 1.0
C      1  0.4453870000000  0.4353100000000  0.4588710000000 1.0
C      1  0.5017670000000  0.5724400000000  0.5243860000000 1.0
C      1  0.5293890000000  0.4190880000000  0.4634130000000 1.0
C      1  0.5067470000000  0.4758030000000  0.4179560000000 1.0
C      1  0.5134740000000  0.4144700000000  0.5590710000000 1.0
C      1  0.5110020000000  0.5773750000000  0.4512100000000 1.0
C      1  0.5604700000000  0.5575670000000  0.5020810000000 1.0
C      1  0.4983540000000  0.5263950000000  0.5812590000000 1.0
C      1  0.4592730000000  0.5358500000000  0.4122370000000 1.0
C      1  0.4931240000000  0.4803010000000  0.5250910000000 1.0
C      1  0.5015880000000  0.5082460000000  0.4506870000000 1.0
C      1  0.5199920000000  0.4879970000000  0.4653210000000 1.0
C      1  0.5110930000000  0.5817270000000  0.4987650000000 1.0
C      1  0.4744280000000  0.5381710000000  0.5295020000000 1.0
C      1  0.5256210000000  0.4852930000000  0.5751460000000 1.0
C      1  0.5359630000000  0.5040240000000  0.5555040000000 1.0
C      1  0.4701840000000  0.5560860000000  0.4740730000000 1.0
C      1  0.5129590000000  0.5231440000000  0.5060780000000 1.0
C      1  0.4354880000000  0.5255210000000  0.5080050000000 1.0
C      1  0.5011470000000  0.4686890000000  0.4827550000000 1.0
C      1  0.4692490000000  0.5130970000000  0.5436780000000 1.0
C      1  0.4492890000000  0.5544260000000  0.4981410000000 1.0
C      1  0.4800520000000  0.4870850000000  0.4185190000000 1.0
C      1  0.5502170000000  0.4515420000000  0.5470830000000 1.0
C      1  0.5451470000000  0.5085540000000  0.4783900000000 1.0
C      1  0.5727950000000  0.5077790000000  0.4962270000000 1.0
C      1  0.5256230000000  0.4596650000000  0.5620240000000 1.0
C      1  0.4688550000000  0.5121760000000  0.4695230000000 1.0
C      1  0.4914740000000  0.4352900000000  0.4412650000000 1.0
C      1  0.5168830000000  0.4927300000000  0.5087910000000 1.0
C      1  0.5779200000000  0.4746980000000  0.5338100000000 1.0
C      1  0.5377320000000  0.4422960000000  0.4483240000000 1.0
C      1  0.4412640000000  0.5135250000000  0.4564070000000 1.0
C      1  0.5571640000000  0.5072450000000  0.4506110000000 1.0
C      1  0.4289920000000  0.5306370000000  0.5388600000000 1.0
C      1  0.5395300000000  0.5751250000000  0.4609120000000 1.0
C      1  0.4751470000000  0.4778530000000  0.5764990000000 1.0
C      1  0.5041470000000  0.5410890000000  0.5285890000000 1.0
C      1  0.5638470000000  0.4574070000000  0.4894080000000 1.0
C      1  0.4371800000000  0.4877640000000  0.4422650000000 1.0
C      1  0.4639980000000  0.4455850000000  0.4406150000000 1.0
C      1  0.5183360000000  0.4150330000000  0.5311890000000 1.0
C      1  0.4552150000000  0.5609000000000  0.4482710000000 1.0
C      1  0.5621090000000  0.5100390000000  0.5681250000000 1.0
C      1  0.5594040000000  0.4572180000000  0.4606710000000 1.0
C      1  0.4964850000000  0.4290930000000  0.5157600000000 1.0
C      1  0.4471830000000  0.4747240000000  0.5405430000000 1.0
C      1  0.5500260000000  0.5506370000000  0.5548580000000 1.0
C      1  0.5028390000000  0.5364310000000  0.4646390000000 1.0
C      1  0.4739480000000  0.5605970000000  0.4236430000000 1.0
C      1  0.4998910000000  0.4186340000000  0.4640770000000 1.0
C      1  0.4750610000000  0.5129320000000  0.4100940000000 1.0
C      1  0.5412210000000  0.4559010000000  0.5085280000000 1.0
C      1  0.5435140000000  0.4303090000000  0.5261170000000 1.0
C      1  0.4390180000000  0.5586200000000  0.5454770000000 1.0
C      1  0.5793440000000  0.5022310000000  0.5454690000000 1.0
C      1  0.5278930000000  0.4952450000000  0.4153540000000 1.0
C      1  0.4461240000000  0.5157780000000  0.5621040000000 1.0
C      1  0.5594330000000  0.5445270000000  0.5279620000000 1.0
C      1  0.5480340000000  0.5307180000000  0.4371760000000 1.0
C      1  0.4604320000000  0.4479690000000  0.5428240000000 1.0
C      1  0.4243230000000  0.4961230000000  0.4984020000000 1.0
C      1  0.5417580000000  0.4878760000000  0.5266920000000 1.0
C      1  0.5007340000000  0.4963830000000  0.5884700000000 1.0
C      1  0.5094490000000  0.4386770000000  0.5729060000000 1.0
C      1  0.4450450000000  0.4862250000000  0.5689130000000 1.0
C      1  0.4436610000000  0.4574180000000  0.4781580000000 1.0
C      1  0.4908930000000  0.4957850000000  0.5505800000000 1.0
C      1  0.5198590000000  0.5228530000000  0.4271170000000 1.0
C      1  0.4651640000000  0.5138540000000  0.5000940000000 1.0
C      1  0.4676180000000  0.4855910000000  0.5089770000000 1.0
C      1  0.4716200000000  0.4145450000000  0.5109550000000 1.0
END
