TITL C-3577080-309-642 -1.97212973589977e-06 125000 -219.67827806802 0 0 37 (C1) n - 1
REM
REM in /home/bkarasulu/work/CARBON/AIRSS/Generating-Clusters/EDIP-Nigel-Params/with-SteepDescent/Higher-Symm/SD-CG/HFTN-CG
REM
REM
REM
REM
REM
REM ./C.cell (12c818d87b63d06a65506943cc24bca4)
REM
REM compiler GCC version 9.2.1 20190827 (Red Hat 9.2.1-1)
REM options -cpp -mtune=generic -march=x86-64 -g -O0 -fpre-include=/usr/include/finclude/math-vector-fortran.h
REM seed 1027532563 -1816212237 1778399362 2094085106 -2128653048 -156819713 519586701 -180855449 -1030698665 -552746872 1917317655 1090105262 699315237 709173789 2144535087 1134352298 -1886187202 -1148966947 1524790072 301745865 -1824925285 -144929615 -474206806 1640234333 2120007060 1292660240 -1677153142 -2129356549 1886629006 -1610805228 -1006024145 1396492248 -2116071963
REM
CELL 1.54180   50.00000   50.00000   50.00000   90.00000   90.00000   90.00000
LATT -1
SFAC C  
C      1  0.5498710000000  0.5172710000000  0.5267830000000 1.0
C      1  0.4455120000000  0.4826430000000  0.4728930000000 1.0
C      1  0.4542550000000  0.4565870000000  0.5004930000000 1.0
C      1  0.5443120000000  0.5444850000000  0.4991790000000 1.0
C      1  0.5475370000000  0.4931420000000  0.4528290000000 1.0
C      1  0.4526370000000  0.5039400000000  0.5422730000000 1.0
C      1  0.4659070000000  0.5319670000000  0.4587880000000 1.0
C      1  0.5319660000000  0.4658850000000  0.5404330000000 1.0
C      1  0.5389680000000  0.4954130000000  0.4806440000000 1.0
C      1  0.4500840000000  0.5118850000000  0.5153310000000 1.0
C      1  0.4375370000000  0.4912870000000  0.4987760000000 1.0
C      1  0.5568680000000  0.5137480000000  0.4978430000000 1.0
C      1  0.5201610000000  0.4885630000000  0.5519320000000 1.0
C      1  0.4783010000000  0.5089100000000  0.4479920000000 1.0
C      1  0.5212640000000  0.4568600000000  0.5159070000000 1.0
C      1  0.4732390000000  0.5462870000000  0.4820520000000 1.0
C      1  0.5072490000000  0.5112940000000  0.4493700000000 1.0
C      1  0.4941890000000  0.4859380000000  0.5629190000000 1.0
C      1  0.5121340000000  0.5377850000000  0.5384870000000 1.0
C      1  0.4842910000000  0.4594450000000  0.4617230000000 1.0
C      1  0.4853220000000  0.4873590000000  0.5251210000000 1.0
C      1  0.5138780000000  0.5125120000000  0.4786770000000 1.0
C      1  0.4982040000000  0.4407210000000  0.5167850000000 1.0
C      1  0.4983360000000  0.5591990000000  0.4815040000000 1.0
C      1  0.5222640000000  0.5107340000000  0.5339520000000 1.0
C      1  0.4727500000000  0.4862020000000  0.4648760000000 1.0
C      1  0.5345330000000  0.5527980000000  0.5267810000000 1.0
C      1  0.4644380000000  0.4446050000000  0.4761140000000 1.0
C      1  0.4769930000000  0.4590910000000  0.5193680000000 1.0
C      1  0.5201450000000  0.5413240000000  0.4824580000000 1.0
C      1  0.5255700000000  0.4941550000000  0.4362460000000 1.0
C      1  0.4743890000000  0.5053310000000  0.5593250000000 1.0
C      1  0.4859310000000  0.5437070000000  0.5289890000000 1.0
C      1  0.5110540000000  0.4564940000000  0.4698550000000 1.0
C      1  0.5287720000000  0.4670860000000  0.4892030000000 1.0
C      1  0.4678200000000  0.5351420000000  0.5087580000000 1.0
C      1  0.4952870000000  0.5015260000000  0.4998670000000 1.0
END
