TITL C-3577091-527-276 1.11458058592206e-06 125000 -1187.10131511724 0 0 188 (C1) n - 1
REM
REM in /home/bkarasulu/work/CARBON/AIRSS/Generating-Clusters/EDIP-Nigel-Params/with-SteepDescent/Higher-Symm/SD-CG/HFTN-CG
REM
REM
REM
REM
REM
REM ./C.cell (12c818d87b63d06a65506943cc24bca4)
REM
REM compiler GCC version 9.2.1 20190827 (Red Hat 9.2.1-1)
REM options -cpp -mtune=generic -march=x86-64 -g -O0 -fpre-include=/usr/include/finclude/math-vector-fortran.h
REM seed -1648438474 1729915185 1270947081 -1389199235 250920098 1323918076 -1435171927 781393249 1485062455 -1918771682 -1083075107 2144741160 1878028873 -392770373 565431127 -238493679 1929467137 1646899484 1079636738 -875973088 1762363097 -1575578867 -81084285 -784785162 -1679597778 -236744377 1617859613 -226899239 853058976 1035061358 939559342 1659164047 -741638457
REM
CELL 1.54180   50.00000   50.00000   50.00000   90.00000   90.00000   90.00000
LATT -1
SFAC C  
C      1  0.4576250000000  0.5491880000000  0.4185610000000 1.0
C      1  0.5681630000000  0.5478040000000  0.4336830000000 1.0
C      1  0.5843410000000  0.5484710000000  0.5449520000000 1.0
C      1  0.4826200000000  0.5481890000000  0.5932290000000 1.0
C      1  0.4033390000000  0.5543170000000  0.5121950000000 1.0
C      1  0.4511620000000  0.4108570000000  0.4330750000000 1.0
C      1  0.5490030000000  0.4151940000000  0.4322220000000 1.0
C      1  0.5724110000000  0.4174950000000  0.5206490000000 1.0
C      1  0.5000910000000  0.4223240000000  0.5728260000000 1.0
C      1  0.4244040000000  0.4164650000000  0.5178970000000 1.0
C      1  0.4710530000000  0.4514710000000  0.4103020000000 1.0
C      1  0.5850280000000  0.4521430000000  0.4407860000000 1.0
C      1  0.5815810000000  0.4536390000000  0.5655190000000 1.0
C      1  0.4611610000000  0.4528670000000  0.5857810000000 1.0
C      1  0.3995910000000  0.4511250000000  0.4926170000000 1.0
C      1  0.4459360000000  0.4465290000000  0.4829600000000 1.0
C      1  0.5031540000000  0.4109770000000  0.4615400000000 1.0
C      1  0.5408980000000  0.4549370000000  0.4592090000000 1.0
C      1  0.5546580000000  0.4626320000000  0.5304380000000 1.0
C      1  0.4766160000000  0.4571550000000  0.5432560000000 1.0
C      1  0.5484330000000  0.4091880000000  0.5012960000000 1.0
C      1  0.5133120000000  0.3987550000000  0.5586520000000 1.0
C      1  0.4602050000000  0.4029930000000  0.5235840000000 1.0
C      1  0.4499800000000  0.3976520000000  0.4612800000000 1.0
C      1  0.5448580000000  0.3902840000000  0.4453320000000 1.0
C      1  0.5046960000000  0.5652430000000  0.5857950000000 1.0
C      1  0.4199550000000  0.5682060000000  0.5321610000000 1.0
C      1  0.4445470000000  0.5670470000000  0.4370750000000 1.0
C      1  0.5451080000000  0.5655840000000  0.4316460000000 1.0
C      1  0.5845580000000  0.5626710000000  0.5201330000000 1.0
C      1  0.5727520000000  0.5476000000000  0.4956270000000 1.0
C      1  0.5245850000000  0.5538990000000  0.5652560000000 1.0
C      1  0.4442600000000  0.5537990000000  0.5446960000000 1.0
C      1  0.4378870000000  0.5558120000000  0.4651000000000 1.0
C      1  0.5176220000000  0.5520270000000  0.4338100000000 1.0
C      1  0.4893760000000  0.5383790000000  0.5373720000000 1.0
C      1  0.4573610000000  0.5297320000000  0.5029560000000 1.0
C      1  0.4847860000000  0.5350480000000  0.4634200000000 1.0
C      1  0.5286910000000  0.5417720000000  0.4777610000000 1.0
C      1  0.5325550000000  0.5427200000000  0.5218830000000 1.0
C      1  0.4316700000000  0.5199370000000  0.4687270000000 1.0
C      1  0.5205600000000  0.5228780000000  0.4294710000000 1.0
C      1  0.5755300000000  0.5162710000000  0.4949310000000 1.0
C      1  0.5271290000000  0.5223910000000  0.5691300000000 1.0
C      1  0.4385860000000  0.5239260000000  0.5491410000000 1.0
C      1  0.6118980000000  0.4875340000000  0.4658380000000 1.0
C      1  0.5622050000000  0.4922340000000  0.5930990000000 1.0
C      1  0.4268890000000  0.4897930000000  0.5833670000000 1.0
C      1  0.3902940000000  0.4841990000000  0.4549620000000 1.0
C      1  0.5007180000000  0.4852470000000  0.3859000000000 1.0
C      1  0.4310920000000  0.4863960000000  0.5163170000000 1.0
C      1  0.4573110000000  0.4818650000000  0.4481810000000 1.0
C      1  0.5339600000000  0.4777380000000  0.4365920000000 1.0
C      1  0.5803660000000  0.4794560000000  0.5260880000000 1.0
C      1  0.5027330000000  0.4793880000000  0.5707460000000 1.0
C      1  0.4768970000000  0.6003540000000  0.5407700000000 1.0
C      1  0.4567810000000  0.6036360000000  0.4921020000000 1.0
C      1  0.4943080000000  0.5831490000000  0.4624240000000 1.0
C      1  0.5456020000000  0.5842100000000  0.4930240000000 1.0
C      1  0.5354300000000  0.6076870000000  0.5466840000000 1.0
C      1  0.5645650000000  0.4362500000000  0.5435770000000 1.0
C      1  0.4734930000000  0.4355140000000  0.5639030000000 1.0
C      1  0.4223430000000  0.4296070000000  0.4919630000000 1.0
C      1  0.4728280000000  0.4294960000000  0.4290830000000 1.0
C      1  0.5630930000000  0.4336860000000  0.4513380000000 1.0
C      1  0.4696720000000  0.5013490000000  0.6029810000000 1.0
C      1  0.3888910000000  0.5030480000000  0.5020880000000 1.0
C      1  0.4579070000000  0.5006790000000  0.4037780000000 1.0
C      1  0.5865940000000  0.5013110000000  0.4266750000000 1.0
C      1  0.5965150000000  0.5044990000000  0.5625390000000 1.0
C      1  0.5819520000000  0.5585990000000  0.4668530000000 1.0
C      1  0.5557320000000  0.5627360000000  0.5658740000000 1.0
C      1  0.4546830000000  0.5643520000000  0.5724370000000 1.0
C      1  0.4200790000000  0.5719510000000  0.4833090000000 1.0
C      1  0.4934840000000  0.5627900000000  0.4168340000000 1.0
C      1  0.5045610000000  0.4782100000000  0.4349340000000 1.0
C      1  0.5504980000000  0.4719890000000  0.4815040000000 1.0
C      1  0.5395110000000  0.4770320000000  0.5523780000000 1.0
C      1  0.4543770000000  0.4779870000000  0.5443430000000 1.0
C      1  0.4370290000000  0.4705060000000  0.4692880000000 1.0
C      1  0.5416500000000  0.5065270000000  0.5455860000000 1.0
C      1  0.4651350000000  0.5056840000000  0.5519120000000 1.0
C      1  0.4385620000000  0.4932800000000  0.4872000000000 1.0
C      1  0.4874390000000  0.4817170000000  0.4595740000000 1.0
C      1  0.5509540000000  0.5016290000000  0.4767630000000 1.0
C      1  0.5626250000000  0.5852400000000  0.4675900000000 1.0
C      1  0.5571700000000  0.5901480000000  0.5500880000000 1.0
C      1  0.4725080000000  0.5896400000000  0.5674860000000 1.0
C      1  0.4300910000000  0.5949420000000  0.4982810000000 1.0
C      1  0.4841540000000  0.5866660000000  0.4348110000000 1.0
C      1  0.4315750000000  0.4321100000000  0.5403020000000 1.0
C      1  0.4218900000000  0.4171980000000  0.4415710000000 1.0
C      1  0.5238360000000  0.4284070000000  0.4246400000000 1.0
C      1  0.5892620000000  0.4250890000000  0.4965920000000 1.0
C      1  0.5227560000000  0.4401350000000  0.5701450000000 1.0
C      1  0.5345100000000  0.4543810000000  0.5919980000000 1.0
C      1  0.4176420000000  0.4518750000000  0.5567190000000 1.0
C      1  0.4131800000000  0.4462540000000  0.4398510000000 1.0
C      1  0.5235140000000  0.4480290000000  0.4039640000000 1.0
C      1  0.5979440000000  0.4519460000000  0.4915860000000 1.0
C      1  0.4663260000000  0.5500030000000  0.5239030000000 1.0
C      1  0.4636960000000  0.5484380000000  0.4795010000000 1.0
C      1  0.5073480000000  0.5545330000000  0.4615100000000 1.0
C      1  0.5440050000000  0.5548810000000  0.4979100000000 1.0
C      1  0.5126610000000  0.5561850000000  0.5368620000000 1.0
C      1  0.4988520000000  0.5101080000000  0.5700170000000 1.0
C      1  0.4275550000000  0.5157450000000  0.5233160000000 1.0
C      1  0.4509150000000  0.5109230000000  0.4480320000000 1.0
C      1  0.5429430000000  0.5070060000000  0.4427320000000 1.0
C      1  0.5739390000000  0.5082030000000  0.5241120000000 1.0
C      1  0.4210720000000  0.4076340000000  0.4713350000000 1.0
C      1  0.4984100000000  0.4163010000000  0.4328840000000 1.0
C      1  0.5712770000000  0.4153270000000  0.4748350000000 1.0
C      1  0.5417140000000  0.4228120000000  0.5574120000000 1.0
C      1  0.4540330000000  0.4168620000000  0.5510920000000 1.0
C      1  0.4830930000000  0.3810920000000  0.5230740000000 1.0
C      1  0.4884100000000  0.3762530000000  0.4937460000000 1.0
C      1  0.5182490000000  0.3737690000000  0.4883740000000 1.0
C      1  0.5320030000000  0.3853870000000  0.5121660000000 1.0
C      1  0.5089230000000  0.3964450000000  0.5293560000000 1.0
C      1  0.4816180000000  0.5076950000000  0.3873490000000 1.0
C      1  0.5976670000000  0.5082460000000  0.4527360000000 1.0
C      1  0.5722620000000  0.5130000000000  0.5769030000000 1.0
C      1  0.4449390000000  0.5106160000000  0.5908510000000 1.0
C      1  0.3894690000000  0.5073150000000  0.4725110000000 1.0
C      1  0.6031340000000  0.5344190000000  0.4655760000000 1.0
C      1  0.5636070000000  0.5395610000000  0.5870750000000 1.0
C      1  0.4326090000000  0.5378150000000  0.5895250000000 1.0
C      1  0.3965610000000  0.5305360000000  0.4569230000000 1.0
C      1  0.4957960000000  0.5333970000000  0.3913970000000 1.0
C      1  0.4792730000000  0.4018200000000  0.4791830000000 1.0
C      1  0.5237520000000  0.3903500000000  0.4641280000000 1.0
C      1  0.5276630000000  0.4319500000000  0.4998870000000 1.0
C      1  0.5048130000000  0.4252450000000  0.5188820000000 1.0
C      1  0.4781030000000  0.4211120000000  0.5040890000000 1.0
C      1  0.3999070000000  0.4738760000000  0.5457930000000 1.0
C      1  0.4207770000000  0.4671330000000  0.4194490000000 1.0
C      1  0.5438810000000  0.4719070000000  0.4075370000000 1.0
C      1  0.6063940000000  0.4719990000000  0.5118640000000 1.0
C      1  0.5191480000000  0.4758920000000  0.6053770000000 1.0
C      1  0.5945630000000  0.5224650000000  0.5396710000000 1.0
C      1  0.4900380000000  0.5206730000000  0.5961960000000 1.0
C      1  0.4008380000000  0.5257980000000  0.5175920000000 1.0
C      1  0.4492400000000  0.5220020000000  0.4214340000000 1.0
C      1  0.5645210000000  0.5198260000000  0.4254450000000 1.0
C      1  0.4515780000000  0.4737260000000  0.4180510000000 1.0
C      1  0.5767860000000  0.4732590000000  0.4209890000000 1.0
C      1  0.5975360000000  0.4754230000000  0.5505040000000 1.0
C      1  0.4816840000000  0.4737990000000  0.5956940000000 1.0
C      1  0.4012190000000  0.4759010000000  0.5136930000000 1.0
C      1  0.4907890000000  0.6222200000000  0.5256600000000 1.0
C      1  0.4807980000000  0.6203300000000  0.4959660000000 1.0
C      1  0.5025510000000  0.6067110000000  0.4793260000000 1.0
C      1  0.5202260000000  0.5983400000000  0.5019290000000 1.0
C      1  0.5219280000000  0.6191800000000  0.5245820000000 1.0
C      1  0.5373170000000  0.4610710000000  0.5055710000000 1.0
C      1  0.5043910000000  0.4605690000000  0.5356900000000 1.0
C      1  0.4707200000000  0.4470850000000  0.4948880000000 1.0
C      1  0.4943800000000  0.4607670000000  0.4833520000000 1.0
C      1  0.5151020000000  0.4385200000000  0.4724920000000 1.0
C      1  0.5242290000000  0.5139080000000  0.4866700000000 1.0
C      1  0.5241060000000  0.5141560000000  0.5189970000000 1.0
C      1  0.4934880000000  0.5110710000000  0.5265320000000 1.0
C      1  0.4775910000000  0.5081080000000  0.5015790000000 1.0
C      1  0.4936890000000  0.5089980000000  0.4762790000000 1.0
C      1  0.5379980000000  0.5006920000000  0.6062480000000 1.0
C      1  0.4057200000000  0.4994210000000  0.5656940000000 1.0
C      1  0.4020360000000  0.4908630000000  0.4283900000000 1.0
C      1  0.5289780000000  0.4943960000000  0.3893020000000 1.0
C      1  0.6151380000000  0.4958230000000  0.4935230000000 1.0
C      1  0.4073310000000  0.5188660000000  0.4336100000000 1.0
C      1  0.5216160000000  0.5218590000000  0.4002700000000 1.0
C      1  0.6127460000000  0.5248900000000  0.4913580000000 1.0
C      1  0.5411610000000  0.5299270000000  0.6037270000000 1.0
C      1  0.4090490000000  0.5289140000000  0.5730690000000 1.0
C      1  0.5488510000000  0.5904950000000  0.4437230000000 1.0
C      1  0.5734330000000  0.5875060000000  0.5272330000000 1.0
C      1  0.4958380000000  0.5914860000000  0.5829380000000 1.0
C      1  0.4231950000000  0.5952560000000  0.5255670000000 1.0
C      1  0.4564780000000  0.5923460000000  0.4346890000000 1.0
C      1  0.5565330000000  0.4684230000000  0.5773040000000 1.0
C      1  0.4394480000000  0.4673440000000  0.5698200000000 1.0
C      1  0.4068560000000  0.4622120000000  0.4644030000000 1.0
C      1  0.4980010000000  0.4648920000000  0.4081530000000 1.0
C      1  0.6019360000000  0.4605370000000  0.4640160000000 1.0
C      1  0.5021250000000  0.5800100000000  0.5198310000000 1.0
C      1  0.4756760000000  0.5732770000000  0.5065980000000 1.0
C      1  0.5093450000000  0.4735420000000  0.5083250000000 1.0
END
