TITL C-3577088-510-523 1.31219419810478e-06 125000 -521.267274532176 0 0 84 (C1) n - 1
REM
REM in /home/bkarasulu/work/CARBON/AIRSS/Generating-Clusters/EDIP-Nigel-Params/with-SteepDescent/Higher-Symm/SD-CG/HFTN-CG
REM
REM
REM
REM
REM
REM ./C.cell (12c818d87b63d06a65506943cc24bca4)
REM
REM compiler GCC version 9.2.1 20190827 (Red Hat 9.2.1-1)
REM options -cpp -mtune=generic -march=x86-64 -g -O0 -fpre-include=/usr/include/finclude/math-vector-fortran.h
REM seed -524440976 -684735433 -1606413051 210706948 189392895 1375593027 -343093012 -264097202 -646340379 624734063 1091376889 -661189286 -240038756 -1773407897 -56946270 -1367260872 -130748349 2056199612 1276171594 1773947793 -1814433732 1232479856 -336676361 631782742 -580411493 2121831145 1691997243 661609628 242343370 161290712 1652675051 1207239490 602983402
REM
CELL 1.54180   50.00000   50.00000   50.00000   90.00000   90.00000   90.00000
LATT -1
SFAC C  
C      1  0.4657010000000  0.5538810000000  0.5141860000000 1.0
C      1  0.4574730000000  0.5501950000000  0.4488130000000 1.0
C      1  0.4562800000000  0.4627100000000  0.4345320000000 1.0
C      1  0.4605830000000  0.4315040000000  0.5156860000000 1.0
C      1  0.4652430000000  0.4934000000000  0.5614950000000 1.0
C      1  0.5267540000000  0.5766550000000  0.4727620000000 1.0
C      1  0.5220470000000  0.4999900000000  0.4177700000000 1.0
C      1  0.5245120000000  0.4215670000000  0.4765650000000 1.0
C      1  0.5258280000000  0.4537250000000  0.5720060000000 1.0
C      1  0.5244330000000  0.5523730000000  0.5652270000000 1.0
C      1  0.4847670000000  0.4674970000000  0.4301630000000 1.0
C      1  0.4890320000000  0.4263070000000  0.5123560000000 1.0
C      1  0.4899670000000  0.4884620000000  0.5772010000000 1.0
C      1  0.4908550000000  0.5624360000000  0.5283390000000 1.0
C      1  0.4857010000000  0.5571510000000  0.4478450000000 1.0
C      1  0.5288750000000  0.5209170000000  0.4614430000000 1.0
C      1  0.5346950000000  0.4639410000000  0.4681590000000 1.0
C      1  0.5354490000000  0.4586060000000  0.5272810000000 1.0
C      1  0.5374040000000  0.5093010000000  0.5507020000000 1.0
C      1  0.5360870000000  0.5476140000000  0.5087920000000 1.0
C      1  0.4408510000000  0.4782530000000  0.5669490000000 1.0
C      1  0.4430660000000  0.5568080000000  0.5327450000000 1.0
C      1  0.4369000000000  0.5635660000000  0.4633240000000 1.0
C      1  0.4356250000000  0.4806390000000  0.4296700000000 1.0
C      1  0.4394880000000  0.4301550000000  0.4976050000000 1.0
C      1  0.5224980000000  0.5321080000000  0.5330150000000 1.0
C      1  0.5164950000000  0.5411270000000  0.4823190000000 1.0
C      1  0.5126770000000  0.4961610000000  0.4697980000000 1.0
C      1  0.5176910000000  0.4574370000000  0.5016120000000 1.0
C      1  0.5213760000000  0.4818310000000  0.5465480000000 1.0
C      1  0.5766030000000  0.4616180000000  0.4964880000000 1.0
C      1  0.5767230000000  0.4819780000000  0.5389340000000 1.0
C      1  0.5792600000000  0.5274070000000  0.5272850000000 1.0
C      1  0.5739240000000  0.5346680000000  0.4812060000000 1.0
C      1  0.5720580000000  0.4930780000000  0.4612500000000 1.0
C      1  0.4582670000000  0.5739340000000  0.4935000000000 1.0
C      1  0.4530880000000  0.5249140000000  0.4351810000000 1.0
C      1  0.4531020000000  0.4425920000000  0.4555890000000 1.0
C      1  0.4588780000000  0.4467940000000  0.5392240000000 1.0
C      1  0.4592740000000  0.5214410000000  0.5601020000000 1.0
C      1  0.5641580000000  0.4679640000000  0.4711440000000 1.0
C      1  0.5655910000000  0.4614090000000  0.5232500000000 1.0
C      1  0.5675620000000  0.5079080000000  0.5451260000000 1.0
C      1  0.5660630000000  0.5431310000000  0.5068420000000 1.0
C      1  0.5595490000000  0.5182510000000  0.4634370000000 1.0
C      1  0.4286720000000  0.5127640000000  0.5195960000000 1.0
C      1  0.4271970000000  0.5240090000000  0.4925050000000 1.0
C      1  0.4280070000000  0.5017580000000  0.4731410000000 1.0
C      1  0.4396770000000  0.4775510000000  0.4886850000000 1.0
C      1  0.4313600000000  0.4831320000000  0.5181790000000 1.0
C      1  0.4946640000000  0.4929230000000  0.4187050000000 1.0
C      1  0.4976390000000  0.4219210000000  0.4841870000000 1.0
C      1  0.4978810000000  0.4596840000000  0.5763300000000 1.0
C      1  0.4967640000000  0.5578090000000  0.5577140000000 1.0
C      1  0.4990750000000  0.5774800000000  0.4646740000000 1.0
C      1  0.4807200000000  0.4316700000000  0.4618190000000 1.0
C      1  0.4824430000000  0.4423030000000  0.5570380000000 1.0
C      1  0.4818580000000  0.5361910000000  0.5723380000000 1.0
C      1  0.4842750000000  0.5876400000000  0.4880740000000 1.0
C      1  0.4782350000000  0.5179450000000  0.4202410000000 1.0
C      1  0.4927520000000  0.4895230000000  0.5337970000000 1.0
C      1  0.4969800000000  0.5186990000000  0.5231750000000 1.0
C      1  0.4889950000000  0.5288580000000  0.4956470000000 1.0
C      1  0.4833580000000  0.5043810000000  0.4769880000000 1.0
C      1  0.4862360000000  0.4672960000000  0.5116210000000 1.0
C      1  0.4264280000000  0.5522440000000  0.4868860000000 1.0
C      1  0.4333350000000  0.5046350000000  0.4437140000000 1.0
C      1  0.4343550000000  0.4489660000000  0.4779310000000 1.0
C      1  0.4371920000000  0.4657090000000  0.5421050000000 1.0
C      1  0.4396390000000  0.5304120000000  0.5404910000000 1.0
C      1  0.5286230000000  0.4375120000000  0.5473750000000 1.0
C      1  0.5287650000000  0.5249540000000  0.5760430000000 1.0
C      1  0.5296590000000  0.5777840000000  0.5022440000000 1.0
C      1  0.5225720000000  0.5248120000000  0.4319930000000 1.0
C      1  0.5256480000000  0.4396680000000  0.4546110000000 1.0
C      1  0.5016050000000  0.4263090000000  0.5409190000000 1.0
C      1  0.5011440000000  0.5161050000000  0.5845870000000 1.0
C      1  0.5023850000000  0.5844680000000  0.5123360000000 1.0
C      1  0.4975420000000  0.5396200000000  0.4271350000000 1.0
C      1  0.4986630000000  0.4432580000000  0.4418250000000 1.0
C      1  0.5426600000000  0.5006600000000  0.5066950000000 1.0
C      1  0.5705390000000  0.4995500000000  0.5016870000000 1.0
C      1  0.5184830000000  0.4894090000000  0.4987280000000 1.0
C      1  0.4701450000000  0.4809920000000  0.4896990000000 1.0
END
