TITL C-3578195-8548-316 6.72162268481066e-07 125000 -263.982366766095 0 0 44 (C1) n - 1
REM
REM in /home/bkarasulu/work/CARBON/AIRSS/Generating-Clusters/EDIP-Nigel-Params/with-SteepDescent/Higher-Symm/SD-CG/HFTN-CG
REM
REM
REM
REM
REM
REM ./C.cell (12c818d87b63d06a65506943cc24bca4)
REM
REM compiler GCC version 9.2.1 20190827 (Red Hat 9.2.1-1)
REM options -cpp -mtune=generic -march=x86-64 -g -O0 -fpre-include=/usr/include/finclude/math-vector-fortran.h
REM seed 1673660356 -296606324 1547406141 -1539786223 1065407717 1255801883 -639054260 -1532523718 2030943191 2045381710 560101897 -1268590983 1120154460 891262348 -560259535 -1481318824 1131714362 467845592 1407937690 1145825014 2042547803 -366459645 657174363 -1041948655 649596204 1563330509 53555459 -1202857548 993017045 -1120953022 2051626501 1311848126 -1865552559
REM
CELL 1.54180   50.00000   50.00000   50.00000   90.00000   90.00000   90.00000
LATT -1
SFAC C  
C      1  0.5513780000000  0.5397930000000  0.4693900000000 1.0
C      1  0.4824000000000  0.5518940000000  0.4672430000000 1.0
C      1  0.4441790000000  0.4972010000000  0.4678820000000 1.0
C      1  0.4830920000000  0.4442310000000  0.4678240000000 1.0
C      1  0.5396740000000  0.4730550000000  0.4637640000000 1.0
C      1  0.5263360000000  0.4654150000000  0.5393250000000 1.0
C      1  0.5445420000000  0.5141830000000  0.5408880000000 1.0
C      1  0.5031560000000  0.5457100000000  0.5412200000000 1.0
C      1  0.4608950000000  0.5154110000000  0.5404870000000 1.0
C      1  0.4756920000000  0.4670660000000  0.5399980000000 1.0
C      1  0.5430490000000  0.5145690000000  0.5109590000000 1.0
C      1  0.5046690000000  0.5445520000000  0.5111000000000 1.0
C      1  0.4559390000000  0.5173780000000  0.5118510000000 1.0
C      1  0.4697640000000  0.4623400000000  0.5121480000000 1.0
C      1  0.5258140000000  0.4610020000000  0.5105430000000 1.0
C      1  0.5038250000000  0.5654260000000  0.4553930000000 1.0
C      1  0.4425790000000  0.5209300000000  0.4531160000000 1.0
C      1  0.4592530000000  0.4492200000000  0.4538990000000 1.0
C      1  0.5325710000000  0.4476360000000  0.4519780000000 1.0
C      1  0.5718970000000  0.5241410000000  0.4584320000000 1.0
C      1  0.4825390000000  0.4414140000000  0.4969860000000 1.0
C      1  0.5479650000000  0.4675210000000  0.4932470000000 1.0
C      1  0.5510820000000  0.5408350000000  0.4996020000000 1.0
C      1  0.4807560000000  0.5549240000000  0.4961190000000 1.0
C      1  0.4401900000000  0.4981480000000  0.4968620000000 1.0
C      1  0.4543540000000  0.5434230000000  0.5002750000000 1.0
C      1  0.4436900000000  0.4694190000000  0.5022190000000 1.0
C      1  0.5115480000000  0.4375290000000  0.5009660000000 1.0
C      1  0.5605680000000  0.4935150000000  0.4969130000000 1.0
C      1  0.5281280000000  0.5604810000000  0.5004740000000 1.0
C      1  0.5113010000000  0.4341360000000  0.4642510000000 1.0
C      1  0.5684020000000  0.4988080000000  0.4691780000000 1.0
C      1  0.5287100000000  0.5629690000000  0.4688550000000 1.0
C      1  0.4533150000000  0.5447230000000  0.4631640000000 1.0
C      1  0.4412690000000  0.4675220000000  0.4649940000000 1.0
C      1  0.5370410000000  0.4889390000000  0.5517640000000 1.0
C      1  0.5261970000000  0.5329080000000  0.5518890000000 1.0
C      1  0.4809870000000  0.5316880000000  0.5527390000000 1.0
C      1  0.4642950000000  0.4897880000000  0.5509230000000 1.0
C      1  0.5010170000000  0.4618520000000  0.5504110000000 1.0
C      1  0.5116060000000  0.5137030000000  0.5091830000000 1.0
C      1  0.5032840000000  0.5016480000000  0.4845400000000 1.0
C      1  0.5023750000000  0.5018990000000  0.5399160000000 1.0
C      1  0.5161140000000  0.4893680000000  0.4644390000000 1.0
END
