TITL C-3577081-279-652 -4.71606623784441e-06 125000 -676.176898989252 0 0 108 (C1) n - 1
REM
REM in /home/bkarasulu/work/CARBON/AIRSS/Generating-Clusters/EDIP-Nigel-Params/with-SteepDescent/Higher-Symm/SD-CG/HFTN-CG
REM
REM
REM
REM
REM
REM ./C.cell (12c818d87b63d06a65506943cc24bca4)
REM
REM compiler GCC version 9.2.1 20190827 (Red Hat 9.2.1-1)
REM options -cpp -mtune=generic -march=x86-64 -g -O0 -fpre-include=/usr/include/finclude/math-vector-fortran.h
REM seed -1746961479 -144721256 -298788842 -1161997317 -1467169331 -206261624 -752858136 1182365664 -936254605 -301446680 883083689 -399563253 455846549 -1594551814 1960588974 1599764921 1942529656 418107344 -1927247836 -931969644 1642216268 -341252634 -2006065620 -1559532972 1889518118 1564317817 -1322205927 990119875 488685446 -2076718981 -1705233052 1845715055 -435867069
REM
CELL 1.54180   50.00000   50.00000   50.00000   90.00000   90.00000   90.00000
LATT -1
SFAC C  
C      1  0.5513650000000  0.4528350000000  0.4417010000000 1.0
C      1  0.4469200000000  0.4555190000000  0.5566340000000 1.0
C      1  0.4429960000000  0.4488890000000  0.4464300000000 1.0
C      1  0.5524470000000  0.4579270000000  0.5538850000000 1.0
C      1  0.5680770000000  0.5004450000000  0.4370600000000 1.0
C      1  0.4296030000000  0.5038530000000  0.5571170000000 1.0
C      1  0.4468020000000  0.4932390000000  0.4503800000000 1.0
C      1  0.5559790000000  0.5023590000000  0.5470890000000 1.0
C      1  0.4355720000000  0.4493830000000  0.4747680000000 1.0
C      1  0.5651270000000  0.4582220000000  0.5273200000000 1.0
C      1  0.5596510000000  0.4540630000000  0.4700480000000 1.0
C      1  0.4355680000000  0.4526930000000  0.5297140000000 1.0
C      1  0.5214120000000  0.4952720000000  0.4725970000000 1.0
C      1  0.4776690000000  0.4886500000000  0.5295020000000 1.0
C      1  0.4732650000000  0.4877560000000  0.4678950000000 1.0
C      1  0.5278210000000  0.4936890000000  0.5325040000000 1.0
C      1  0.5856220000000  0.5241120000000  0.4781890000000 1.0
C      1  0.4116600000000  0.5245630000000  0.5098510000000 1.0
C      1  0.4211920000000  0.5202900000000  0.4819010000000 1.0
C      1  0.5885670000000  0.5277590000000  0.5078750000000 1.0
C      1  0.4693410000000  0.4361870000000  0.4441240000000 1.0
C      1  0.5294360000000  0.4374090000000  0.5562400000000 1.0
C      1  0.5256830000000  0.4388060000000  0.4415550000000 1.0
C      1  0.4723650000000  0.4407900000000  0.5584550000000 1.0
C      1  0.5509820000000  0.5262950000000  0.5649120000000 1.0
C      1  0.4540030000000  0.5191320000000  0.4346150000000 1.0
C      1  0.4409590000000  0.5284350000000  0.5711560000000 1.0
C      1  0.5573730000000  0.5259670000000  0.4268250000000 1.0
C      1  0.5257820000000  0.5713810000000  0.5183360000000 1.0
C      1  0.4675200000000  0.5771660000000  0.4885670000000 1.0
C      1  0.4771690000000  0.5787700000000  0.5171830000000 1.0
C      1  0.5359440000000  0.5651810000000  0.4922070000000 1.0
C      1  0.4689130000000  0.5673070000000  0.5529300000000 1.0
C      1  0.5356080000000  0.5663600000000  0.4445370000000 1.0
C      1  0.5309760000000  0.5704310000000  0.5570940000000 1.0
C      1  0.4691140000000  0.5672070000000  0.4506440000000 1.0
C      1  0.5217650000000  0.4971470000000  0.4095920000000 1.0
C      1  0.4693850000000  0.4949680000000  0.5847990000000 1.0
C      1  0.4918350000000  0.4968060000000  0.4143380000000 1.0
C      1  0.5281190000000  0.4929870000000  0.5835220000000 1.0
C      1  0.5120290000000  0.4770820000000  0.5634890000000 1.0
C      1  0.4901190000000  0.4783510000000  0.4373660000000 1.0
C      1  0.4815210000000  0.4824140000000  0.5593150000000 1.0
C      1  0.5192140000000  0.4821200000000  0.4453690000000 1.0
C      1  0.5793670000000  0.5573130000000  0.5129850000000 1.0
C      1  0.4415660000000  0.5614770000000  0.4888400000000 1.0
C      1  0.4269720000000  0.5531550000000  0.5126930000000 1.0
C      1  0.5659550000000  0.5671380000000  0.4885770000000 1.0
C      1  0.5544470000000  0.4305040000000  0.4872070000000 1.0
C      1  0.4385640000000  0.4255180000000  0.5180500000000 1.0
C      1  0.4373210000000  0.4232810000000  0.4875570000000 1.0
C      1  0.5509710000000  0.4385830000000  0.5141870000000 1.0
C      1  0.5232850000000  0.4655820000000  0.5156980000000 1.0
C      1  0.4762740000000  0.4627150000000  0.4860960000000 1.0
C      1  0.4881110000000  0.4640730000000  0.5148240000000 1.0
C      1  0.5203650000000  0.4675110000000  0.4851720000000 1.0
C      1  0.4836890000000  0.5704820000000  0.4239770000000 1.0
C      1  0.5154940000000  0.5693980000000  0.5827680000000 1.0
C      1  0.5205270000000  0.5720320000000  0.4205800000000 1.0
C      1  0.4840290000000  0.5697130000000  0.5809120000000 1.0
C      1  0.4431810000000  0.5514050000000  0.5535410000000 1.0
C      1  0.5596950000000  0.5501110000000  0.4426970000000 1.0
C      1  0.5531200000000  0.5513420000000  0.5518120000000 1.0
C      1  0.4488380000000  0.5435700000000  0.4489300000000 1.0
C      1  0.4820930000000  0.4364490000000  0.4718240000000 1.0
C      1  0.5126570000000  0.4267600000000  0.5325910000000 1.0
C      1  0.5141710000000  0.4383350000000  0.4697200000000 1.0
C      1  0.4845170000000  0.4362760000000  0.5313100000000 1.0
C      1  0.4441170000000  0.4817960000000  0.5717150000000 1.0
C      1  0.5519490000000  0.4783160000000  0.4253770000000 1.0
C      1  0.5552550000000  0.4824620000000  0.5705360000000 1.0
C      1  0.4411230000000  0.4723550000000  0.4312850000000 1.0
C      1  0.5284650000000  0.4155870000000  0.4840600000000 1.0
C      1  0.4676890000000  0.4151030000000  0.5182590000000 1.0
C      1  0.4680000000000  0.4135160000000  0.4873600000000 1.0
C      1  0.5194130000000  0.4096090000000  0.5104890000000 1.0
C      1  0.4774690000000  0.5154290000000  0.4862150000000 1.0
C      1  0.5227520000000  0.5215650000000  0.5157360000000 1.0
C      1  0.5101090000000  0.5206030000000  0.4859200000000 1.0
C      1  0.4697680000000  0.5139450000000  0.5159090000000 1.0
C      1  0.5127080000000  0.5477940000000  0.5310940000000 1.0
C      1  0.4899730000000  0.5642540000000  0.4723800000000 1.0
C      1  0.4841700000000  0.5534520000000  0.5295090000000 1.0
C      1  0.5171840000000  0.5508870000000  0.4724640000000 1.0
C      1  0.5258530000000  0.5213680000000  0.5778620000000 1.0
C      1  0.4799570000000  0.5213330000000  0.4223580000000 1.0
C      1  0.4678590000000  0.5231160000000  0.5805460000000 1.0
C      1  0.5316700000000  0.5240700000000  0.4135220000000 1.0
C      1  0.4192940000000  0.4709060000000  0.4864890000000 1.0
C      1  0.5760800000000  0.4793050000000  0.5107130000000 1.0
C      1  0.5761790000000  0.4758080000000  0.4811160000000 1.0
C      1  0.4199390000000  0.4736020000000  0.5162350000000 1.0
C      1  0.5141430000000  0.5411740000000  0.5958590000000 1.0
C      1  0.4871790000000  0.5456220000000  0.4082160000000 1.0
C      1  0.4828050000000  0.5428680000000  0.5962150000000 1.0
C      1  0.5164230000000  0.5477590000000  0.4042420000000 1.0
C      1  0.4874640000000  0.4370870000000  0.5817130000000 1.0
C      1  0.5098320000000  0.4379920000000  0.4185540000000 1.0
C      1  0.5120940000000  0.4493580000000  0.5763520000000 1.0
C      1  0.4861000000000  0.4509730000000  0.4256790000000 1.0
C      1  0.5759340000000  0.5493190000000  0.4669750000000 1.0
C      1  0.4454020000000  0.5327240000000  0.5277950000000 1.0
C      1  0.4458150000000  0.5355740000000  0.4763350000000 1.0
C      1  0.5554730000000  0.5413980000000  0.5236460000000 1.0
C      1  0.5786010000000  0.5042770000000  0.5251430000000 1.0
C      1  0.4233350000000  0.4947170000000  0.4697440000000 1.0
C      1  0.4175030000000  0.5002110000000  0.5291180000000 1.0
C      1  0.5772430000000  0.4998270000000  0.4650820000000 1.0
END
