TITL C-3577089-586-49 0.010431499716675 125000 -430.983120689581 0 0 72 (C1) n - 1
REM
REM in /home/bkarasulu/work/CARBON/AIRSS/Generating-Clusters/EDIP-Nigel-Params/with-SteepDescent/Higher-Symm/SD-CG/HFTN-CG
REM
REM
REM
REM
REM
REM ./C.cell (12c818d87b63d06a65506943cc24bca4)
REM
REM compiler GCC version 9.2.1 20190827 (Red Hat 9.2.1-1)
REM options -cpp -mtune=generic -march=x86-64 -g -O0 -fpre-include=/usr/include/finclude/math-vector-fortran.h
REM seed 201291787 1545512385 980633087 -1917558086 2046215012 1323974655 -86957474 -2133381031 594009192 293911459 147026224 1974966117 -1765840822 -943770204 261777054 -568119848 -1507116305 -2121751338 -1055723355 1059734642 -1709590632 -1025105416 -1769724499 964288320 1756160085 687722509 -1736484858 503096416 -403433481 188917907 81894741 -1373966514 -1174487280
REM
CELL 1.54180   50.00000   50.00000   50.00000   90.00000   90.00000   90.00000
LATT -1
SFAC C  
C      1  0.5697070000000  0.5347420000000  0.5031510000000 1.0
C      1  0.5251130000000  0.5838880000000  0.5048050000000 1.0
C      1  0.4576400000000  0.5544700000000  0.5017420000000 1.0
C      1  0.4304520000000  0.5006710000000  0.5022160000000 1.0
C      1  0.4398450000000  0.4351640000000  0.5023200000000 1.0
C      1  0.5135610000000  0.4272800000000  0.5034490000000 1.0
C      1  0.5655480000000  0.4682020000000  0.5032020000000 1.0
C      1  0.4517460000000  0.4943520000000  0.4790200000000 1.0
C      1  0.4613310000000  0.4469130000000  0.4725910000000 1.0
C      1  0.5078240000000  0.4500550000000  0.4832370000000 1.0
C      1  0.5437980000000  0.4817560000000  0.4860990000000 1.0
C      1  0.5446880000000  0.5299820000000  0.4849300000000 1.0
C      1  0.5108790000000  0.5638140000000  0.4751190000000 1.0
C      1  0.4710110000000  0.5374890000000  0.4704770000000 1.0
C      1  0.5658910000000  0.5232750000000  0.5308280000000 1.0
C      1  0.5300170000000  0.5720590000000  0.5314270000000 1.0
C      1  0.4736690000000  0.5460060000000  0.5266190000000 1.0
C      1  0.4427120000000  0.5065690000000  0.5319050000000 1.0
C      1  0.4421890000000  0.4465250000000  0.5294270000000 1.0
C      1  0.5025080000000  0.4338360000000  0.5305560000000 1.0
C      1  0.5554670000000  0.4644500000000  0.5312540000000 1.0
C      1  0.5099600000000  0.5705370000000  0.5508930000000 1.0
C      1  0.4529090000000  0.5338710000000  0.5442260000000 1.0
C      1  0.4308450000000  0.4888330000000  0.5513160000000 1.0
C      1  0.4571760000000  0.4330760000000  0.5488580000000 1.0
C      1  0.5220170000000  0.4345730000000  0.5506260000000 1.0
C      1  0.5698380000000  0.4789510000000  0.5504640000000 1.0
C      1  0.5635530000000  0.5426540000000  0.5510050000000 1.0
C      1  0.4229050000000  0.4671370000000  0.5353280000000 1.0
C      1  0.4773590000000  0.4201780000000  0.5342320000000 1.0
C      1  0.5462640000000  0.4374470000000  0.5364450000000 1.0
C      1  0.5819370000000  0.4996140000000  0.5355050000000 1.0
C      1  0.5578220000000  0.5663310000000  0.5367450000000 1.0
C      1  0.4860550000000  0.5718080000000  0.5363460000000 1.0
C      1  0.4266500000000  0.5419730000000  0.5357830000000 1.0
C      1  0.4125100000000  0.4758600000000  0.5090860000000 1.0
C      1  0.4690600000000  0.4105030000000  0.5084330000000 1.0
C      1  0.5449180000000  0.4240010000000  0.5099550000000 1.0
C      1  0.5901200000000  0.4899650000000  0.5086880000000 1.0
C      1  0.5713080000000  0.5663630000000  0.5102310000000 1.0
C      1  0.4878210000000  0.5890800000000  0.5133120000000 1.0
C      1  0.4279630000000  0.5490290000000  0.5079350000000 1.0
C      1  0.4697990000000  0.5852120000000  0.4685910000000 1.0
C      1  0.4235960000000  0.5300180000000  0.4646680000000 1.0
C      1  0.4188340000000  0.4623050000000  0.4644850000000 1.0
C      1  0.4905680000000  0.4104820000000  0.4658120000000 1.0
C      1  0.5518160000000  0.4392990000000  0.4666740000000 1.0
C      1  0.5807360000000  0.5057660000000  0.4661160000000 1.0
C      1  0.5553980000000  0.5729870000000  0.4664900000000 1.0
C      1  0.4651650000000  0.5830610000000  0.4963280000000 1.0
C      1  0.4174150000000  0.5263940000000  0.4919290000000 1.0
C      1  0.4162700000000  0.4524320000000  0.4909710000000 1.0
C      1  0.4937980000000  0.4058010000000  0.4934290000000 1.0
C      1  0.5639730000000  0.4389250000000  0.4920350000000 1.0
C      1  0.5903370000000  0.5143560000000  0.4910840000000 1.0
C      1  0.5539240000000  0.5834460000000  0.4927710000000 1.0
C      1  0.4875940000000  0.4388290000000  0.4647280000000 1.0
C      1  0.5322120000000  0.4600220000000  0.4694680000000 1.0
C      1  0.5523610000000  0.5053530000000  0.4701360000000 1.0
C      1  0.5359770000000  0.5522930000000  0.4670500000000 1.0
C      1  0.4849160000000  0.5619700000000  0.4628580000000 1.0
C      1  0.4497530000000  0.5193450000000  0.4623150000000 1.0
C      1  0.4462260000000  0.4694220000000  0.4632490000000 1.0
C      1  0.5095940000000  0.4956720000000  0.3948410000000 1.0
C      1  0.4944720000000  0.5251240000000  0.5207380000000 1.0
C      1  0.5048580000000  0.4973010000000  0.4199160000000 1.0
C      1  0.4994800000000  0.5008020000000  0.4455730000000 1.0
C      1  0.4950750000000  0.5004480000000  0.4720790000000 1.0
C      1  0.5151740000000  0.5052270000000  0.5658940000000 1.0
C      1  0.5223310000000  0.4967640000000  0.5889400000000 1.0
C      1  0.4941080000000  0.5109430000000  0.4970200000000 1.0
C      1  0.5074250000000  0.5138230000000  0.5421320000000 1.0
END
