TITL C-3577090-796-493 8.3306882579681e-07 125000 -543.027034044129 0 0 88 (C1) n - 1
REM
REM in /home/bkarasulu/work/CARBON/AIRSS/Generating-Clusters/EDIP-Nigel-Params/with-SteepDescent/Higher-Symm/SD-CG/HFTN-CG
REM
REM
REM
REM
REM
REM ./C.cell (12c818d87b63d06a65506943cc24bca4)
REM
REM compiler GCC version 9.2.1 20190827 (Red Hat 9.2.1-1)
REM options -cpp -mtune=generic -march=x86-64 -g -O0 -fpre-include=/usr/include/finclude/math-vector-fortran.h
REM seed 487901320 609460611 -615789455 480553049 1664225389 -1217328038 54924248 1940938463 364185302 -343188014 -472430423 -1388067951 -660378713 -1168405316 -1377676929 1116510650 -1530736341 -18526871 -1499171621 424311030 1911457336 1290565540 253878346 -1400091570 -1197456363 1841548523 666170725 781981967 -1719486516 603973814 -977060722 -712759054 -1973972359
REM
CELL 1.54180   50.00000   50.00000   50.00000   90.00000   90.00000   90.00000
LATT -1
SFAC C  
C      1  0.4719990000000  0.4170310000000  0.4948930000000 1.0
C      1  0.5309150000000  0.4170010000000  0.4914330000000 1.0
C      1  0.5265810000000  0.4923610000000  0.5368480000000 1.0
C      1  0.4744130000000  0.4923060000000  0.5394490000000 1.0
C      1  0.4463020000000  0.5442220000000  0.4528550000000 1.0
C      1  0.5567180000000  0.5472240000000  0.4542260000000 1.0
C      1  0.4523210000000  0.4838460000000  0.4663710000000 1.0
C      1  0.5481910000000  0.4844520000000  0.4678400000000 1.0
C      1  0.5715690000000  0.4552600000000  0.5348120000000 1.0
C      1  0.4295200000000  0.4557880000000  0.5349750000000 1.0
C      1  0.5601040000000  0.5207010000000  0.4980510000000 1.0
C      1  0.4405800000000  0.5199370000000  0.4972180000000 1.0
C      1  0.4708160000000  0.5464800000000  0.5241050000000 1.0
C      1  0.5292080000000  0.5461180000000  0.5250970000000 1.0
C      1  0.4714400000000  0.5253890000000  0.5016640000000 1.0
C      1  0.5293010000000  0.5258380000000  0.5019460000000 1.0
C      1  0.5165400000000  0.5410790000000  0.4783810000000 1.0
C      1  0.4858650000000  0.5401080000000  0.4776750000000 1.0
C      1  0.5605810000000  0.4511330000000  0.5602150000000 1.0
C      1  0.4390780000000  0.4524330000000  0.5610240000000 1.0
C      1  0.5410870000000  0.5149080000000  0.4081940000000 1.0
C      1  0.4557780000000  0.5123480000000  0.4073390000000 1.0
C      1  0.5160280000000  0.4206070000000  0.4681720000000 1.0
C      1  0.4834870000000  0.4198760000000  0.4697760000000 1.0
C      1  0.4852180000000  0.5705650000000  0.5120890000000 1.0
C      1  0.5152340000000  0.5706660000000  0.5130020000000 1.0
C      1  0.5128550000000  0.5400810000000  0.4008130000000 1.0
C      1  0.4848620000000  0.5381260000000  0.3989270000000 1.0
C      1  0.5501510000000  0.4999870000000  0.5582970000000 1.0
C      1  0.4494590000000  0.5012150000000  0.5590960000000 1.0
C      1  0.4848510000000  0.4642120000000  0.5495460000000 1.0
C      1  0.5167950000000  0.4641870000000  0.5462300000000 1.0
C      1  0.4848510000000  0.5003280000000  0.5879260000000 1.0
C      1  0.5144530000000  0.4994730000000  0.5873140000000 1.0
C      1  0.5348570000000  0.4430440000000  0.5323140000000 1.0
C      1  0.4664300000000  0.4440440000000  0.5347540000000 1.0
C      1  0.5716810000000  0.5021800000000  0.5183630000000 1.0
C      1  0.4291280000000  0.5021420000000  0.5179880000000 1.0
C      1  0.4833230000000  0.4486360000000  0.4588500000000 1.0
C      1  0.5141970000000  0.4494120000000  0.4588030000000 1.0
C      1  0.5315130000000  0.5294060000000  0.4541850000000 1.0
C      1  0.4736020000000  0.5300570000000  0.4507630000000 1.0
C      1  0.4695060000000  0.4577600000000  0.4346430000000 1.0
C      1  0.5262630000000  0.4615960000000  0.4357760000000 1.0
C      1  0.4435930000000  0.4713100000000  0.4394720000000 1.0
C      1  0.5524480000000  0.4737400000000  0.4393590000000 1.0
C      1  0.4462960000000  0.5631870000000  0.4768520000000 1.0
C      1  0.5558400000000  0.5651690000000  0.4790780000000 1.0
C      1  0.4266590000000  0.5137390000000  0.5445560000000 1.0
C      1  0.5737330000000  0.5129010000000  0.5454070000000 1.0
C      1  0.4256350000000  0.5249890000000  0.4525240000000 1.0
C      1  0.5758560000000  0.5266680000000  0.4537120000000 1.0
C      1  0.4699790000000  0.4746800000000  0.5899880000000 1.0
C      1  0.5279240000000  0.4730970000000  0.5882550000000 1.0
C      1  0.5661850000000  0.5080800000000  0.4723000000000 1.0
C      1  0.4338200000000  0.5065550000000  0.4719780000000 1.0
C      1  0.4405630000000  0.4753900000000  0.5171460000000 1.0
C      1  0.5611670000000  0.4750460000000  0.5167450000000 1.0
C      1  0.5215920000000  0.5271810000000  0.4252350000000 1.0
C      1  0.4772490000000  0.5233820000000  0.4211090000000 1.0
C      1  0.5152670000000  0.5290590000000  0.5476450000000 1.0
C      1  0.4847890000000  0.5294420000000  0.5476030000000 1.0
C      1  0.4841010000000  0.4503190000000  0.5853600000000 1.0
C      1  0.5120430000000  0.4502630000000  0.5810460000000 1.0
C      1  0.5541490000000  0.4748710000000  0.5750460000000 1.0
C      1  0.4441590000000  0.4764640000000  0.5760690000000 1.0
C      1  0.4761780000000  0.5683390000000  0.4830370000000 1.0
C      1  0.5255860000000  0.5695150000000  0.4842670000000 1.0
C      1  0.5584940000000  0.5550330000000  0.5285010000000 1.0
C      1  0.4415440000000  0.5554190000000  0.5266080000000 1.0
C      1  0.5195100000000  0.4978170000000  0.4686940000000 1.0
C      1  0.4805870000000  0.4979290000000  0.4572920000000 1.0
C      1  0.4514410000000  0.4644880000000  0.4919040000000 1.0
C      1  0.5518240000000  0.4641880000000  0.4912110000000 1.0
C      1  0.4313610000000  0.5489520000000  0.4993480000000 1.0
C      1  0.5695390000000  0.5494860000000  0.5013260000000 1.0
C      1  0.5735790000000  0.5408000000000  0.5470290000000 1.0
C      1  0.4262530000000  0.5416650000000  0.5453110000000 1.0
C      1  0.4416060000000  0.4912490000000  0.4191140000000 1.0
C      1  0.5552050000000  0.4937520000000  0.4196050000000 1.0
C      1  0.5100930000000  0.4855560000000  0.4334370000000 1.0
C      1  0.4838960000000  0.4798180000000  0.4234490000000 1.0
C      1  0.5147000000000  0.4995620000000  0.5076090000000 1.0
C      1  0.4855480000000  0.5022140000000  0.5126870000000 1.0
C      1  0.4694310000000  0.5206170000000  0.5723510000000 1.0
C      1  0.5304000000000  0.5188880000000  0.5714770000000 1.0
C      1  0.4682290000000  0.4429680000000  0.5047230000000 1.0
C      1  0.5342980000000  0.4426500000000  0.5022980000000 1.0
END
