TITL C-3577077-324-455 -2.33686393010852e-06 125000 -342.778764582842 0 0 58 (C1) n - 1
REM
REM in /home/bkarasulu/work/CARBON/AIRSS/Generating-Clusters/EDIP-Nigel-Params/with-SteepDescent/Higher-Symm/SD-CG/HFTN-CG
REM
REM
REM
REM
REM
REM ./C.cell (12c818d87b63d06a65506943cc24bca4)
REM
REM compiler GCC version 9.2.1 20190827 (Red Hat 9.2.1-1)
REM options -cpp -mtune=generic -march=x86-64 -g -O0 -fpre-include=/usr/include/finclude/math-vector-fortran.h
REM seed -798980448 -1086188969 800137630 467297062 2087202285 1376662039 324555922 690756513 174473616 -1605656510 -1420340052 1143956140 1209918887 -1262531075 -224802871 -585486366 -318088336 -1145096590 -1642267614 -279694349 1907954896 -1170321538 1979851944 -53284138 -2110346022 1930087115 171952186 -1134023500 1749927667 590432207 -47320878 1501004492 -1241594433
REM
CELL 1.54180   50.00000   50.00000   50.00000   90.00000   90.00000   90.00000
LATT -1
SFAC C  
C      1  0.5389710000000  0.4577520000000  0.5305450000000 1.0
C      1  0.5323130000000  0.4933620000000  0.4531270000000 1.0
C      1  0.5295340000000  0.5389710000000  0.5287670000000 1.0
C      1  0.5109280000000  0.4860780000000  0.4336210000000 1.0
C      1  0.5127110000000  0.5651240000000  0.5251020000000 1.0
C      1  0.5160670000000  0.4454760000000  0.5458370000000 1.0
C      1  0.4941150000000  0.5077980000000  0.4251450000000 1.0
C      1  0.4892920000000  0.5612850000000  0.5412790000000 1.0
C      1  0.4971010000000  0.4342600000000  0.5275620000000 1.0
C      1  0.5100360000000  0.5292920000000  0.4647220000000 1.0
C      1  0.5095360000000  0.5201800000000  0.5442920000000 1.0
C      1  0.4991930000000  0.4664740000000  0.4890820000000 1.0
C      1  0.5320480000000  0.4399350000000  0.4608670000000 1.0
C      1  0.5251380000000  0.5551730000000  0.4695310000000 1.0
C      1  0.5255170000000  0.5077240000000  0.5668100000000 1.0
C      1  0.5003920000000  0.4639300000000  0.5638890000000 1.0
C      1  0.4936750000000  0.4628540000000  0.4408940000000 1.0
C      1  0.4976840000000  0.5728150000000  0.4995070000000 1.0
C      1  0.4434600000000  0.5242400000000  0.4642560000000 1.0
C      1  0.4407580000000  0.5136040000000  0.5330870000000 1.0
C      1  0.4457060000000  0.4679910000000  0.4920840000000 1.0
C      1  0.5052060000000  0.4493360000000  0.4640320000000 1.0
C      1  0.5122640000000  0.5786460000000  0.4762250000000 1.0
C      1  0.5161070000000  0.4835910000000  0.5762010000000 1.0
C      1  0.4728010000000  0.4927610000000  0.4539720000000 1.0
C      1  0.4802440000000  0.5399890000000  0.5101940000000 1.0
C      1  0.4883570000000  0.4748300000000  0.5297930000000 1.0
C      1  0.5509560000000  0.5055680000000  0.5517750000000 1.0
C      1  0.5457760000000  0.4539140000000  0.4810170000000 1.0
C      1  0.5480010000000  0.5474160000000  0.4840850000000 1.0
C      1  0.4664980000000  0.4770330000000  0.5494830000000 1.0
C      1  0.4559850000000  0.4684940000000  0.4455080000000 1.0
C      1  0.4625770000000  0.5566630000000  0.4939930000000 1.0
C      1  0.5377080000000  0.5279120000000  0.5019030000000 1.0
C      1  0.5377980000000  0.4886920000000  0.5275890000000 1.0
C      1  0.5342060000000  0.4811460000000  0.4806620000000 1.0
C      1  0.5426480000000  0.5196760000000  0.4499670000000 1.0
C      1  0.5551490000000  0.5347520000000  0.5454040000000 1.0
C      1  0.5453620000000  0.4409140000000  0.5070380000000 1.0
C      1  0.4351920000000  0.4732420000000  0.4653590000000 1.0
C      1  0.4410760000000  0.5385360000000  0.4889640000000 1.0
C      1  0.4406640000000  0.4848780000000  0.5382990000000 1.0
C      1  0.4905770000000  0.5308630000000  0.4414870000000 1.0
C      1  0.4857640000000  0.5360520000000  0.5532040000000 1.0
C      1  0.4850890000000  0.4422740000000  0.5028210000000 1.0
C      1  0.4632860000000  0.5335740000000  0.4471100000000 1.0
C      1  0.4608420000000  0.5267800000000  0.5464090000000 1.0
C      1  0.4562700000000  0.4430260000000  0.5008050000000 1.0
C      1  0.5494380000000  0.5281600000000  0.4258060000000 1.0
C      1  0.5601490000000  0.5506850000000  0.5661150000000 1.0
C      1  0.5571900000000  0.4172020000000  0.5102620000000 1.0
C      1  0.4960210000000  0.5166460000000  0.4931490000000 1.0
C      1  0.5067530000000  0.4985370000000  0.5228110000000 1.0
C      1  0.4822000000000  0.4913220000000  0.4828860000000 1.0
C      1  0.4309210000000  0.4682590000000  0.5164250000000 1.0
C      1  0.4294030000000  0.5003510000000  0.4608070000000 1.0
C      1  0.4293550000000  0.5254110000000  0.5106990000000 1.0
C      1  0.5455380000000  0.4995570000000  0.5012010000000 1.0
END
